CHEMBL4080483
     RDKit          3D

  0  0  0  0  0  0  0  0  0  0999 V3000
M  V30 BEGIN CTAB
M  V30 COUNTS 47 50 0 0 0
M  V30 BEGIN ATOM
M  V30 1 C 1.303947 -3.205019 3.062200 0
M  V30 2 N 0.105285 -2.600821 2.533950 0
M  V30 3 C 0.208418 -1.988690 1.340917 0
M  V30 4 N 1.378063 -1.896163 0.551405 0
M  V30 5 C 1.579558 -2.428405 -0.790028 0
M  V30 6 C 2.603550 -1.683622 -1.566110 0
M  V30 7 N 2.760361 -0.308102 -1.238054 0
M  V30 8 C 2.943274 -0.045332 0.167196 0
M  V30 9 C 2.278031 1.198761 0.632209 0
M  V30 10 C 0.996520 1.537818 0.259944 0
M  V30 11 C 0.368492 2.688177 0.684288 0
M  V30 12 C 1.074910 3.540044 1.529579 0
M  V30 13 Cl 0.254366 5.007418 2.060214 0
M  V30 14 C 2.371346 3.224661 1.923590 0
M  V30 15 C 2.954385 2.080410 1.482759 0
M  V30 16 C 2.566744 -1.231262 1.027421 0
M  V30 17 N -0.834914 -1.395226 0.763445 0
M  V30 18 C -2.070162 -1.350432 1.303708 0
M  V30 19 C -3.208301 -0.703042 0.664268 0
M  V30 20 C -4.481846 -0.654318 1.214299 0
M  V30 21 C -5.524754 -0.016588 0.541456 0
M  V30 22 N -5.291791 0.564521 -0.668598 0
M  V30 23 C -4.051467 0.504997 -1.182484 0
M  V30 24 C -2.948812 -0.111754 -0.578447 0
M  V30 25 C -2.157703 -1.977868 2.517010 0
M  V30 26 C -1.098827 -2.593490 3.129138 0
M  V30 27 O -1.171611 -3.170002 4.240654 0
M  V30 28 H 1.001292 -4.066458 3.690594 0
M  V30 29 H 1.832670 -2.505441 3.743484 0
M  V30 30 H 1.961331 -3.607494 2.271732 0
M  V30 31 H 1.755090 -3.510500 -0.796156 0
M  V30 32 H 0.589216 -2.253378 -1.305835 0
M  V30 33 H 3.597672 -2.181787 -1.379846 0
M  V30 34 H 2.333416 -1.746237 -2.646848 0
M  V30 35 H 2.221623 0.377212 -1.765288 0
M  V30 36 H 4.035265 0.099044 0.309393 0
M  V30 37 H 0.449543 0.863498 -0.403001 0
M  V30 38 H -0.621885 2.924013 0.382348 0
M  V30 39 H 2.853036 3.954269 2.592534 0
M  V30 40 H 3.969544 1.844090 1.797662 0
M  V30 41 H 2.371589 -0.870107 2.058146 0
M  V30 42 H 3.399109 -1.972726 0.964981 0
M  V30 43 H -4.653119 -1.115345 2.164765 0
M  V30 44 H -6.516477 0.023233 0.964146 0
M  V30 45 H -3.836517 0.965446 -2.160686 0
M  V30 46 H -1.984759 -0.130550 -1.029212 0
M  V30 47 H -3.074617 -2.021724 3.062754 0
M  V30 END ATOM
M  V30 BEGIN BOND
M  V30 1 1 1 2
M  V30 2 1 2 3
M  V30 3 1 3 4
M  V30 4 1 4 5
M  V30 5 1 5 6
M  V30 6 1 6 7
M  V30 7 1 7 8
M  V30 8 1 8 9
M  V30 9 2 9 10
M  V30 10 1 10 11
M  V30 11 2 11 12
M  V30 12 1 12 13
M  V30 13 1 12 14
M  V30 14 2 14 15
M  V30 15 1 8 16
M  V30 16 2 3 17
M  V30 17 1 17 18
M  V30 18 1 18 19
M  V30 19 2 19 20
M  V30 20 1 20 21
M  V30 21 2 21 22
M  V30 22 1 22 23
M  V30 23 2 23 24
M  V30 24 2 18 25
M  V30 25 1 25 26
M  V30 26 2 26 27
M  V30 27 1 26 2
M  V30 28 1 16 4
M  V30 29 1 24 19
M  V30 30 1 15 9
M  V30 31 1 1 28
M  V30 32 1 1 29
M  V30 33 1 1 30
M  V30 34 1 5 31
M  V30 35 1 5 32
M  V30 36 1 6 33
M  V30 37 1 6 34
M  V30 38 1 7 35
M  V30 39 1 8 36
M  V30 40 1 10 37
M  V30 41 1 11 38
M  V30 42 1 14 39
M  V30 43 1 15 40
M  V30 44 1 16 41
M  V30 45 1 16 42
M  V30 46 1 20 43
M  V30 47 1 21 44
M  V30 48 1 23 45
M  V30 49 1 24 46
M  V30 50 1 25 47
M  V30 END BOND
M  V30 END CTAB
M  END
>  <Dataset>  (1) 
ChEMBL_Kinases

>  <Ligand_Instance>  (1) 
nan

>  <PDB_ID>  (1) 
nan

>  <Standardized_SMILES>  (1) 
Cn1c(N2CCNC(c3ccc(Cl)cc3)C2)nc(-c2ccncc2)cc1=O

>  <Name>  (1) 
nan

>  <Pocket>  (1) 
nan

>  <ATP_Site>  (1) 
nan

>  <Peripheral>  (1) 
nan

>  <Num_H_Atoms_ProtBoundConf>  (1) 
nan

>  <Num_Resolved_Atoms>  (1) 
nan

>  <Num_Not_Resolved_Atoms>  (1) 
nan

$$$$
CHEMBL4080475
     RDKit          3D

  0  0  0  0  0  0  0  0  0  0999 V3000
M  V30 BEGIN CTAB
M  V30 COUNTS 65 69 0 0 0
M  V30 BEGIN ATOM
M  V30 1 O 2.156270 0.529798 2.600376 0
M  V30 2 C 2.990788 1.459414 2.599373 0
M  V30 3 N 4.254978 1.116994 3.143000 0
M  V30 4 C 4.249868 -0.261625 3.571333 0
M  V30 5 C 4.617087 -1.279259 2.695987 0
M  V30 6 C 4.606167 -2.606104 3.126206 0
M  V30 7 C 4.218724 -2.796203 4.425871 0
M  V30 8 Cl 4.201911 -4.469776 4.976050 0
M  V30 9 C 3.843155 -1.845966 5.347874 0
M  V30 10 C 3.867327 -0.533236 4.879847 0
M  V30 11 N 2.622403 2.704861 2.084030 0
M  V30 12 C 1.397039 3.136665 1.524381 0
M  V30 13 C 1.287995 4.438309 1.089126 0
M  V30 14 C 0.128626 4.929976 0.533533 0
M  V30 15 C -0.990768 4.128078 0.386546 0
M  V30 16 C -2.259909 4.630224 -0.210645 0
M  V30 17 N -2.262836 4.424192 -1.665848 0
M  V30 18 C -2.127065 2.997105 -1.911232 0
M  V30 19 N -1.152067 2.387965 -2.036350 0
M  V30 20 C -1.003988 1.080809 -2.261783 0
M  V30 21 C 0.138290 0.317555 -2.415936 0
M  V30 22 C 0.045491 -1.035256 -2.642779 0
M  V30 23 C -1.164931 -1.732695 -2.734203 0
M  V30 24 O -1.085918 -3.078207 -2.965044 0
M  V30 25 C -2.053212 -4.037697 -3.095762 0
M  V30 26 C -2.948527 -4.357641 -1.961757 0
M  V30 27 N -2.282612 -4.874731 -0.822005 0
M  V30 28 C -1.421362 -3.985737 -0.092856 0
M  V30 29 C -2.143357 -2.959530 0.700652 0
M  V30 30 O -3.448590 -3.329455 0.982251 0
M  V30 31 C -3.445673 -4.687446 1.316793 0
M  V30 32 C -3.201978 -5.550138 0.095830 0
M  V30 33 C -2.319615 -1.009900 -2.586920 0
M  V30 34 C -2.179082 0.341799 -2.361358 0
M  V30 35 S -3.475610 1.637715 -2.112327 0
M  V30 36 C -0.918861 2.798542 0.817284 0
M  V30 37 C 0.272174 2.386336 1.359612 0
M  V30 38 H 4.995672 1.879984 3.160890 0
M  V30 39 H 4.906006 -1.036855 1.695833 0
M  V30 40 H 4.883353 -3.417123 2.476621 0
M  V30 41 H 3.553803 -2.110519 6.355596 0
M  V30 42 H 3.582403 0.255765 5.560147 0
M  V30 43 H 3.424622 3.388660 2.149261 0
M  V30 44 H 2.145661 5.109827 1.184736 0
M  V30 45 H 0.112585 5.952099 0.215897 0
M  V30 46 H -3.079800 4.014335 0.214641 0
M  V30 47 H -2.477514 5.671394 0.070249 0
M  V30 48 H -2.324053 4.897734 -2.599727 0
M  V30 49 H 1.137408 0.755206 -2.363772 0
M  V30 50 H 0.986453 -1.596061 -2.758280 0
M  V30 51 H -1.510426 -4.984291 -3.430898 0
M  V30 52 H -2.649069 -3.778793 -4.037136 0
M  V30 53 H -3.625896 -5.197457 -2.329614 0
M  V30 54 H -3.674602 -3.551390 -1.712586 0
M  V30 55 H -0.625589 -3.560156 -0.706270 0
M  V30 56 H -0.867054 -4.642787 0.659125 0
M  V30 57 H -1.603613 -2.787032 1.677592 0
M  V30 58 H -2.175124 -2.006777 0.120886 0
M  V30 59 H -2.651156 -4.815105 2.086111 0
M  V30 60 H -4.409222 -4.922399 1.793220 0
M  V30 61 H -2.786054 -6.511517 0.421463 0
M  V30 62 H -4.159197 -5.719500 -0.410108 0
M  V30 63 H -3.282877 -1.438227 -2.644385 0
M  V30 64 H -1.783897 2.162073 0.708660 0
M  V30 65 H 0.263782 1.365370 1.667491 0
M  V30 END ATOM
M  V30 BEGIN BOND
M  V30 1 2 1 2
M  V30 2 1 2 3
M  V30 3 1 3 4
M  V30 4 2 4 5
M  V30 5 1 5 6
M  V30 6 2 6 7
M  V30 7 1 7 8
M  V30 8 1 7 9
M  V30 9 2 9 10
M  V30 10 1 2 11
M  V30 11 1 11 12
M  V30 12 2 12 13
M  V30 13 1 13 14
M  V30 14 2 14 15
M  V30 15 1 15 16
M  V30 16 1 16 17
M  V30 17 1 17 18
M  V30 18 2 18 19
M  V30 19 1 19 20
M  V30 20 2 20 21
M  V30 21 1 21 22
M  V30 22 2 22 23
M  V30 23 1 23 24
M  V30 24 1 24 25
M  V30 25 1 25 26
M  V30 26 1 26 27
M  V30 27 1 27 28
M  V30 28 1 28 29
M  V30 29 1 29 30
M  V30 30 1 30 31
M  V30 31 1 31 32
M  V30 32 1 23 33
M  V30 33 2 33 34
M  V30 34 1 34 35
M  V30 35 1 15 36
M  V30 36 2 36 37
M  V30 37 1 10 4
M  V30 38 1 37 12
M  V30 39 1 35 18
M  V30 40 1 34 20
M  V30 41 1 32 27
M  V30 42 1 3 38
M  V30 43 1 5 39
M  V30 44 1 6 40
M  V30 45 1 9 41
M  V30 46 1 10 42
M  V30 47 1 11 43
M  V30 48 1 13 44
M  V30 49 1 14 45
M  V30 50 1 16 46
M  V30 51 1 16 47
M  V30 52 1 17 48
M  V30 53 1 21 49
M  V30 54 1 22 50
M  V30 55 1 25 51
M  V30 56 1 25 52
M  V30 57 1 26 53
M  V30 58 1 26 54
M  V30 59 1 28 55
M  V30 60 1 28 56
M  V30 61 1 29 57
M  V30 62 1 29 58
M  V30 63 1 31 59
M  V30 64 1 31 60
M  V30 65 1 32 61
M  V30 66 1 32 62
M  V30 67 1 33 63
M  V30 68 1 36 64
M  V30 69 1 37 65
M  V30 END BOND
M  V30 END CTAB
M  END
>  <Dataset>  (2) 
ChEMBL_Kinases

>  <Ligand_Instance>  (2) 
nan

>  <PDB_ID>  (2) 
nan

>  <Standardized_SMILES>  (2) 
O=C(Nc1ccc(Cl)cc1)Nc1ccc(CNc2nc3ccc(OCCN4CCOCC4)cc3s2)cc1

>  <Name>  (2) 
nan

>  <Pocket>  (2) 
nan

>  <ATP_Site>  (2) 
nan

>  <Peripheral>  (2) 
nan

>  <Num_H_Atoms_ProtBoundConf>  (2) 
nan

>  <Num_Resolved_Atoms>  (2) 
nan

>  <Num_Not_Resolved_Atoms>  (2) 
nan

$$$$
CHEMBL4080416
     RDKit          3D

  0  0  0  0  0  0  0  0  0  0999 V3000
M  V30 BEGIN CTAB
M  V30 COUNTS 46 49 0 0 0
M  V30 BEGIN ATOM
M  V30 1 C 0.841701 -2.974217 2.209095 0
M  V30 2 N -0.242138 -2.444302 1.447454 0
M  V30 3 C -0.026664 -1.620582 0.429690 0
M  V30 4 N 1.244485 -1.154660 0.010408 0
M  V30 5 C 1.212451 -0.341019 -1.199992 0
M  V30 6 C 2.498812 0.324083 -1.551038 0
M  V30 7 N 2.987727 1.012481 -0.409743 0
M  V30 8 C 3.136340 0.172907 0.713298 0
M  V30 9 C 2.720430 0.686695 2.014345 0
M  V30 10 C 3.473102 0.462996 3.175990 0
M  V30 11 C 3.135851 0.923419 4.438076 0
M  V30 12 C 1.976857 1.657319 4.576827 0
M  V30 13 C 1.176571 1.921525 3.471759 0
M  V30 14 C 1.583000 1.427129 2.249871 0
M  V30 15 F 0.765496 1.713725 1.208155 0
M  V30 16 C 2.571986 -1.232114 0.414482 0
M  V30 17 N -1.143362 -1.217206 -0.204440 0
M  V30 18 C -2.393676 -1.552312 0.081282 0
M  V30 19 C -3.480694 -1.010836 -0.729454 0
M  V30 20 C -3.243919 -0.158746 -1.786282 0
M  V30 21 C -4.340778 0.301979 -2.498566 0
M  V30 22 N -5.630660 -0.039628 -2.211991 0
M  V30 23 C -5.796347 -0.879070 -1.162876 0
M  V30 24 N -4.747752 -1.360603 -0.429680 0
M  V30 25 C -2.603476 -2.390462 1.119085 0
M  V30 26 C -1.488071 -2.824926 1.791740 0
M  V30 27 O -1.684883 -3.618612 2.774131 0
M  V30 28 H 0.440463 -3.821548 2.864837 0
M  V30 29 H 1.281674 -2.330058 2.962034 0
M  V30 30 H 1.519414 -3.565152 1.560381 0
M  V30 31 H 0.342075 0.350768 -1.200143 0
M  V30 32 H 0.988783 -0.991293 -2.101706 0
M  V30 33 H 3.226913 -0.403213 -1.919446 0
M  V30 34 H 2.256343 1.026928 -2.387319 0
M  V30 35 H 2.674578 1.968476 -0.267962 0
M  V30 36 H 4.258644 0.005283 0.809202 0
M  V30 37 H 4.383990 -0.111417 3.076907 0
M  V30 38 H 3.809694 0.680783 5.269655 0
M  V30 39 H 1.717188 2.013146 5.556961 0
M  V30 40 H 0.269958 2.498291 3.593185 0
M  V30 41 H 2.850995 -1.702744 1.371226 0
M  V30 42 H 3.254604 -1.670737 -0.369968 0
M  V30 43 H -2.240386 0.141696 -2.053452 0
M  V30 44 H -4.241940 0.972786 -3.341440 0
M  V30 45 H -6.815029 -1.188766 -0.885410 0
M  V30 46 H -3.592051 -2.704662 1.408732 0
M  V30 END ATOM
M  V30 BEGIN BOND
M  V30 1 1 1 2
M  V30 2 1 2 3
M  V30 3 1 3 4
M  V30 4 1 4 5
M  V30 5 1 5 6
M  V30 6 1 6 7
M  V30 7 1 7 8
M  V30 8 1 8 9
M  V30 9 2 9 10
M  V30 10 1 10 11
M  V30 11 2 11 12
M  V30 12 1 12 13
M  V30 13 2 13 14
M  V30 14 1 14 15
M  V30 15 1 8 16
M  V30 16 2 3 17
M  V30 17 1 17 18
M  V30 18 1 18 19
M  V30 19 2 19 20
M  V30 20 1 20 21
M  V30 21 2 21 22
M  V30 22 1 22 23
M  V30 23 2 23 24
M  V30 24 2 18 25
M  V30 25 1 25 26
M  V30 26 2 26 27
M  V30 27 1 26 2
M  V30 28 1 16 4
M  V30 29 1 24 19
M  V30 30 1 14 9
M  V30 31 1 1 28
M  V30 32 1 1 29
M  V30 33 1 1 30
M  V30 34 1 5 31
M  V30 35 1 5 32
M  V30 36 1 6 33
M  V30 37 1 6 34
M  V30 38 1 7 35
M  V30 39 1 8 36
M  V30 40 1 10 37
M  V30 41 1 11 38
M  V30 42 1 12 39
M  V30 43 1 13 40
M  V30 44 1 16 41
M  V30 45 1 16 42
M  V30 46 1 20 43
M  V30 47 1 21 44
M  V30 48 1 23 45
M  V30 49 1 25 46
M  V30 END BOND
M  V30 END CTAB
M  END
>  <Dataset>  (3) 
ChEMBL_Kinases

>  <Ligand_Instance>  (3) 
nan

>  <PDB_ID>  (3) 
nan

>  <Standardized_SMILES>  (3) 
Cn1c(N2CCNC(c3ccccc3F)C2)nc(-c2ccncn2)cc1=O

>  <Name>  (3) 
nan

>  <Pocket>  (3) 
nan

>  <ATP_Site>  (3) 
nan

>  <Peripheral>  (3) 
nan

>  <Num_H_Atoms_ProtBoundConf>  (3) 
nan

>  <Num_Resolved_Atoms>  (3) 
nan

>  <Num_Not_Resolved_Atoms>  (3) 
nan

$$$$
CHEMBL485440
     RDKit          3D

  0  0  0  0  0  0  0  0  0  0999 V3000
M  V30 BEGIN CTAB
M  V30 COUNTS 54 58 0 0 0
M  V30 BEGIN ATOM
M  V30 1 C 2.071057 -2.546858 1.730215 0
M  V30 2 C 0.842372 -2.166488 1.034604 0
M  V30 3 C 0.383312 -0.996441 0.659647 0
M  V30 4 C 1.316487 0.114588 1.009115 0
M  V30 5 O 2.421892 -0.102409 1.626953 0
M  V30 6 N 1.259393 1.533848 0.780439 0
M  V30 7 C 2.388640 2.243618 1.280760 0
M  V30 8 C 3.383289 2.322045 0.297726 0
M  V30 9 C 4.584928 2.963344 0.532188 0
M  V30 10 C 5.748872 3.232814 -0.155801 0
M  V30 11 N 6.562896 3.922010 0.665905 0
M  V30 12 N 5.995830 4.116874 1.849696 0
M  V30 13 C 4.781632 3.535280 1.785554 0
M  V30 14 C 3.802991 3.459119 2.755382 0
M  V30 15 C 2.601943 2.816719 2.517351 0
M  V30 16 F 1.573792 2.667123 3.354859 0
M  V30 17 C -0.852478 -0.520805 0.021751 0
M  V30 18 C -1.906019 -0.105888 1.021799 0
M  V30 19 C -3.245399 -0.338698 0.641250 0
M  V30 20 C -4.393708 -0.012869 1.339012 0
M  V30 21 C -4.213905 0.611031 2.545298 0
M  V30 22 Cl -5.607111 1.055203 3.484722 0
M  V30 23 C -2.949592 0.878850 3.000037 0
M  V30 24 C -1.871020 0.518616 2.240497 0
M  V30 25 F -0.669363 0.769288 2.760649 0
M  V30 26 N -1.481973 -1.729725 -0.594695 0
M  V30 27 C -1.094043 -2.906061 -0.286566 0
M  V30 28 C -1.814164 -3.985451 -0.957226 0
M  V30 29 C -1.581809 -5.316064 -0.790200 0
M  V30 30 C -2.264433 -6.327322 -1.426609 0
M  V30 31 N -3.244614 -6.005171 -2.287855 0
M  V30 32 C -3.560177 -4.714093 -2.529948 0
M  V30 33 C -4.643916 -4.359335 -3.482217 0
M  V30 34 C -2.848991 -3.756670 -1.869773 0
M  V30 35 N 0.024796 -3.239174 0.511401 0
M  V30 36 H 2.151277 -2.108634 2.745790 0
M  V30 37 H 2.135837 -3.652750 1.834814 0
M  V30 38 H 2.945190 -2.290128 1.072009 0
M  V30 39 H 0.351107 1.771792 0.264884 0
M  V30 40 H 3.338304 1.914085 -0.710047 0
M  V30 41 H 5.906909 2.911327 -1.180867 0
M  V30 42 H 6.461916 4.630690 2.630307 0
M  V30 43 H 3.896590 3.887526 3.758366 0
M  V30 44 H -0.687681 0.200413 -0.763860 0
M  V30 45 H -3.431876 -0.834069 -0.315401 0
M  V30 46 H -5.367252 -0.241801 0.945906 0
M  V30 47 H -2.808477 1.362158 3.933944 0
M  V30 48 H -0.814677 -5.659466 -0.118161 0
M  V30 49 H -2.049160 -7.368876 -1.266227 0
M  V30 50 H -5.583625 -4.216412 -2.885560 0
M  V30 51 H -4.413878 -3.379320 -3.986004 0
M  V30 52 H -4.786298 -5.143416 -4.259935 0
M  V30 53 H -3.135911 -2.718354 -2.093907 0
M  V30 54 H 0.281257 -4.219067 0.736730 0
M  V30 END ATOM
M  V30 BEGIN BOND
M  V30 1 1 1 2
M  V30 2 2 2 3
M  V30 3 1 3 4
M  V30 4 2 4 5
M  V30 5 1 4 6
M  V30 6 1 6 7
M  V30 7 2 7 8
M  V30 8 1 8 9
M  V30 9 1 9 10
M  V30 10 2 10 11
M  V30 11 1 11 12
M  V30 12 1 12 13
M  V30 13 1 13 14
M  V30 14 2 14 15
M  V30 15 1 15 16
M  V30 16 1 3 17
M  V30 17 1 17 18
M  V30 18 2 18 19
M  V30 19 1 19 20
M  V30 20 2 20 21
M  V30 21 1 21 22
M  V30 22 1 21 23
M  V30 23 2 23 24
M  V30 24 1 24 25
M  V30 25 1 17 26
M  V30 26 2 26 27
M  V30 27 1 27 28
M  V30 28 2 28 29
M  V30 29 1 29 30
M  V30 30 2 30 31
M  V30 31 1 31 32
M  V30 32 1 32 33
M  V30 33 2 32 34
M  V30 34 1 27 35
M  V30 35 1 35 2
M  V30 36 1 15 7
M  V30 37 1 24 18
M  V30 38 1 34 28
M  V30 39 2 13 9
M  V30 40 1 1 36
M  V30 41 1 1 37
M  V30 42 1 1 38
M  V30 43 1 6 39
M  V30 44 1 8 40
M  V30 45 1 10 41
M  V30 46 1 12 42
M  V30 47 1 14 43
M  V30 48 1 17 44
M  V30 49 1 19 45
M  V30 50 1 20 46
M  V30 51 1 23 47
M  V30 52 1 29 48
M  V30 53 1 30 49
M  V30 54 1 33 50
M  V30 55 1 33 51
M  V30 56 1 33 52
M  V30 57 1 34 53
M  V30 58 1 35 54
M  V30 END BOND
M  V30 END CTAB
M  END
>  <Dataset>  (4) 
ChEMBL_Kinases

>  <Ligand_Instance>  (4) 
nan

>  <PDB_ID>  (4) 
nan

>  <Standardized_SMILES>  (4) 
CC1=C(C(=O)Nc2cc3cn[nH]c3cc2F)C(c2ccc(Cl)cc2F)N=C(c2ccnc(C)c2)N1

>  <Name>  (4) 
nan

>  <Pocket>  (4) 
nan

>  <ATP_Site>  (4) 
nan

>  <Peripheral>  (4) 
nan

>  <Num_H_Atoms_ProtBoundConf>  (4) 
nan

>  <Num_Resolved_Atoms>  (4) 
nan

>  <Num_Not_Resolved_Atoms>  (4) 
nan

$$$$
CHEMBL4080367
     RDKit          3D

  0  0  0  0  0  0  0  0  0  0999 V3000
M  V30 BEGIN CTAB
M  V30 COUNTS 38 41 0 0 0
M  V30 BEGIN ATOM
M  V30 1 O -0.655672 -1.599284 4.228607 0
M  V30 2 C 0.072347 -1.393732 3.230914 0
M  V30 3 N 1.113163 -2.150210 2.840924 0
M  V30 4 C 1.776896 -1.764832 1.735662 0
M  V30 5 C 2.930082 -2.588446 1.278119 0
M  V30 6 N 2.516921 -3.538321 0.352487 0
M  V30 7 C 1.575142 -4.526768 0.653100 0
M  V30 8 C 0.336829 -3.948261 -0.045725 0
M  V30 9 C 0.894476 -3.131633 -1.193254 0
M  V30 10 C 2.418823 -3.149438 -1.013350 0
M  V30 11 N 1.459401 -0.682393 1.014418 0
M  V30 12 C 0.433544 0.138374 1.324829 0
M  V30 13 C -0.019378 1.272141 0.700771 0
M  V30 14 C -1.048669 1.913402 1.191954 0
M  V30 15 C -1.714752 3.150376 0.698791 0
M  V30 16 C -1.242462 3.772314 -0.430486 0
M  V30 17 C -1.860020 4.909528 -0.878254 0
M  V30 18 N -2.916366 5.390586 -0.199558 0
M  V30 19 C -3.374947 4.776232 0.907272 0
M  V30 20 C -2.796998 3.625247 1.411872 0
M  V30 21 S -1.544408 1.005617 2.628885 0
M  V30 22 C -0.215114 -0.274377 2.440327 0
M  V30 23 H 1.318339 -2.975330 3.437861 0
M  V30 24 H 3.457487 -2.973811 2.173530 0
M  V30 25 H 3.660301 -1.895000 0.770140 0
M  V30 26 H 1.821197 -5.496245 0.164927 0
M  V30 27 H 1.422995 -4.621544 1.734438 0
M  V30 28 H -0.200271 -3.262099 0.638704 0
M  V30 29 H -0.321662 -4.764384 -0.402886 0
M  V30 30 H 0.519084 -2.093178 -1.213567 0
M  V30 31 H 0.704389 -3.660097 -2.150107 0
M  V30 32 H 2.912573 -3.875646 -1.659301 0
M  V30 33 H 2.811821 -2.105770 -1.093673 0
M  V30 34 H 0.469642 1.656560 -0.212451 0
M  V30 35 H -0.376431 3.354560 -0.963841 0
M  V30 36 H -1.444220 5.362185 -1.778838 0
M  V30 37 H -4.233106 5.174472 1.451284 0
M  V30 38 H -3.186258 3.148072 2.307657 0
M  V30 END ATOM
M  V30 BEGIN BOND
M  V30 1 2 1 2
M  V30 2 1 2 3
M  V30 3 1 3 4
M  V30 4 1 4 5
M  V30 5 1 5 6
M  V30 6 1 6 7
M  V30 7 1 7 8
M  V30 8 1 8 9
M  V30 9 1 9 10
M  V30 10 2 4 11
M  V30 11 1 11 12
M  V30 12 1 12 13
M  V30 13 2 13 14
M  V30 14 1 14 15
M  V30 15 2 15 16
M  V30 16 1 16 17
M  V30 17 2 17 18
M  V30 18 1 18 19
M  V30 19 2 19 20
M  V30 20 1 14 21
M  V30 21 1 21 22
M  V30 22 1 22 2
M  V30 23 1 10 6
M  V30 24 2 22 12
M  V30 25 1 20 15
M  V30 26 1 3 23
M  V30 27 1 5 24
M  V30 28 1 5 25
M  V30 29 1 7 26
M  V30 30 1 7 27
M  V30 31 1 8 28
M  V30 32 1 8 29
M  V30 33 1 9 30
M  V30 34 1 9 31
M  V30 35 1 10 32
M  V30 36 1 10 33
M  V30 37 1 13 34
M  V30 38 1 16 35
M  V30 39 1 17 36
M  V30 40 1 19 37
M  V30 41 1 20 38
M  V30 END BOND
M  V30 END CTAB
M  END
>  <Dataset>  (5) 
ChEMBL_Kinases

>  <Ligand_Instance>  (5) 
nan

>  <PDB_ID>  (5) 
nan

>  <Standardized_SMILES>  (5) 
O=c1[nH]c(CN2CCCC2)nc2cc(-c3ccncc3)sc12

>  <Name>  (5) 
nan

>  <Pocket>  (5) 
nan

>  <ATP_Site>  (5) 
nan

>  <Peripheral>  (5) 
nan

>  <Num_H_Atoms_ProtBoundConf>  (5) 
nan

>  <Num_Resolved_Atoms>  (5) 
nan

>  <Num_Not_Resolved_Atoms>  (5) 
nan

$$$$
CHEMBL4080362
     RDKit          3D

  0  0  0  0  0  0  0  0  0  0999 V3000
M  V30 BEGIN CTAB
M  V30 COUNTS 78 82 0 0 0
M  V30 BEGIN ATOM
M  V30 1 C 7.645987 -5.341098 2.856529 0
M  V30 2 N 6.971863 -4.096353 3.055405 0
M  V30 3 C 6.990744 -2.970233 2.160587 0
M  V30 4 C 6.309802 -1.814864 2.423712 0
M  V30 5 C 6.346336 -0.755487 1.548451 0
M  V30 6 C 5.614760 0.505229 1.805572 0
M  V30 7 C 4.831784 1.113282 0.675744 0
M  V30 8 O 4.189379 2.183061 0.923121 0
M  V30 9 N 4.680435 0.681292 -0.672472 0
M  V30 10 C 3.810518 1.694265 -1.223346 0
M  V30 11 C 2.447772 1.387315 -1.130361 0
M  V30 12 C 1.598325 2.339287 -1.640727 0
M  V30 13 C 0.147371 2.048844 -1.563819 0
M  V30 14 O -0.167699 0.913034 -1.055267 0
M  V30 15 N -0.955025 2.865719 -1.980100 0
M  V30 16 C -2.039466 1.986166 -1.617119 0
M  V30 17 C -2.630068 2.080319 -0.369428 0
M  V30 18 C -3.663069 1.229925 -0.028812 0
M  V30 19 C -4.016525 0.331048 -1.014137 0
M  V30 20 O -5.044759 -0.571964 -0.775956 0
M  V30 21 C -5.788340 -0.652020 0.425064 0
M  V30 22 C -6.798934 -1.769491 0.253503 0
M  V30 23 C -6.101528 -3.064458 -0.003272 0
M  V30 24 C -7.124979 -4.172002 -0.145487 0
M  V30 25 N -7.863302 -4.367683 1.078696 0
M  V30 26 C -9.211877 -4.799894 0.871144 0
M  V30 27 C -7.707322 -3.275043 2.002965 0
M  V30 28 C -7.735261 -1.913992 1.400921 0
M  V30 29 C -3.455214 0.204478 -2.265944 0
M  V30 30 C -3.899148 -0.801028 -3.264868 0
M  V30 31 F -3.734932 -2.091215 -2.763163 0
M  V30 32 F -5.208272 -0.592260 -3.662037 0
M  V30 33 F -3.114451 -0.716923 -4.398465 0
M  V30 34 C -2.425799 1.072334 -2.570274 0
M  V30 35 C 2.122666 3.491060 -2.190871 0
M  V30 36 C 3.471730 3.755577 -2.264085 0
M  V30 37 C 4.372892 2.828523 -1.763696 0
M  V30 38 C 5.823138 3.066304 -1.819981 0
M  V30 39 C 5.011505 0.757936 3.165024 0
M  V30 40 C 6.271098 1.458205 2.747816 0
M  V30 41 N 7.075156 -0.902937 0.431932 0
M  V30 42 C 7.769509 -2.038664 0.131299 0
M  V30 43 N 7.708081 -3.063289 1.021530 0
M  V30 44 H 6.878735 -6.154280 2.985188 0
M  V30 45 H 8.388322 -5.479242 3.663783 0
M  V30 46 H 8.094078 -5.425621 1.845904 0
M  V30 47 H 6.430273 -4.030030 3.929487 0
M  V30 48 H 5.767919 -1.818568 3.335567 0
M  V30 49 H 5.221256 -0.211508 -0.872517 0
M  V30 50 H 2.123608 0.462245 -0.684257 0
M  V30 51 H -0.562263 3.745498 -2.362717 0
M  V30 52 H -2.313091 2.805683 0.370004 0
M  V30 53 H -4.169414 1.249898 0.923365 0
M  V30 54 H -5.181340 -0.739800 1.332672 0
M  V30 55 H -6.402920 0.289519 0.549289 0
M  V30 56 H -7.392464 -1.476588 -0.649702 0
M  V30 57 H -5.473286 -3.326376 0.888890 0
M  V30 58 H -5.454916 -2.976465 -0.884678 0
M  V30 59 H -6.643770 -5.110547 -0.433986 0
M  V30 60 H -7.833128 -3.863265 -0.939757 0
M  V30 61 H -9.214744 -5.905654 0.948134 0
M  V30 62 H -9.915097 -4.440726 1.652159 0
M  V30 63 H -9.585683 -4.572535 -0.152553 0
M  V30 64 H -8.589250 -3.342743 2.696332 0
M  V30 65 H -6.832747 -3.453062 2.660124 0
M  V30 66 H -8.766296 -1.593391 1.112562 0
M  V30 67 H -7.432108 -1.196627 2.210746 0
M  V30 68 H -1.933296 1.035374 -3.534760 0
M  V30 69 H 1.421134 4.238165 -2.592057 0
M  V30 70 H 3.800897 4.692812 -2.715023 0
M  V30 71 H 6.346215 2.296340 -1.199612 0
M  V30 72 H 6.253632 2.954903 -2.835583 0
M  V30 73 H 6.026425 4.086876 -1.424027 0
M  V30 74 H 4.119196 1.428133 3.232758 0
M  V30 75 H 5.040579 -0.041557 3.904269 0
M  V30 76 H 6.249503 2.543470 2.554472 0
M  V30 77 H 7.185608 1.125318 3.276149 0
M  V30 78 H 8.358405 -2.168421 -0.764039 0
M  V30 END ATOM
M  V30 BEGIN BOND
M  V30 1 1 1 2
M  V30 2 1 2 3
M  V30 3 2 3 4
M  V30 4 1 4 5
M  V30 5 1 5 6
M  V30 6 1 6 7
M  V30 7 2 7 8
M  V30 8 1 7 9
M  V30 9 1 9 10
M  V30 10 2 10 11
M  V30 11 1 11 12
M  V30 12 1 12 13
M  V30 13 2 13 14
M  V30 14 1 13 15
M  V30 15 1 15 16
M  V30 16 2 16 17
M  V30 17 1 17 18
M  V30 18 2 18 19
M  V30 19 1 19 20
M  V30 20 1 20 21
M  V30 21 1 21 22
M  V30 22 1 22 23
M  V30 23 1 23 24
M  V30 24 1 24 25
M  V30 25 1 25 26
M  V30 26 1 25 27
M  V30 27 1 27 28
M  V30 28 1 19 29
M  V30 29 1 29 30
M  V30 30 1 30 31
M  V30 31 1 30 32
M  V30 32 1 30 33
M  V30 33 2 29 34
M  V30 34 2 12 35
M  V30 35 1 35 36
M  V30 36 2 36 37
M  V30 37 1 37 38
M  V30 38 1 6 39
M  V30 39 1 39 40
M  V30 40 2 5 41
M  V30 41 1 41 42
M  V30 42 2 42 43
M  V30 43 1 43 3
M  V30 44 1 40 6
M  V30 45 1 37 10
M  V30 46 1 34 16
M  V30 47 1 28 22
M  V30 48 1 1 44
M  V30 49 1 1 45
M  V30 50 1 1 46
M  V30 51 1 2 47
M  V30 52 1 4 48
M  V30 53 1 9 49
M  V30 54 1 11 50
M  V30 55 1 15 51
M  V30 56 1 17 52
M  V30 57 1 18 53
M  V30 58 1 21 54
M  V30 59 1 21 55
M  V30 60 1 22 56
M  V30 61 1 23 57
M  V30 62 1 23 58
M  V30 63 1 24 59
M  V30 64 1 24 60
M  V30 65 1 26 61
M  V30 66 1 26 62
M  V30 67 1 26 63
M  V30 68 1 27 64
M  V30 69 1 27 65
M  V30 70 1 28 66
M  V30 71 1 28 67
M  V30 72 1 34 68
M  V30 73 1 35 69
M  V30 74 1 36 70
M  V30 75 1 38 71
M  V30 76 1 38 72
M  V30 77 1 38 73
M  V30 78 1 39 74
M  V30 79 1 39 75
M  V30 80 1 40 76
M  V30 81 1 40 77
M  V30 82 1 42 78
M  V30 END BOND
M  V30 END CTAB
M  END
>  <Dataset>  (6) 
ChEMBL_Kinases

>  <Ligand_Instance>  (6) 
nan

>  <PDB_ID>  (6) 
nan

>  <Standardized_SMILES>  (6) 
CNc1cc(C2(C(=O)Nc3cc(C(=O)Nc4ccc(OCC5CCN(C)CC5)c(C(F)(F)F)c4)ccc3C)CC2)ncn1

>  <Name>  (6) 
nan

>  <Pocket>  (6) 
nan

>  <ATP_Site>  (6) 
nan

>  <Peripheral>  (6) 
nan

>  <Num_H_Atoms_ProtBoundConf>  (6) 
nan

>  <Num_Resolved_Atoms>  (6) 
nan

>  <Num_Not_Resolved_Atoms>  (6) 
nan

$$$$
CHEMBL4080330
     RDKit          3D

  0  0  0  0  0  0  0  0  0  0999 V3000
M  V30 BEGIN CTAB
M  V30 COUNTS 53 58 0 0 0
M  V30 BEGIN ATOM
M  V30 1 Cl -0.413273 -5.715407 4.797779 0
M  V30 2 C 0.409089 -4.295485 4.164682 0
M  V30 3 C 1.763415 -4.145982 4.380036 0
M  V30 4 C 2.431931 -3.039123 3.892897 0
M  V30 5 C 1.678114 -2.106719 3.189866 0
M  V30 6 N 2.329541 -1.046678 2.727296 0
M  V30 7 C 1.733720 -0.063612 2.031499 0
M  V30 8 N 2.500146 1.034556 1.570932 0
M  V30 9 C 2.065204 2.176176 0.852910 0
M  V30 10 C 0.771290 2.476223 0.501055 0
M  V30 11 C 0.363615 3.586515 -0.201900 0
M  V30 12 C 1.323263 4.473908 -0.587494 0
M  V30 13 N 1.279355 5.642698 -1.274204 0
M  V30 14 C 2.538067 6.102731 -1.369450 0
M  V30 15 N 3.381519 5.253575 -0.759424 0
M  V30 16 C 2.647366 4.252520 -0.277204 0
M  V30 17 C 2.978133 3.120164 0.427817 0
M  V30 18 N 0.418235 -0.230729 1.834803 0
M  V30 19 C -0.316737 -1.257130 2.259914 0
M  V30 20 N -1.703331 -1.323249 2.002873 0
M  V30 21 C -2.373208 -0.298020 1.259376 0
M  V30 22 C -2.031230 -0.314354 -0.205141 0
M  V30 23 C -2.409219 -1.531982 -0.928755 0
M  V30 24 C -3.630881 -1.613164 -1.627804 0
M  V30 25 N -3.835348 -2.810906 -2.197255 0
M  V30 26 C -2.772664 -3.577052 -1.909944 0
M  V30 27 C -2.424046 -4.877866 -2.229974 0
M  V30 28 C -1.191128 -5.333907 -1.745366 0
M  V30 29 C -0.327407 -4.575168 -0.985990 0
M  V30 30 C -0.721187 -3.289001 -0.695641 0
M  V30 31 C -1.926098 -2.801106 -1.151322 0
M  V30 32 C 0.328739 -2.242812 2.968221 0
M  V30 33 C -0.311700 -3.352452 3.462859 0
M  V30 34 H 2.287059 -4.907749 4.933908 0
M  V30 35 H 3.512748 -2.890286 4.048282 0
M  V30 36 H 3.524574 1.004750 1.787330 0
M  V30 37 H -0.018925 1.804073 0.789115 0
M  V30 38 H -0.686792 3.751193 -0.442489 0
M  V30 39 H 0.450002 6.124336 -1.668685 0
M  V30 40 H 2.954391 6.997243 -1.833275 0
M  V30 41 H 4.038377 2.981641 0.653148 0
M  V30 42 H -2.343397 -2.080072 2.308132 0
M  V30 43 H -1.975401 0.674604 1.664763 0
M  V30 44 H -3.476807 -0.272229 1.419672 0
M  V30 45 H -0.941315 -0.073292 -0.341359 0
M  V30 46 H -2.543421 0.556557 -0.692693 0
M  V30 47 H -4.376954 -0.810619 -1.728012 0
M  V30 48 H -4.662869 -3.101670 -2.759060 0
M  V30 49 H -3.061978 -5.508742 -2.819134 0
M  V30 50 H -0.874536 -6.349321 -1.970602 0
M  V30 51 H 0.620292 -5.012894 -0.649000 0
M  V30 52 H -0.037638 -2.698841 -0.114347 0
M  V30 53 H -1.354629 -3.479827 3.303962 0
M  V30 END ATOM
M  V30 BEGIN BOND
M  V30 1 1 1 2
M  V30 2 2 2 3
M  V30 3 1 3 4
M  V30 4 2 4 5
M  V30 5 1 5 6
M  V30 6 2 6 7
M  V30 7 1 7 8
M  V30 8 1 8 9
M  V30 9 2 9 10
M  V30 10 1 10 11
M  V30 11 2 11 12
M  V30 12 1 12 13
M  V30 13 1 13 14
M  V30 14 2 14 15
M  V30 15 1 15 16
M  V30 16 2 16 17
M  V30 17 1 7 18
M  V30 18 2 18 19
M  V30 19 1 19 20
M  V30 20 1 20 21
M  V30 21 1 21 22
M  V30 22 1 22 23
M  V30 23 2 23 24
M  V30 24 1 24 25
M  V30 25 1 25 26
M  V30 26 2 26 27
M  V30 27 1 27 28
M  V30 28 2 28 29
M  V30 29 1 29 30
M  V30 30 2 30 31
M  V30 31 1 19 32
M  V30 32 2 32 33
M  V30 33 1 33 2
M  V30 34 1 32 5
M  V30 35 1 17 9
M  V30 36 1 31 23
M  V30 37 1 16 12
M  V30 38 1 31 26
M  V30 39 1 3 34
M  V30 40 1 4 35
M  V30 41 1 8 36
M  V30 42 1 10 37
M  V30 43 1 11 38
M  V30 44 1 13 39
M  V30 45 1 14 40
M  V30 46 1 17 41
M  V30 47 1 20 42
M  V30 48 1 21 43
M  V30 49 1 21 44
M  V30 50 1 22 45
M  V30 51 1 22 46
M  V30 52 1 24 47
M  V30 53 1 25 48
M  V30 54 1 27 49
M  V30 55 1 28 50
M  V30 56 1 29 51
M  V30 57 1 30 52
M  V30 58 1 33 53
M  V30 END BOND
M  V30 END CTAB
M  END
>  <Dataset>  (7) 
ChEMBL_Kinases

>  <Ligand_Instance>  (7) 
nan

>  <PDB_ID>  (7) 
nan

>  <Standardized_SMILES>  (7) 
Clc1ccc2nc(Nc3ccc4[nH]cnc4c3)nc(NCCc3c[nH]c4ccccc34)c2c1

>  <Name>  (7) 
nan

>  <Pocket>  (7) 
nan

>  <ATP_Site>  (7) 
nan

>  <Peripheral>  (7) 
nan

>  <Num_H_Atoms_ProtBoundConf>  (7) 
nan

>  <Num_Resolved_Atoms>  (7) 
nan

>  <Num_Not_Resolved_Atoms>  (7) 
nan

$$$$
CHEMBL4854454
     RDKit          3D

  0  0  0  0  0  0  0  0  0  0999 V3000
M  V30 BEGIN CTAB
M  V30 COUNTS 40 43 0 0 0
M  V30 BEGIN ATOM
M  V30 1 C -1.254478 -4.183996 2.041011 0
M  V30 2 C 0.130434 -3.721343 1.573020 0
M  V30 3 C 1.218978 -4.186960 2.502000 0
M  V30 4 N 0.071189 -2.273887 1.439865 0
M  V30 5 C 0.348895 -1.718191 0.159109 0
M  V30 6 N 0.664440 -2.580182 -0.824840 0
M  V30 7 C 0.944224 -2.138557 -2.086957 0
M  V30 8 C 0.871567 -0.771147 -2.238941 0
M  V30 9 C 0.554928 0.149955 -1.270083 0
M  V30 10 C 0.522282 1.564816 -1.612347 0
M  V30 11 C 0.800135 2.105726 -2.849558 0
M  V30 12 N 0.661732 3.440056 -2.766402 0
M  V30 13 N 0.309959 3.794088 -1.545732 0
M  V30 14 N 0.071697 5.006381 -1.044129 0
M  V30 15 C -0.285805 5.150894 0.265442 0
M  V30 16 C -0.391590 4.017146 1.044116 0
M  V30 17 C -0.136936 2.770402 0.491568 0
M  V30 18 C 0.222407 2.653030 -0.833581 0
M  V30 19 N 0.297109 -0.388334 -0.064022 0
M  V30 20 C -0.263696 -1.468744 2.604285 0
M  V30 21 C 0.529734 -1.459128 3.831058 0
M  V30 22 C 0.540059 -0.224520 2.906505 0
M  V30 23 H -1.963788 -3.797167 1.276481 0
M  V30 24 H -1.423387 -3.736181 3.036966 0
M  V30 25 H -1.287347 -5.302204 2.077312 0
M  V30 26 H 0.278689 -4.212752 0.590051 0
M  V30 27 H 1.509582 -5.219767 2.174049 0
M  V30 28 H 2.115973 -3.570518 2.311013 0
M  V30 29 H 0.893448 -4.212856 3.562598 0
M  V30 30 H 1.202824 -2.786159 -2.912276 0
M  V30 31 H 1.093911 -0.411273 -3.244383 0
M  V30 32 H 1.082898 1.567414 -3.746771 0
M  V30 33 H -0.464651 6.143504 0.614138 0
M  V30 34 H -0.674561 4.116870 2.085305 0
M  V30 35 H -0.209292 1.865511 1.062893 0
M  V30 36 H -1.361662 -1.299061 2.720822 0
M  V30 37 H 1.512714 -1.940022 3.953160 0
M  V30 38 H -0.015514 -1.264126 4.798151 0
M  V30 39 H 1.468945 -0.023001 2.356493 0
M  V30 40 H 0.017431 0.695837 3.268437 0
M  V30 END ATOM
M  V30 BEGIN BOND
M  V30 1 1 1 2
M  V30 2 1 2 3
M  V30 3 1 2 4
M  V30 4 1 4 5
M  V30 5 2 5 6
M  V30 6 1 6 7
M  V30 7 2 7 8
M  V30 8 1 8 9
M  V30 9 1 9 10
M  V30 10 1 10 11
M  V30 11 2 11 12
M  V30 12 1 12 13
M  V30 13 1 13 14
M  V30 14 2 14 15
M  V30 15 1 15 16
M  V30 16 2 16 17
M  V30 17 1 17 18
M  V30 18 2 9 19
M  V30 19 1 4 20
M  V30 20 1 20 21
M  V30 21 1 21 22
M  V30 22 1 19 5
M  V30 23 1 22 20
M  V30 24 2 18 10
M  V30 25 1 18 13
M  V30 26 1 1 23
M  V30 27 1 1 24
M  V30 28 1 1 25
M  V30 29 1 2 26
M  V30 30 1 3 27
M  V30 31 1 3 28
M  V30 32 1 3 29
M  V30 33 1 7 30
M  V30 34 1 8 31
M  V30 35 1 11 32
M  V30 36 1 15 33
M  V30 37 1 16 34
M  V30 38 1 17 35
M  V30 39 1 20 36
M  V30 40 1 21 37
M  V30 41 1 21 38
M  V30 42 1 22 39
M  V30 43 1 22 40
M  V30 END BOND
M  V30 END CTAB
M  END
>  <Dataset>  (8) 
ChEMBL_Kinases

>  <Ligand_Instance>  (8) 
nan

>  <PDB_ID>  (8) 
nan

>  <Standardized_SMILES>  (8) 
CC(C)N(c1nccc(-c2cnn3ncccc23)n1)C1CC1

>  <Name>  (8) 
nan

>  <Pocket>  (8) 
nan

>  <ATP_Site>  (8) 
nan

>  <Peripheral>  (8) 
nan

>  <Num_H_Atoms_ProtBoundConf>  (8) 
nan

>  <Num_Resolved_Atoms>  (8) 
nan

>  <Num_Not_Resolved_Atoms>  (8) 
nan

$$$$
CHEMBL4854504
     RDKit          3D

  0  0  0  0  0  0  0  0  0  0999 V3000
M  V30 BEGIN CTAB
M  V30 COUNTS 55 57 0 0 0
M  V30 BEGIN ATOM
M  V30 1 C -0.979783 -0.559067 -0.789865 0
M  V30 2 C -0.580750 -0.506212 0.633050 0
M  V30 3 C 0.600505 0.072498 1.045727 0
M  V30 4 C 1.034824 0.158580 2.343041 0
M  V30 5 N 2.232033 0.741431 2.794742 0
M  V30 6 C 3.260191 1.367501 2.062211 0
M  V30 7 O 3.173327 1.460499 0.823764 0
M  V30 8 C 4.492460 1.954472 2.639844 0 CFG=2
M  V30 9 O 4.538404 1.822123 4.017877 0
M  V30 10 C 4.625845 3.373320 2.214297 0
M  V30 11 C 3.931093 4.413880 2.826451 0
M  V30 12 C 4.085899 5.715453 2.398465 0
M  V30 13 F 3.367297 6.665420 3.055708 0
M  V30 14 C 4.923740 6.051444 1.357732 0
M  V30 15 C 5.634817 5.036953 0.721592 0
M  V30 16 F 6.481610 5.306039 -0.316857 0
M  V30 17 C 5.447513 3.761137 1.182545 0
M  V30 18 C 0.183615 -0.392373 3.256619 0
M  V30 19 C -1.004964 -0.981655 2.904342 0
M  V30 20 C -1.410627 -1.050775 1.590536 0
M  V30 21 C -2.685580 -1.692153 1.284938 0
M  V30 22 C -3.763270 -1.344144 2.095494 0
M  V30 23 N -4.971363 -1.893979 1.876918 0
M  V30 24 C -5.159832 -2.793530 0.866932 0
M  V30 25 C -4.108404 -3.154754 0.050105 0
M  V30 26 C -4.373503 -4.120538 -1.010762 0
M  V30 27 O -5.548583 -4.559419 -1.106097 0
M  V30 28 N -3.370465 -4.566924 -1.913796 0
M  V30 29 C -3.537717 -5.510816 -2.984114 0
M  V30 30 C -2.625273 -6.713775 -2.835255 0
M  V30 31 C -3.075284 -4.804604 -4.263030 0
M  V30 32 C -2.872460 -2.590278 0.276067 0
M  V30 33 H -0.480401 -1.355928 -1.373900 0
M  V30 34 H -2.085192 -0.534389 -0.934549 0
M  V30 35 H -0.634324 0.410147 -1.255317 0
M  V30 36 H 1.205290 0.479959 0.251849 0
M  V30 37 H 2.456605 0.746104 3.813730 0
M  V30 38 H 5.348903 1.417233 2.193848 0
M  V30 39 H 3.942343 2.453080 4.475060 0
M  V30 40 H 3.263019 4.189447 3.647958 0
M  V30 41 H 5.039881 7.074369 1.027818 0
M  V30 42 H 6.018848 2.988508 0.663281 0
M  V30 43 H 0.458726 -0.364873 4.323153 0
M  V30 44 H -1.613553 -1.390892 3.696326 0
M  V30 45 H -3.747124 -0.651800 2.919830 0
M  V30 46 H -6.170419 -3.191956 0.757825 0
M  V30 47 H -2.394068 -4.206280 -1.839640 0
M  V30 48 H -4.564955 -5.912670 -3.087961 0
M  V30 49 H -3.142905 -7.677252 -3.034250 0
M  V30 50 H -1.676403 -6.621090 -3.383603 0
M  V30 51 H -2.341601 -6.727185 -1.743423 0
M  V30 52 H -3.630707 -5.206257 -5.139974 0
M  V30 53 H -3.232112 -3.712241 -4.205558 0
M  V30 54 H -1.977295 -4.951721 -4.413722 0
M  V30 55 H -2.042789 -2.861004 -0.350756 0
M  V30 END ATOM
M  V30 BEGIN BOND
M  V30 1 1 1 2
M  V30 2 2 2 3
M  V30 3 1 3 4
M  V30 4 1 4 5
M  V30 5 1 5 6
M  V30 6 2 6 7
M  V30 7 1 6 8
M  V30 8 1 8 9
M  V30 9 1 8 10
M  V30 10 2 10 11
M  V30 11 1 11 12
M  V30 12 1 12 13
M  V30 13 2 12 14
M  V30 14 1 14 15
M  V30 15 1 15 16
M  V30 16 2 15 17
M  V30 17 2 4 18
M  V30 18 1 18 19
M  V30 19 2 19 20
M  V30 20 1 20 21
M  V30 21 2 21 22
M  V30 22 1 22 23
M  V30 23 2 23 24
M  V30 24 1 24 25
M  V30 25 1 25 26
M  V30 26 2 26 27
M  V30 27 1 26 28
M  V30 28 1 28 29
M  V30 29 1 29 30
M  V30 30 1 29 31
M  V30 31 2 25 32
M  V30 32 1 20 2
M  V30 33 1 32 21
M  V30 34 1 17 10
M  V30 35 1 1 33
M  V30 36 1 1 34
M  V30 37 1 1 35
M  V30 38 1 3 36
M  V30 39 1 5 37
M  V30 40 1 8 38 CFG=3
M  V30 41 1 9 39
M  V30 42 1 11 40
M  V30 43 1 14 41
M  V30 44 1 17 42
M  V30 45 1 18 43
M  V30 46 1 19 44
M  V30 47 1 22 45
M  V30 48 1 24 46
M  V30 49 1 28 47
M  V30 50 1 29 48
M  V30 51 1 30 49
M  V30 52 1 30 50
M  V30 53 1 30 51
M  V30 54 1 31 52
M  V30 55 1 31 53
M  V30 56 1 31 54
M  V30 57 1 32 55
M  V30 END BOND
M  V30 END CTAB
M  END
>  <Dataset>  (9) 
ChEMBL_Kinases

>  <Ligand_Instance>  (9) 
nan

>  <PDB_ID>  (9) 
nan

>  <Standardized_SMILES>  (9) 
Cc1cc(NC(=O)[C@H](O)c2cc(F)cc(F)c2)ccc1-c1cncc(C(=O)NC(C)C)c1

>  <Name>  (9) 
nan

>  <Pocket>  (9) 
nan

>  <ATP_Site>  (9) 
nan

>  <Peripheral>  (9) 
nan

>  <Num_H_Atoms_ProtBoundConf>  (9) 
nan

>  <Num_Resolved_Atoms>  (9) 
nan

>  <Num_Not_Resolved_Atoms>  (9) 
nan

$$$$
CHEMBL4854525
     RDKit          3D

  0  0  0  0  0  0  0  0  0  0999 V3000
M  V30 BEGIN CTAB
M  V30 COUNTS 42 44 0 0 0
M  V30 BEGIN ATOM
M  V30 1 N 0.552368 -6.729771 3.614539 0
M  V30 2 C 0.988217 -5.857091 2.993351 0
M  V30 3 C 1.517252 -4.767778 2.229123 0
M  V30 4 C 2.803081 -4.809037 1.772265 0
M  V30 5 C 3.357166 -3.789733 1.035305 0
M  V30 6 C 2.652106 -2.642239 0.699999 0
M  V30 7 N 3.149488 -1.568992 -0.048962 0
M  V30 8 C 2.567340 -0.348433 -0.405381 0
M  V30 9 N 3.304413 0.474747 -1.171942 0
M  V30 10 C 2.918660 1.677967 -1.608061 0
M  V30 11 C 1.661284 2.086713 -1.229304 0
M  V30 12 C 1.170575 3.396675 -1.677834 0
M  V30 13 F 0.025069 3.335445 -2.452387 0
M  V30 14 F 2.133066 4.022264 -2.443875 0
M  V30 15 F 0.910770 4.258705 -0.630191 0
M  V30 16 C 0.847076 1.279941 -0.434605 0
M  V30 17 N -0.447666 1.732918 -0.058338 0
M  V30 18 C -1.405928 1.021849 0.764604 0 CFG=1
M  V30 19 C -1.784516 -0.328125 0.199650 0
M  V30 20 C -2.334950 -1.160842 1.336541 0
M  V30 21 C -2.977033 -0.236819 2.355479 0
M  V30 22 N -1.953609 0.463218 3.074079 0
M  V30 23 C -0.897120 0.824310 2.168820 0
M  V30 24 N 1.360744 0.093342 -0.067035 0
M  V30 25 C 1.363237 -2.659974 1.188553 0
M  V30 26 N 0.826099 -3.661188 1.909848 0
M  V30 27 H 3.441976 -5.654541 1.974908 0
M  V30 28 H 4.398783 -3.861091 0.684895 0
M  V30 29 H 4.142691 -1.783281 -0.370918 0
M  V30 30 H 3.541645 2.306764 -2.221711 0
M  V30 31 H -0.734720 2.676923 -0.410881 0
M  V30 32 H -2.370749 1.609562 0.770115 0
M  V30 33 H -0.954259 -0.811964 -0.348076 0
M  V30 34 H -2.639779 -0.202579 -0.528218 0
M  V30 35 H -1.574847 -1.752877 1.844621 0
M  V30 36 H -3.096476 -1.899499 0.950363 0
M  V30 37 H -3.567925 -0.855291 3.077416 0
M  V30 38 H -3.658810 0.501593 1.897375 0
M  V30 39 H -1.531249 -0.114468 3.844511 0
M  V30 40 H -0.099140 0.065509 2.158520 0
M  V30 41 H -0.412318 1.749266 2.561366 0
M  V30 42 H 0.672881 -1.874644 1.033186 0
M  V30 END ATOM
M  V30 BEGIN BOND
M  V30 1 3 1 2
M  V30 2 1 2 3
M  V30 3 2 3 4
M  V30 4 1 4 5
M  V30 5 2 5 6
M  V30 6 1 6 7
M  V30 7 1 7 8
M  V30 8 2 8 9
M  V30 9 1 9 10
M  V30 10 2 10 11
M  V30 11 1 11 12
M  V30 12 1 12 13
M  V30 13 1 12 14
M  V30 14 1 12 15
M  V30 15 1 11 16
M  V30 16 1 16 17
M  V30 17 1 17 18
M  V30 18 1 18 19
M  V30 19 1 19 20
M  V30 20 1 20 21
M  V30 21 1 21 22
M  V30 22 1 22 23
M  V30 23 2 16 24
M  V30 24 1 6 25
M  V30 25 2 25 26
M  V30 26 1 26 3
M  V30 27 1 24 8
M  V30 28 1 23 18
M  V30 29 1 4 27
M  V30 30 1 5 28
M  V30 31 1 7 29
M  V30 32 1 10 30
M  V30 33 1 17 31
M  V30 34 1 18 32 CFG=1
M  V30 35 1 19 33
M  V30 36 1 19 34
M  V30 37 1 20 35
M  V30 38 1 20 36
M  V30 39 1 21 37
M  V30 40 1 21 38
M  V30 41 1 22 39
M  V30 42 1 23 40
M  V30 43 1 23 41
M  V30 44 1 25 42
M  V30 END BOND
M  V30 END CTAB
M  END
>  <Dataset>  (10) 
ChEMBL_Kinases

>  <Ligand_Instance>  (10) 
nan

>  <PDB_ID>  (10) 
nan

>  <Standardized_SMILES>  (10) 
N#Cc1ccc(Nc2ncc(C(F)(F)F)c(N[C@H]3CCCNC3)n2)cn1

>  <Name>  (10) 
nan

>  <Pocket>  (10) 
nan

>  <ATP_Site>  (10) 
nan

>  <Peripheral>  (10) 
nan

>  <Num_H_Atoms_ProtBoundConf>  (10) 
nan

>  <Num_Resolved_Atoms>  (10) 
nan

>  <Num_Not_Resolved_Atoms>  (10) 
nan

$$$$
CHEMBL4080621
     RDKit          3D

  0  0  0  0  0  0  0  0  0  0999 V3000
M  V30 BEGIN CTAB
M  V30 COUNTS 56 60 0 0 0
M  V30 BEGIN ATOM
M  V30 1 C 0.920923 -2.476496 4.077966 0
M  V30 2 N 0.045008 -2.937970 3.010804 0
M  V30 3 C -0.200563 -2.299635 1.853620 0
M  V30 4 C 0.329733 -1.031977 1.399617 0
M  V30 5 C 1.112535 -0.832041 0.276383 0
M  V30 6 C 1.538233 0.446180 -0.016108 0
M  V30 7 C 1.240726 1.560262 0.734959 0
M  V30 8 N 1.681495 2.874290 0.428106 0
M  V30 9 C 2.489731 3.265398 -0.702116 0
M  V30 10 C 3.749584 3.951883 -0.181291 0
M  V30 11 N 3.338805 5.134986 0.507445 0
M  V30 12 C 1.946125 5.222934 0.814204 0
M  V30 13 C 1.310751 3.964397 1.303556 0
M  V30 14 C 0.461273 1.334188 1.846274 0
M  V30 15 C 0.009803 0.075334 2.182608 0
M  V30 16 C -1.084910 -3.029484 1.071326 0
M  V30 17 C -1.607137 -2.699478 -0.239129 0
M  V30 18 C -2.435543 -1.652309 -0.607836 0
M  V30 19 C -2.824379 -1.502188 -1.922583 0
M  V30 20 C -2.392934 -2.392096 -2.882627 0
M  V30 21 C -2.824593 -2.212426 -4.306074 0
M  V30 22 O -3.996580 -2.906901 -4.492874 0
M  V30 23 C -1.565673 -3.452243 -2.562586 0
M  V30 24 C -1.186010 -3.585090 -1.233290 0
M  V30 25 C -1.391035 -4.168314 1.791682 0
M  V30 26 C -2.185960 -5.280322 1.602133 0
M  V30 27 Cl -3.093646 -5.413010 0.120500 0
M  V30 28 C -2.273255 -6.277608 2.562033 0
M  V30 29 C -1.532463 -6.135459 3.740579 0
M  V30 30 N -0.749393 -5.040943 3.928747 0
M  V30 31 C -0.672434 -4.076992 2.987843 0
M  V30 32 H 1.058003 -3.284738 4.814244 0
M  V30 33 H 0.415497 -1.638577 4.631021 0
M  V30 34 H 1.902446 -2.137089 3.714627 0
M  V30 35 H 1.349471 -1.701910 -0.317076 0
M  V30 36 H 2.133306 0.529432 -0.889816 0
M  V30 37 H 2.767008 2.403276 -1.304206 0
M  V30 38 H 1.976272 4.032427 -1.337622 0
M  V30 39 H 4.446079 4.158907 -1.029827 0
M  V30 40 H 4.239173 3.254324 0.510073 0
M  V30 41 H 3.586810 5.974924 -0.062857 0
M  V30 42 H 1.393666 5.547729 -0.109293 0
M  V30 43 H 1.825789 6.065704 1.539294 0
M  V30 44 H 1.531635 3.742019 2.367207 0
M  V30 45 H 0.209853 4.123645 1.261820 0
M  V30 46 H 0.200767 2.189340 2.471155 0
M  V30 47 H -0.594509 -0.013633 3.068954 0
M  V30 48 H -2.710978 -1.017414 0.229741 0
M  V30 49 H -3.466495 -0.668702 -2.134153 0
M  V30 50 H -2.017814 -2.468140 -5.021311 0
M  V30 51 H -3.049937 -1.122537 -4.472894 0
M  V30 52 H -4.414676 -2.558802 -5.325085 0
M  V30 53 H -1.260256 -4.113416 -3.346209 0
M  V30 54 H -0.528661 -4.456536 -1.087078 0
M  V30 55 H -2.904626 -7.139508 2.386546 0
M  V30 56 H -1.622535 -6.933460 4.471720 0
M  V30 END ATOM
M  V30 BEGIN BOND
M  V30 1 1 1 2
M  V30 2 1 2 3
M  V30 3 1 3 4
M  V30 4 2 4 5
M  V30 5 1 5 6
M  V30 6 2 6 7
M  V30 7 1 7 8
M  V30 8 1 8 9
M  V30 9 1 9 10
M  V30 10 1 10 11
M  V30 11 1 11 12
M  V30 12 1 12 13
M  V30 13 1 7 14
M  V30 14 2 14 15
M  V30 15 2 3 16
M  V30 16 1 16 17
M  V30 17 2 17 18
M  V30 18 1 18 19
M  V30 19 2 19 20
M  V30 20 1 20 21
M  V30 21 1 21 22
M  V30 22 1 20 23
M  V30 23 2 23 24
M  V30 24 1 16 25
M  V30 25 2 25 26
M  V30 26 1 26 27
M  V30 27 1 26 28
M  V30 28 2 28 29
M  V30 29 1 29 30
M  V30 30 2 30 31
M  V30 31 1 31 2
M  V30 32 1 15 4
M  V30 33 1 24 17
M  V30 34 1 31 25
M  V30 35 1 13 8
M  V30 36 1 1 32
M  V30 37 1 1 33
M  V30 38 1 1 34
M  V30 39 1 5 35
M  V30 40 1 6 36
M  V30 41 1 9 37
M  V30 42 1 9 38
M  V30 43 1 10 39
M  V30 44 1 10 40
M  V30 45 1 11 41
M  V30 46 1 12 42
M  V30 47 1 12 43
M  V30 48 1 13 44
M  V30 49 1 13 45
M  V30 50 1 14 46
M  V30 51 1 15 47
M  V30 52 1 18 48
M  V30 53 1 19 49
M  V30 54 1 21 50
M  V30 55 1 21 51
M  V30 56 1 22 52
M  V30 57 1 23 53
M  V30 58 1 24 54
M  V30 59 1 28 55
M  V30 60 1 29 56
M  V30 END BOND
M  V30 END CTAB
M  END
>  <Dataset>  (11) 
ChEMBL_Kinases

>  <Ligand_Instance>  (11) 
nan

>  <PDB_ID>  (11) 
nan

>  <Standardized_SMILES>  (11) 
Cn1c(-c2ccc(N3CCNCC3)cc2)c(-c2ccc(CO)cc2)c2c(Cl)ccnc21

>  <Name>  (11) 
nan

>  <Pocket>  (11) 
nan

>  <ATP_Site>  (11) 
nan

>  <Peripheral>  (11) 
nan

>  <Num_H_Atoms_ProtBoundConf>  (11) 
nan

>  <Num_Resolved_Atoms>  (11) 
nan

>  <Num_Not_Resolved_Atoms>  (11) 
nan

$$$$
CHEMBL4082012
     RDKit          3D

  0  0  0  0  0  0  0  0  0  0999 V3000
M  V30 BEGIN CTAB
M  V30 COUNTS 33 36 0 0 0
M  V30 BEGIN ATOM
M  V30 1 O 2.494679 -6.170549 -0.092261 0
M  V30 2 C 2.288592 -5.191716 0.677427 0
M  V30 3 N 2.699810 -5.129812 2.044820 0
M  V30 4 C 2.267194 -3.858172 2.532249 0
M  V30 5 S 2.514758 -3.332934 4.058482 0
M  V30 6 N 1.604797 -3.172467 1.461248 0
M  V30 7 C 1.600340 -3.931706 0.353500 0
M  V30 8 C 1.035107 -3.542521 -0.842708 0
M  V30 9 C 0.454461 -2.308736 -0.869947 0
M  V30 10 C -0.119693 -1.888142 -2.048633 0
M  V30 11 C -0.711231 -0.636335 -2.083765 0
M  V30 12 C -0.719804 0.174180 -0.942647 0
M  V30 13 O -1.349993 1.400892 -1.134077 0
M  V30 14 C -1.439732 2.319403 -0.089652 0
M  V30 15 C -0.555962 3.321434 0.252698 0
M  V30 16 C -0.832361 4.131884 1.334379 0
M  V30 17 C -1.971974 3.975439 2.094182 0
M  V30 18 C -2.869379 2.975353 1.764958 0
M  V30 19 C -2.594609 2.165543 0.685280 0
M  V30 20 C -0.133383 -0.285345 0.218075 0
M  V30 21 C 0.459648 -1.521802 0.279964 0
M  V30 22 C 1.032779 -1.933940 1.467656 0
M  V30 23 O 1.019449 -1.189879 2.498247 0
M  V30 24 H 3.207745 -5.895063 2.521074 0
M  V30 25 H 1.042472 -4.172029 -1.726784 0
M  V30 26 H -0.116527 -2.519050 -2.947801 0
M  V30 27 H -1.150391 -0.352471 -3.039803 0
M  V30 28 H 0.312052 3.377492 -0.392758 0
M  V30 29 H -0.111501 4.904431 1.566256 0
M  V30 30 H -2.111865 4.640718 2.911483 0
M  V30 31 H -3.772697 2.850204 2.366003 0
M  V30 32 H -3.348901 1.403155 0.491291 0
M  V30 33 H -0.182901 0.410471 1.066669 0
M  V30 END ATOM
M  V30 BEGIN BOND
M  V30 1 2 1 2
M  V30 2 1 2 3
M  V30 3 1 3 4
M  V30 4 2 4 5
M  V30 5 1 4 6
M  V30 6 1 6 7
M  V30 7 2 7 8
M  V30 8 1 8 9
M  V30 9 2 9 10
M  V30 10 1 10 11
M  V30 11 2 11 12
M  V30 12 1 12 13
M  V30 13 1 13 14
M  V30 14 2 14 15
M  V30 15 1 15 16
M  V30 16 2 16 17
M  V30 17 1 17 18
M  V30 18 2 18 19
M  V30 19 1 12 20
M  V30 20 2 20 21
M  V30 21 1 21 22
M  V30 22 2 22 23
M  V30 23 1 7 2
M  V30 24 1 21 9
M  V30 25 1 22 6
M  V30 26 1 19 14
M  V30 27 1 3 24
M  V30 28 1 8 25
M  V30 29 1 10 26
M  V30 30 1 11 27
M  V30 31 1 15 28
M  V30 32 1 16 29
M  V30 33 1 17 30
M  V30 34 1 18 31
M  V30 35 1 19 32
M  V30 36 1 20 33
M  V30 END BOND
M  V30 END CTAB
M  END
>  <Dataset>  (12) 
ChEMBL_Kinases

>  <Ligand_Instance>  (12) 
nan

>  <PDB_ID>  (12) 
nan

>  <Standardized_SMILES>  (12) 
O=C1NC(=S)n2c1cc1ccc(Oc3ccccc3)cc1c2=O

>  <Name>  (12) 
nan

>  <Pocket>  (12) 
nan

>  <ATP_Site>  (12) 
nan

>  <Peripheral>  (12) 
nan

>  <Num_H_Atoms_ProtBoundConf>  (12) 
nan

>  <Num_Resolved_Atoms>  (12) 
nan

>  <Num_Not_Resolved_Atoms>  (12) 
nan

$$$$
CHEMBL4081949
     RDKit          3D

  0  0  0  0  0  0  0  0  0  0999 V3000
M  V30 BEGIN CTAB
M  V30 COUNTS 37 40 0 0 0
M  V30 BEGIN ATOM
M  V30 1 C 0.210765 -4.327288 4.124215 0
M  V30 2 C 0.012273 -2.966012 3.954307 0
M  V30 3 C -0.107976 -2.512874 2.646891 0
M  V30 4 C -0.034843 -3.364457 1.574790 0
M  V30 5 C -0.131012 -3.097368 0.220804 0
M  V30 6 C -0.338037 -1.844840 -0.497417 0
M  V30 7 C -1.262702 -1.871374 -1.521631 0
M  V30 8 N -1.518330 -0.763260 -2.238150 0
M  V30 9 C -0.866893 0.375809 -1.951846 0
M  V30 10 C 0.066951 0.466403 -0.942260 0
M  V30 11 N 0.785158 1.644394 -0.598745 0
M  V30 12 C 1.747109 1.769390 0.480229 0
M  V30 13 C 1.551024 3.186888 1.034888 0
M  V30 14 O 0.222342 3.587377 0.924806 0
M  V30 15 C -0.165033 3.810737 -0.379561 0
M  V30 16 C 0.645897 2.908514 -1.304227 0
M  V30 17 C 0.320816 -0.676005 -0.214408 0
M  V30 18 N 0.010676 -4.297425 -0.397732 0
M  V30 19 N 0.184238 -5.255638 0.502865 0
M  V30 20 C 0.163868 -4.729250 1.738383 0
M  V30 21 C 0.284663 -5.186200 3.046000 0
M  V30 22 H 0.307562 -4.701792 5.145032 0
M  V30 23 H -0.048751 -2.279593 4.770469 0
M  V30 24 H -0.260033 -1.470528 2.515516 0
M  V30 25 H -1.839388 -2.759151 -1.821918 0
M  V30 26 H -1.082040 1.259856 -2.535388 0
M  V30 27 H 1.688181 1.017222 1.255480 0
M  V30 28 H 2.801590 1.730275 0.084777 0
M  V30 29 H 1.832731 3.206913 2.107181 0
M  V30 30 H 2.170474 3.867460 0.450083 0
M  V30 31 H -1.247556 3.518257 -0.447442 0
M  V30 32 H -0.120261 4.877644 -0.675479 0
M  V30 33 H 0.190361 2.823191 -2.297859 0
M  V30 34 H 1.643102 3.413878 -1.463804 0
M  V30 35 H 1.017581 -0.780246 0.604770 0
M  V30 36 H 0.322852 -6.282165 0.375671 0
M  V30 37 H 0.440286 -6.255166 3.173682 0
M  V30 END ATOM
M  V30 BEGIN BOND
M  V30 1 2 1 2
M  V30 2 1 2 3
M  V30 3 2 3 4
M  V30 4 1 4 5
M  V30 5 1 5 6
M  V30 6 2 6 7
M  V30 7 1 7 8
M  V30 8 2 8 9
M  V30 9 1 9 10
M  V30 10 1 10 11
M  V30 11 1 11 12
M  V30 12 1 12 13
M  V30 13 1 13 14
M  V30 14 1 14 15
M  V30 15 1 15 16
M  V30 16 2 10 17
M  V30 17 2 5 18
M  V30 18 1 18 19
M  V30 19 1 19 20
M  V30 20 2 20 21
M  V30 21 1 21 1
M  V30 22 1 20 4
M  V30 23 1 17 6
M  V30 24 1 16 11
M  V30 25 1 1 22
M  V30 26 1 2 23
M  V30 27 1 3 24
M  V30 28 1 7 25
M  V30 29 1 9 26
M  V30 30 1 12 27
M  V30 31 1 12 28
M  V30 32 1 13 29
M  V30 33 1 13 30
M  V30 34 1 15 31
M  V30 35 1 15 32
M  V30 36 1 16 33
M  V30 37 1 16 34
M  V30 38 1 17 35
M  V30 39 1 19 36
M  V30 40 1 21 37
M  V30 END BOND
M  V30 END CTAB
M  END
>  <Dataset>  (13) 
ChEMBL_Kinases

>  <Ligand_Instance>  (13) 
nan

>  <PDB_ID>  (13) 
nan

>  <Standardized_SMILES>  (13) 
c1ccc2c(-c3cncc(N4CCOCC4)c3)n[nH]c2c1

>  <Name>  (13) 
nan

>  <Pocket>  (13) 
nan

>  <ATP_Site>  (13) 
nan

>  <Peripheral>  (13) 
nan

>  <Num_H_Atoms_ProtBoundConf>  (13) 
nan

>  <Num_Resolved_Atoms>  (13) 
nan

>  <Num_Not_Resolved_Atoms>  (13) 
nan

$$$$
CHEMBL4081874
     RDKit          3D

  0  0  0  0  0  0  0  0  0  0999 V3000
M  V30 BEGIN CTAB
M  V30 COUNTS 64 68 0 0 0
M  V30 BEGIN ATOM
M  V30 1 O 4.231047 2.970464 4.649580 0
M  V30 2 C 4.624519 3.084059 3.457067 0
M  V30 3 N 5.848383 3.788676 3.287181 0
M  V30 4 C 6.563892 4.323068 4.423760 0
M  V30 5 C 6.985304 3.289458 5.425175 0
M  V30 6 O 7.663852 3.974657 6.458990 0
M  V30 7 C 7.975234 2.285893 4.889591 0
M  V30 8 O 8.305287 1.452095 5.982627 0
M  V30 9 C 3.872675 2.526800 2.311353 0
M  V30 10 C 4.243722 2.627634 0.979907 0
M  V30 11 C 3.462247 2.063311 0.000926 0
M  V30 12 C 2.293181 1.381994 0.287556 0
M  V30 13 C 1.924633 1.282554 1.615997 0
M  V30 14 C 2.707935 1.850135 2.616921 0
M  V30 15 C 0.747166 0.620326 2.177290 0
M  V30 16 O 0.489016 0.810206 3.407865 0
M  V30 17 C -0.153801 -0.251887 1.399065 0
M  V30 18 C -0.867177 -1.066517 2.271996 0
M  V30 19 C -1.786866 -1.988107 1.812236 0
M  V30 20 C -1.933960 -2.030636 0.446422 0
M  V30 21 N -2.850874 -2.945140 -0.104350 0
M  V30 22 C -3.300647 -3.335106 -1.394082 0
M  V30 23 C -4.569782 -3.289112 -1.930538 0
M  V30 24 C -4.758105 -3.732826 -3.225525 0
M  V30 25 N -6.144953 -3.616597 -3.624229 0
M  V30 26 C -6.971400 -4.732774 -3.367241 0
M  V30 27 O -6.417164 -5.718549 -2.816320 0
M  V30 28 C -8.331543 -4.547975 -3.787735 0
M  V30 29 C -9.370414 -5.611385 -3.607517 0
M  V30 30 C -10.621230 -5.333664 -4.039266 0
M  V30 31 C -10.879922 -3.978232 -4.668862 0
M  V30 32 S -9.149596 -3.208400 -4.552155 0
M  V30 33 C -3.740344 -4.221657 -4.015115 0
M  V30 34 F -4.067629 -4.620467 -5.259714 0
M  V30 35 C -2.460368 -4.266023 -3.468873 0
M  V30 36 C -2.237751 -3.824500 -2.161608 0
M  V30 37 F -0.944848 -3.926342 -1.762942 0
M  V30 38 C -1.252450 -1.247038 -0.453856 0
M  V30 39 C -0.337790 -0.332531 0.030714 0
M  V30 40 O 0.358254 0.466444 -0.867813 0
M  V30 41 C 1.693901 0.899042 -0.971707 0
M  V30 42 H 6.230936 3.918170 2.324305 0
M  V30 43 H 5.900181 5.037803 4.935928 0
M  V30 44 H 7.483026 4.842637 4.077544 0
M  V30 45 H 6.175224 2.750479 5.919279 0
M  V30 46 H 8.073019 3.274604 7.053345 0
M  V30 47 H 7.580090 1.614560 4.120824 0
M  V30 48 H 8.923777 2.779009 4.585095 0
M  V30 49 H 8.421977 0.508462 5.711502 0
M  V30 50 H 5.145726 3.155372 0.777047 0
M  V30 51 H 3.786003 2.163129 -1.034682 0
M  V30 52 H 2.351655 1.730945 3.644226 0
M  V30 53 H -0.701863 -0.981267 3.339489 0
M  V30 54 H -2.360952 -2.638048 2.443584 0
M  V30 55 H -3.430973 -3.577701 0.484057 0
M  V30 56 H -5.298668 -2.899998 -1.259685 0
M  V30 57 H -6.450320 -2.716398 -4.077477 0
M  V30 58 H -9.104395 -6.543943 -3.152080 0
M  V30 59 H -11.435397 -6.026862 -3.956408 0
M  V30 60 H -11.898534 -3.760397 -5.017016 0
M  V30 61 H -1.664128 -4.654566 -4.102494 0
M  V30 62 H -1.350967 -1.263566 -1.515056 0
M  V30 63 H 1.679894 1.765781 -1.666497 0
M  V30 64 H 2.313524 0.065061 -1.353884 0
M  V30 END ATOM
M  V30 BEGIN BOND
M  V30 1 2 1 2
M  V30 2 1 2 3
M  V30 3 1 3 4
M  V30 4 1 4 5
M  V30 5 1 5 6
M  V30 6 1 5 7
M  V30 7 1 7 8
M  V30 8 1 2 9
M  V30 9 2 9 10
M  V30 10 1 10 11
M  V30 11 2 11 12
M  V30 12 1 12 13
M  V30 13 2 13 14
M  V30 14 1 13 15
M  V30 15 2 15 16
M  V30 16 1 15 17
M  V30 17 2 17 18
M  V30 18 1 18 19
M  V30 19 2 19 20
M  V30 20 1 20 21
M  V30 21 1 21 22
M  V30 22 2 22 23
M  V30 23 1 23 24
M  V30 24 1 24 25
M  V30 25 1 25 26
M  V30 26 2 26 27
M  V30 27 1 26 28
M  V30 28 2 28 29
M  V30 29 1 29 30
M  V30 30 2 30 31
M  V30 31 1 31 32
M  V30 32 2 24 33
M  V30 33 1 33 34
M  V30 34 1 33 35
M  V30 35 2 35 36
M  V30 36 1 36 37
M  V30 37 1 20 38
M  V30 38 2 38 39
M  V30 39 1 39 40
M  V30 40 1 40 41
M  V30 41 1 14 9
M  V30 42 1 39 17
M  V30 43 1 41 12
M  V30 44 1 36 22
M  V30 45 1 32 28
M  V30 46 1 3 42
M  V30 47 1 4 43
M  V30 48 1 4 44
M  V30 49 1 5 45
M  V30 50 1 6 46
M  V30 51 1 7 47
M  V30 52 1 7 48
M  V30 53 1 8 49
M  V30 54 1 10 50
M  V30 55 1 11 51
M  V30 56 1 14 52
M  V30 57 1 18 53
M  V30 58 1 19 54
M  V30 59 1 21 55
M  V30 60 1 23 56
M  V30 61 1 25 57
M  V30 62 1 29 58
M  V30 63 1 30 59
M  V30 64 1 31 60
M  V30 65 1 35 61
M  V30 66 1 38 62
M  V30 67 1 41 63
M  V30 68 1 41 64
M  V30 END BOND
M  V30 END CTAB
M  END
>  <Dataset>  (14) 
ChEMBL_Kinases

>  <Ligand_Instance>  (14) 
nan

>  <PDB_ID>  (14) 
nan

>  <Standardized_SMILES>  (14) 
O=C(NCC(O)CO)c1ccc2c(c1)C(=O)c1ccc(Nc3cc(NC(=O)c4cccs4)c(F)cc3F)cc1OC2

>  <Name>  (14) 
nan

>  <Pocket>  (14) 
nan

>  <ATP_Site>  (14) 
nan

>  <Peripheral>  (14) 
nan

>  <Num_H_Atoms_ProtBoundConf>  (14) 
nan

>  <Num_Resolved_Atoms>  (14) 
nan

>  <Num_Not_Resolved_Atoms>  (14) 
nan

$$$$
CHEMBL4081827
     RDKit          3D

  0  0  0  0  0  0  0  0  0  0999 V3000
M  V30 BEGIN CTAB
M  V30 COUNTS 48 51 0 0 0
M  V30 BEGIN ATOM
M  V30 1 C 2.252476 -5.956982 0.882177 0
M  V30 2 N 1.389197 -4.819331 0.708413 0
M  V30 3 C 0.556388 -4.510671 1.796593 0
M  V30 4 C 0.795401 -3.227813 2.513321 0
M  V30 5 C 2.246888 -2.836739 2.210255 0
M  V30 6 C 2.246835 -2.512630 0.734567 0 CFG=2
M  V30 7 N 1.255923 -1.520087 0.473674 0
M  V30 8 C 1.284757 -0.214425 1.050581 0
M  V30 9 N 2.281344 0.106265 1.869793 0
M  V30 10 C 2.483938 1.260580 2.501041 0
M  V30 11 C 1.539930 2.233824 2.269908 0
M  V30 12 C 1.582725 3.543037 2.857793 0
M  V30 13 N 0.579432 4.510827 2.583278 0
M  V30 14 O 2.567862 3.735366 3.614725 0
M  V30 15 C 0.490311 1.911574 1.413724 0
M  V30 16 S -0.932422 2.961098 0.887612 0
M  V30 17 C -1.650249 1.674081 -0.152921 0
M  V30 18 C -2.858913 1.825715 -0.915541 0
M  V30 19 C -3.303505 0.762326 -1.673039 0
M  V30 20 C -4.468383 0.935360 -2.396641 0
M  V30 21 C -5.179147 2.115578 -2.380147 0
M  V30 22 C -4.693160 3.145347 -1.608594 0
M  V30 23 C -3.534640 3.020767 -0.868708 0
M  V30 24 C -0.810071 0.602118 -0.035200 0
M  V30 25 C 0.293951 0.695693 0.760476 0
M  V30 26 C 1.950477 -3.761218 -0.056789 0
M  V30 27 H 2.073862 -6.648973 0.031908 0
M  V30 28 H 3.335548 -5.700719 0.853136 0
M  V30 29 H 2.045164 -6.521114 1.809350 0
M  V30 30 H -0.527775 -4.608133 1.502523 0
M  V30 31 H 0.680238 -5.324634 2.570753 0
M  V30 32 H 0.605099 -3.271751 3.593250 0
M  V30 33 H 0.172124 -2.448598 1.987257 0
M  V30 34 H 2.619835 -2.027014 2.829663 0
M  V30 35 H 2.813974 -3.793778 2.352912 0
M  V30 36 H 3.286412 -2.150629 0.506190 0
M  V30 37 H 0.449565 -1.752437 -0.182252 0
M  V30 38 H 3.289561 1.493080 3.151902 0
M  V30 39 H 0.723293 5.000978 1.683534 0
M  V30 40 H -0.207761 4.678506 3.251387 0
M  V30 41 H -2.768065 -0.160502 -1.699966 0
M  V30 42 H -4.870858 0.149093 -3.007192 0
M  V30 43 H -6.100567 2.283093 -2.939457 0
M  V30 44 H -5.223554 4.090657 -1.568688 0
M  V30 45 H -3.150264 3.817349 -0.266169 0
M  V30 46 H -1.058116 -0.294515 -0.587613 0
M  V30 47 H 1.286993 -3.522674 -0.920737 0
M  V30 48 H 2.901974 -4.134163 -0.497315 0
M  V30 END ATOM
M  V30 BEGIN BOND
M  V30 1 1 1 2
M  V30 2 1 2 3
M  V30 3 1 3 4
M  V30 4 1 4 5
M  V30 5 1 5 6
M  V30 6 1 6 7
M  V30 7 1 7 8
M  V30 8 2 8 9
M  V30 9 1 9 10
M  V30 10 2 10 11
M  V30 11 1 11 12
M  V30 12 1 12 13
M  V30 13 2 12 14
M  V30 14 1 11 15
M  V30 15 1 15 16
M  V30 16 1 16 17
M  V30 17 1 17 18
M  V30 18 2 18 19
M  V30 19 1 19 20
M  V30 20 2 20 21
M  V30 21 1 21 22
M  V30 22 2 22 23
M  V30 23 2 17 24
M  V30 24 1 24 25
M  V30 25 1 6 26
M  V30 26 1 26 2
M  V30 27 1 25 8
M  V30 28 2 25 15
M  V30 29 1 23 18
M  V30 30 1 1 27
M  V30 31 1 1 28
M  V30 32 1 1 29
M  V30 33 1 3 30
M  V30 34 1 3 31
M  V30 35 1 4 32
M  V30 36 1 4 33
M  V30 37 1 5 34
M  V30 38 1 5 35
M  V30 39 1 6 36 CFG=3
M  V30 40 1 7 37
M  V30 41 1 10 38
M  V30 42 1 13 39
M  V30 43 1 13 40
M  V30 44 1 19 41
M  V30 45 1 20 42
M  V30 46 1 21 43
M  V30 47 1 22 44
M  V30 48 1 23 45
M  V30 49 1 24 46
M  V30 50 1 26 47
M  V30 51 1 26 48
M  V30 END BOND
M  V30 END CTAB
M  END
>  <Dataset>  (15) 
ChEMBL_Kinases

>  <Ligand_Instance>  (15) 
nan

>  <PDB_ID>  (15) 
nan

>  <Standardized_SMILES>  (15) 
CN1CCC[C@H](Nc2ncc(C(N)=O)c3sc(-c4ccccc4)cc23)C1

>  <Name>  (15) 
nan

>  <Pocket>  (15) 
nan

>  <ATP_Site>  (15) 
nan

>  <Peripheral>  (15) 
nan

>  <Num_H_Atoms_ProtBoundConf>  (15) 
nan

>  <Num_Resolved_Atoms>  (15) 
nan

>  <Num_Not_Resolved_Atoms>  (15) 
nan

$$$$
CHEMBL4853789
     RDKit          3D

  0  0  0  0  0  0  0  0  0  0999 V3000
M  V30 BEGIN CTAB
M  V30 COUNTS 45 49 0 0 0
M  V30 BEGIN ATOM
M  V30 1 O 5.581927 -0.940790 0.126800 0
M  V30 2 C 4.564702 -0.332093 -0.243285 0
M  V30 3 N 4.272055 -0.176525 -1.611354 0
M  V30 4 C 5.250327 -0.786284 -2.486580 0
M  V30 5 C 4.908611 -0.961839 -3.924290 0
M  V30 6 O 6.066274 -0.249693 -4.346907 0
M  V30 7 C 6.163967 0.329858 -3.057660 0
M  V30 8 C 3.667896 0.227523 0.769134 0
M  V30 9 C 2.469274 0.931084 0.935850 0
M  V30 10 C 1.969084 1.247221 2.162605 0
M  V30 11 N 0.730470 1.943464 2.178295 0
M  V30 12 N 0.320893 3.191602 2.325592 0
M  V30 13 C -1.034400 3.233574 2.227338 0
M  V30 14 C -1.489911 1.955839 2.010103 0
M  V30 15 N -2.783546 1.566888 1.850319 0
M  V30 16 C -3.036848 0.260062 1.641340 0
M  V30 17 N -4.230295 -0.480058 1.413994 0
M  V30 18 C -4.545658 -1.693587 2.081888 0
M  V30 19 C -4.629623 -2.743498 1.154579 0
M  V30 20 C -4.941562 -4.056905 1.541336 0
M  V30 21 C -5.168204 -4.305902 2.870227 0
M  V30 22 C -5.087050 -3.286283 3.776693 0
M  V30 23 C -4.787751 -1.999807 3.438499 0
M  V30 24 Cl -4.638844 -0.572775 4.435226 0
M  V30 25 C -1.977599 -0.612088 1.598780 0
M  V30 26 C -0.650397 -0.227167 1.760462 0
M  V30 27 C -0.350270 1.121080 1.979790 0
M  V30 28 C 2.839764 0.764443 3.306532 0
M  V30 29 S 4.190467 -0.040447 2.561211 0
M  V30 30 H 3.415042 0.344800 -1.863827 0
M  V30 31 H 5.871557 -1.568189 -2.007541 0
M  V30 32 H 5.040231 -2.010904 -4.293794 0
M  V30 33 H 3.984350 -0.480101 -4.259107 0
M  V30 34 H 5.691453 1.312651 -3.097690 0
M  V30 35 H 7.188501 0.262023 -2.688789 0
M  V30 36 H 2.120557 1.113733 -0.059285 0
M  V30 37 H -1.621824 4.150503 2.311854 0
M  V30 38 H -4.866472 -0.061194 0.707347 0
M  V30 39 H -4.474776 -2.689458 0.077275 0
M  V30 40 H -5.020425 -4.893182 0.875149 0
M  V30 41 H -5.411396 -5.306465 3.209218 0
M  V30 42 H -5.247527 -3.391722 4.841950 0
M  V30 43 H -1.982933 -1.700889 1.439816 0
M  V30 44 H 0.210159 -0.868711 1.731370 0
M  V30 45 H 2.288586 1.107207 4.319684 0
M  V30 END ATOM
M  V30 BEGIN BOND
M  V30 1 2 1 2
M  V30 2 1 2 3
M  V30 3 1 3 4
M  V30 4 1 4 5
M  V30 5 1 5 6
M  V30 6 1 6 7
M  V30 7 1 2 8
M  V30 8 2 8 9
M  V30 9 1 9 10
M  V30 10 1 10 11
M  V30 11 1 11 12
M  V30 12 2 12 13
M  V30 13 1 13 14
M  V30 14 2 14 15
M  V30 15 1 15 16
M  V30 16 1 16 17
M  V30 17 1 17 18
M  V30 18 2 18 19
M  V30 19 1 19 20
M  V30 20 2 20 21
M  V30 21 1 21 22
M  V30 22 2 22 23
M  V30 23 1 23 24
M  V30 24 2 16 25
M  V30 25 1 25 26
M  V30 26 2 26 27
M  V30 27 2 10 28
M  V30 28 1 28 29
M  V30 29 1 7 4
M  V30 30 1 29 8
M  V30 31 1 27 11
M  V30 32 1 27 14
M  V30 33 1 23 18
M  V30 34 1 3 30
M  V30 35 1 4 31
M  V30 36 1 5 32
M  V30 37 1 5 33
M  V30 38 1 7 34
M  V30 39 1 7 35
M  V30 40 1 9 36
M  V30 41 1 13 37
M  V30 42 1 17 38
M  V30 43 1 19 39
M  V30 44 1 20 40
M  V30 45 1 21 41
M  V30 46 1 22 42
M  V30 47 1 25 43
M  V30 48 1 26 44
M  V30 49 1 28 45
M  V30 END BOND
M  V30 END CTAB
M  END
>  <Dataset>  (16) 
ChEMBL_Kinases

>  <Ligand_Instance>  (16) 
nan

>  <PDB_ID>  (16) 
nan

>  <Standardized_SMILES>  (16) 
O=C(NC1COC1)c1cc(-n2ncc3nc(Nc4ccccc4Cl)ccc32)cs1

>  <Name>  (16) 
nan

>  <Pocket>  (16) 
nan

>  <ATP_Site>  (16) 
nan

>  <Peripheral>  (16) 
nan

>  <Num_H_Atoms_ProtBoundConf>  (16) 
nan

>  <Num_Resolved_Atoms>  (16) 
nan

>  <Num_Not_Resolved_Atoms>  (16) 
nan

$$$$
CHEMBL4081711
     RDKit          3D

  0  0  0  0  0  0  0  0  0  0999 V3000
M  V30 BEGIN CTAB
M  V30 COUNTS 46 48 0 0 0
M  V30 BEGIN ATOM
M  V30 1 C 5.379348 2.322380 2.011254 0
M  V30 2 C 3.954704 1.919127 1.689473 0
M  V30 3 C 3.656209 0.642927 2.410310 0 CFG=2
M  V30 4 C 4.639709 -0.411107 1.925959 0 CFG=2
M  V30 5 F 4.711429 -0.257261 0.552344 0
M  V30 6 C 3.878265 -1.650014 2.238547 0
M  V30 7 O 4.123698 -2.825611 2.644712 0
M  V30 8 N 2.519737 -1.326908 1.980798 0
M  V30 9 C 2.286214 0.098208 2.109223 0 CFG=2
M  V30 10 C 1.706956 0.679509 0.838412 0
M  V30 11 O 0.472384 0.083762 0.499693 0
M  V30 12 C -0.661573 0.084362 1.269628 0
M  V30 13 N -0.718895 0.674586 2.474624 0
M  V30 14 C -1.855659 0.658960 3.214319 0
M  V30 15 C -3.009716 0.023078 2.740111 0
M  V30 16 C -2.919715 -0.573822 1.499846 0
M  V30 17 C -4.033138 -1.211774 0.992420 0
M  V30 18 C -3.908361 -1.795582 -0.246949 0
M  V30 19 C -5.083948 -2.461958 -0.770685 0
M  V30 20 N -5.136425 -3.112772 -2.023035 0
M  V30 21 O -6.255159 -2.838434 -0.723836 0
M  V30 22 C -2.790743 -1.816741 -1.046235 0
M  V30 23 O -2.797316 -2.441989 -2.278677 0
M  V30 24 C -1.648236 -2.473265 -3.119027 0
M  V30 25 C -1.703907 -1.166098 -0.495639 0
M  V30 26 C -1.767991 -0.563277 0.740093 0
M  V30 27 H 5.636667 3.189602 1.343173 0
M  V30 28 H 6.117055 1.526575 1.819719 0
M  V30 29 H 5.505989 2.704624 3.033285 0
M  V30 30 H 3.322369 2.761968 2.046037 0
M  V30 31 H 3.901453 1.749922 0.612532 0
M  V30 32 H 3.802652 0.782005 3.500219 0
M  V30 33 H 5.615361 -0.356355 2.429282 0
M  V30 34 H 1.644649 -1.853461 1.722053 0
M  V30 35 H 1.628785 0.245201 2.982665 0
M  V30 36 H 2.412676 0.373124 0.013369 0
M  V30 37 H 1.714154 1.768286 0.825616 0
M  V30 38 H -1.867808 1.144913 4.182187 0
M  V30 39 H -3.933566 -0.004893 3.310872 0
M  V30 40 H -4.988206 -1.287971 1.489484 0
M  V30 41 H -5.103101 -3.631715 -2.896281 0
M  V30 42 H -4.681352 -3.867353 -2.610011 0
M  V30 43 H -1.800703 -3.179944 -3.945690 0
M  V30 44 H -0.781324 -2.770604 -2.498624 0
M  V30 45 H -1.519645 -1.454078 -3.513848 0
M  V30 46 H -0.775681 -1.146604 -1.085820 0
M  V30 END ATOM
M  V30 BEGIN BOND
M  V30 1 1 1 2
M  V30 2 1 2 3
M  V30 3 1 3 4
M  V30 4 1 4 5
M  V30 5 1 4 6
M  V30 6 2 6 7
M  V30 7 1 6 8
M  V30 8 1 8 9
M  V30 9 1 9 10
M  V30 10 1 10 11
M  V30 11 1 11 12
M  V30 12 2 12 13
M  V30 13 1 13 14
M  V30 14 2 14 15
M  V30 15 1 15 16
M  V30 16 2 16 17
M  V30 17 1 17 18
M  V30 18 1 18 19
M  V30 19 1 19 20
M  V30 20 2 19 21
M  V30 21 2 18 22
M  V30 22 1 22 23
M  V30 23 1 23 24
M  V30 24 1 22 25
M  V30 25 2 25 26
M  V30 26 1 9 3
M  V30 27 1 26 12
M  V30 28 1 26 16
M  V30 29 1 1 27
M  V30 30 1 1 28
M  V30 31 1 1 29
M  V30 32 1 2 30
M  V30 33 1 2 31
M  V30 34 1 3 32 CFG=1
M  V30 35 1 4 33 CFG=1
M  V30 36 1 8 34
M  V30 37 1 9 35 CFG=1
M  V30 38 1 10 36
M  V30 39 1 10 37
M  V30 40 1 14 38
M  V30 41 1 15 39
M  V30 42 1 17 40
M  V30 43 1 20 41
M  V30 44 1 20 42
M  V30 45 1 24 43
M  V30 46 1 24 44
M  V30 47 1 24 45
M  V30 48 1 25 46
M  V30 END BOND
M  V30 END CTAB
M  END
>  <Dataset>  (17) 
ChEMBL_Kinases

>  <Ligand_Instance>  (17) 
nan

>  <PDB_ID>  (17) 
nan

>  <Standardized_SMILES>  (17) 
CC[C@@H]1[C@H](F)C(=O)N[C@@H]1COc1nccc2cc(C(N)=O)c(OC)cc12

>  <Name>  (17) 
ZIMLOVISERTIB

>  <Pocket>  (17) 
nan

>  <ATP_Site>  (17) 
nan

>  <Peripheral>  (17) 
nan

>  <Num_H_Atoms_ProtBoundConf>  (17) 
nan

>  <Num_Resolved_Atoms>  (17) 
nan

>  <Num_Not_Resolved_Atoms>  (17) 
nan

$$$$
CHEMBL4081677
     RDKit          3D

  0  0  0  0  0  0  0  0  0  0999 V3000
M  V30 BEGIN CTAB
M  V30 COUNTS 33 35 0 0 0
M  V30 BEGIN ATOM
M  V30 1 N 0.049606 -2.450382 3.399733 0
M  V30 2 C 0.792158 -1.827281 2.766477 0
M  V30 3 C 1.725563 -1.051082 2.002653 0
M  V30 4 C 3.015480 -0.728109 2.419209 0
M  V30 5 N 3.568719 0.016328 1.433142 0
M  V30 6 C 2.733679 0.207989 0.393073 0
M  V30 7 N 2.783105 0.842370 -0.772718 0
M  V30 8 C 1.679304 0.801341 -1.568378 0
M  V30 9 N 1.785454 1.498178 -2.806818 0
M  V30 10 N 0.552142 0.139253 -1.203880 0
M  V30 11 C 0.473305 -0.522836 -0.009866 0
M  V30 12 N -0.761322 -1.163722 0.157468 0
M  V30 13 C -0.907077 -2.602437 0.083343 0
M  V30 14 C -2.130234 -2.840190 0.934926 0
M  V30 15 C -2.601607 -1.497653 1.446091 0
M  V30 16 C -2.038543 -0.535580 0.424547 0 CFG=1
M  V30 17 C -1.919892 0.862798 0.958532 0
M  V30 18 O -1.254953 1.649480 0.023552 0
M  V30 19 C 1.599845 -0.469137 0.781644 0
M  V30 20 H 3.491266 -1.011976 3.347530 0
M  V30 21 H 4.552983 0.409879 1.468266 0
M  V30 22 H 1.111451 2.285697 -2.706497 0
M  V30 23 H 2.391123 1.299775 -3.655517 0
M  V30 24 H -0.017295 -3.173597 0.382914 0
M  V30 25 H -1.183962 -2.886818 -0.975775 0
M  V30 26 H -1.937972 -3.540880 1.778397 0
M  V30 27 H -2.950060 -3.322314 0.353376 0
M  V30 28 H -2.322750 -1.285353 2.478206 0
M  V30 29 H -3.714532 -1.450264 1.349248 0
M  V30 30 H -2.652123 -0.599597 -0.489834 0
M  V30 31 H -2.878048 1.337162 1.166432 0
M  V30 32 H -1.339944 0.891294 1.900260 0
M  V30 33 H -1.753892 1.735594 -0.824627 0
M  V30 END ATOM
M  V30 BEGIN BOND
M  V30 1 3 1 2
M  V30 2 1 2 3
M  V30 3 2 3 4
M  V30 4 1 4 5
M  V30 5 1 5 6
M  V30 6 2 6 7
M  V30 7 1 7 8
M  V30 8 1 8 9
M  V30 9 2 8 10
M  V30 10 1 10 11
M  V30 11 1 11 12
M  V30 12 1 12 13
M  V30 13 1 13 14
M  V30 14 1 14 15
M  V30 15 1 15 16
M  V30 16 1 16 17
M  V30 17 1 17 18
M  V30 18 2 11 19
M  V30 19 1 19 3
M  V30 20 1 19 6
M  V30 21 1 16 12
M  V30 22 1 4 20
M  V30 23 1 5 21
M  V30 24 1 9 22
M  V30 25 1 9 23
M  V30 26 1 13 24
M  V30 27 1 13 25
M  V30 28 1 14 26
M  V30 29 1 14 27
M  V30 30 1 15 28
M  V30 31 1 15 29
M  V30 32 1 16 30 CFG=3
M  V30 33 1 17 31
M  V30 34 1 17 32
M  V30 35 1 18 33
M  V30 END BOND
M  V30 END CTAB
M  END
>  <Dataset>  (18) 
ChEMBL_Kinases

>  <Ligand_Instance>  (18) 
nan

>  <PDB_ID>  (18) 
nan

>  <Standardized_SMILES>  (18) 
N#Cc1c[nH]c2nc(N)nc(N3CCC[C@H]3CO)c12

>  <Name>  (18) 
nan

>  <Pocket>  (18) 
nan

>  <ATP_Site>  (18) 
nan

>  <Peripheral>  (18) 
nan

>  <Num_H_Atoms_ProtBoundConf>  (18) 
nan

>  <Num_Resolved_Atoms>  (18) 
nan

>  <Num_Not_Resolved_Atoms>  (18) 
nan

$$$$
CHEMBL4853834
     RDKit          3D

  0  0  0  0  0  0  0  0  0  0999 V3000
M  V30 BEGIN CTAB
M  V30 COUNTS 44 47 0 0 0
M  V30 BEGIN ATOM
M  V30 1 C 4.337862 -4.340569 0.421663 0
M  V30 2 C 3.870314 -3.026991 -0.219685 0
M  V30 3 C 2.382579 -2.975165 0.038043 0
M  V30 4 N 4.591507 -1.919517 0.374874 0
M  V30 5 C 5.692584 -1.960761 1.151460 0
M  V30 6 N 6.039357 -0.726071 1.490514 0
M  V30 7 N 5.169017 0.087806 0.935825 0
M  V30 8 C 4.261242 -0.621852 0.239264 0
M  V30 9 C 3.149491 -0.033954 -0.503494 0
M  V30 10 C 3.407285 0.324402 -1.822483 0
M  V30 11 C 2.381920 0.885558 -2.564601 0
M  V30 12 C 1.131185 1.088303 -2.017593 0
M  V30 13 C 0.912557 0.714770 -0.689122 0
M  V30 14 N -0.293477 0.836413 0.061023 0
M  V30 15 C -0.882904 1.810730 0.891629 0
M  V30 16 O -0.301960 2.905215 1.115085 0
M  V30 17 C -2.191646 1.413596 1.437298 0
M  V30 18 C -2.959008 0.272573 1.296627 0
M  V30 19 C -4.119178 0.422225 2.034814 0
M  V30 20 C -5.199005 -0.425874 2.221085 0
M  V30 21 C -6.225095 0.032715 3.039428 0
M  V30 22 C -6.147288 1.288816 3.632103 0
M  V30 23 C -5.054555 2.106694 3.423136 0
M  V30 24 C -4.027713 1.671136 2.616044 0
M  V30 25 N -2.871993 2.246523 2.248131 0
M  V30 26 N 1.916089 0.170067 0.023616 0
M  V30 27 H 3.690870 -5.158175 0.083408 0
M  V30 28 H 5.383416 -4.569827 0.139993 0
M  V30 29 H 4.281913 -4.241856 1.544215 0
M  V30 30 H 4.091760 -3.099082 -1.296280 0
M  V30 31 H 1.844140 -2.504185 -0.809076 0
M  V30 32 H 2.093601 -2.465300 0.953769 0
M  V30 33 H 1.958856 -4.017625 0.095928 0
M  V30 34 H 6.196995 -2.884420 1.438715 0
M  V30 35 H 4.393444 0.166404 -2.259390 0
M  V30 36 H 2.518817 1.183260 -3.588786 0
M  V30 37 H 0.273267 1.511285 -2.498229 0
M  V30 38 H -0.734140 -0.103936 -0.164334 0
M  V30 39 H -2.623365 -0.554847 0.685358 0
M  V30 40 H -5.192521 -1.388880 1.728948 0
M  V30 41 H -7.077548 -0.616179 3.196929 0
M  V30 42 H -7.012074 1.547082 4.256768 0
M  V30 43 H -5.068992 3.069618 3.919771 0
M  V30 44 H -2.589723 3.209055 2.575196 0
M  V30 END ATOM
M  V30 BEGIN BOND
M  V30 1 1 1 2
M  V30 2 1 2 3
M  V30 3 1 2 4
M  V30 4 1 4 5
M  V30 5 2 5 6
M  V30 6 1 6 7
M  V30 7 2 7 8
M  V30 8 1 8 9
M  V30 9 2 9 10
M  V30 10 1 10 11
M  V30 11 2 11 12
M  V30 12 1 12 13
M  V30 13 1 13 14
M  V30 14 1 14 15
M  V30 15 2 15 16
M  V30 16 1 15 17
M  V30 17 2 17 18
M  V30 18 1 18 19
M  V30 19 2 19 20
M  V30 20 1 20 21
M  V30 21 2 21 22
M  V30 22 1 22 23
M  V30 23 2 23 24
M  V30 24 1 24 25
M  V30 25 2 13 26
M  V30 26 1 8 4
M  V30 27 1 26 9
M  V30 28 1 25 17
M  V30 29 1 24 19
M  V30 30 1 1 27
M  V30 31 1 1 28
M  V30 32 1 1 29
M  V30 33 1 2 30
M  V30 34 1 3 31
M  V30 35 1 3 32
M  V30 36 1 3 33
M  V30 37 1 5 34
M  V30 38 1 10 35
M  V30 39 1 11 36
M  V30 40 1 12 37
M  V30 41 1 14 38
M  V30 42 1 18 39
M  V30 43 1 20 40
M  V30 44 1 21 41
M  V30 45 1 22 42
M  V30 46 1 23 43
M  V30 47 1 25 44
M  V30 END BOND
M  V30 END CTAB
M  END
>  <Dataset>  (19) 
ChEMBL_Kinases

>  <Ligand_Instance>  (19) 
nan

>  <PDB_ID>  (19) 
nan

>  <Standardized_SMILES>  (19) 
CC(C)n1cnnc1-c1cccc(NC(=O)c2cc3ccccc3[nH]2)n1

>  <Name>  (19) 
nan

>  <Pocket>  (19) 
nan

>  <ATP_Site>  (19) 
nan

>  <Peripheral>  (19) 
nan

>  <Num_H_Atoms_ProtBoundConf>  (19) 
nan

>  <Num_Resolved_Atoms>  (19) 
nan

>  <Num_Not_Resolved_Atoms>  (19) 
nan

$$$$
CHEMBL4853927
     RDKit          3D

  0  0  0  0  0  0  0  0  0  0999 V3000
M  V30 BEGIN CTAB
M  V30 COUNTS 72 76 0 0 0
M  V30 BEGIN ATOM
M  V30 1 C 3.525152 -1.165525 6.310060 0
M  V30 2 C 2.830676 -1.632809 5.041241 0
M  V30 3 C 3.423080 -0.994878 3.839098 0
M  V30 4 O 4.672367 -1.098825 3.846584 0
M  V30 5 N 2.587783 -0.378080 2.873937 0
M  V30 6 C 1.114677 -0.276026 2.960806 0
M  V30 7 C 0.769684 0.573359 1.704537 0
M  V30 8 C 1.979808 1.418274 1.676381 0 CFG=2
M  V30 9 N 2.162678 2.434919 0.747716 0
M  V30 10 C 2.926199 3.489088 1.166828 0
M  V30 11 O 3.399523 3.505310 2.360689 0
M  V30 12 C 3.270237 4.596467 0.429963 0
M  V30 13 C 2.785069 4.636536 -0.876564 0
M  V30 14 C 3.156948 5.839370 -1.663387 0
M  V30 15 C 2.020827 3.583958 -1.296028 0
M  V30 16 C 1.593217 3.711764 -2.601409 0
M  V30 17 N 0.844421 2.699426 -3.057837 0
M  V30 18 C 0.524557 1.617743 -2.289479 0
M  V30 19 N -0.243925 0.621116 -2.993460 0
M  V30 20 C -1.026099 -0.462944 -2.518517 0
M  V30 21 C -1.345943 -0.601390 -1.175535 0
M  V30 22 C -2.118079 -1.599296 -0.609754 0
M  V30 23 C -2.613609 -2.542969 -1.472047 0
M  V30 24 N -3.411503 -3.644455 -1.037102 0
M  V30 25 C -4.876430 -3.601454 -1.064675 0
M  V30 26 C -5.475408 -4.510266 0.003633 0
M  V30 27 N -4.596446 -4.484004 1.116198 0
M  V30 28 C -5.165822 -4.699189 2.389042 0
M  V30 29 C -3.342369 -5.160862 0.896571 0
M  V30 30 C -2.928544 -4.914530 -0.536009 0
M  V30 31 C -2.334292 -2.461431 -2.818557 0
M  V30 32 C -1.553368 -1.446869 -3.367609 0
M  V30 33 O -1.274062 -1.365949 -4.718911 0
M  V30 34 C -1.736439 -2.280696 -5.688518 0
M  V30 35 N 0.958945 1.513010 -1.000486 0
M  V30 36 C 1.718563 2.517965 -0.509593 0
M  V30 37 C 3.018075 0.275061 1.623087 0
M  V30 38 H 4.269584 -1.932799 6.582959 0
M  V30 39 H 2.829603 -1.051855 7.166625 0
M  V30 40 H 4.090175 -0.216837 6.115933 0
M  V30 41 H 1.756626 -1.436084 5.139294 0
M  V30 42 H 2.972761 -2.760441 4.941481 0
M  V30 43 H 0.700805 -1.275094 2.913486 0
M  V30 44 H 0.776984 0.243826 3.856834 0
M  V30 45 H -0.146453 1.123614 1.849313 0
M  V30 46 H 0.757974 -0.216355 0.918945 0
M  V30 47 H 2.103882 1.818710 2.732625 0
M  V30 48 H 3.871719 5.388867 0.818414 0
M  V30 49 H 4.051536 6.329979 -1.226003 0
M  V30 50 H 2.339554 6.588257 -1.567968 0
M  V30 51 H 3.328942 5.629925 -2.722957 0
M  V30 52 H 1.776192 4.506787 -3.301973 0
M  V30 53 H -0.256658 0.651831 -4.033489 0
M  V30 54 H -0.953831 0.168059 -0.563671 0
M  V30 55 H -2.327016 -1.646557 0.444626 0
M  V30 56 H -5.280091 -2.588399 -1.008845 0
M  V30 57 H -5.157060 -4.016575 -2.078184 0
M  V30 58 H -5.562512 -5.538879 -0.400300 0
M  V30 59 H -6.469703 -4.122982 0.318736 0
M  V30 60 H -5.908973 -5.491830 2.490377 0
M  V30 61 H -5.660471 -3.739526 2.727195 0
M  V30 62 H -4.321926 -4.812308 3.126430 0
M  V30 63 H -2.595855 -4.809947 1.612120 0
M  V30 64 H -3.512850 -6.265437 1.062742 0
M  V30 65 H -3.366070 -5.696748 -1.223145 0
M  V30 66 H -1.829845 -4.987374 -0.666872 0
M  V30 67 H -2.701035 -3.178076 -3.534435 0
M  V30 68 H -1.512177 -3.301650 -5.322054 0
M  V30 69 H -2.857981 -2.181521 -5.665337 0
M  V30 70 H -1.316258 -2.092984 -6.685294 0
M  V30 71 H 2.712426 -0.332393 0.734721 0
M  V30 72 H 4.040126 0.613748 1.627412 0
M  V30 END ATOM
M  V30 BEGIN BOND
M  V30 1 1 1 2
M  V30 2 1 2 3
M  V30 3 2 3 4
M  V30 4 1 3 5
M  V30 5 1 5 6
M  V30 6 1 6 7
M  V30 7 1 7 8
M  V30 8 1 8 9
M  V30 9 1 9 10
M  V30 10 2 10 11
M  V30 11 1 10 12
M  V30 12 2 12 13
M  V30 13 1 13 14
M  V30 14 1 13 15
M  V30 15 2 15 16
M  V30 16 1 16 17
M  V30 17 2 17 18
M  V30 18 1 18 19
M  V30 19 1 19 20
M  V30 20 2 20 21
M  V30 21 1 21 22
M  V30 22 2 22 23
M  V30 23 1 23 24
M  V30 24 1 24 25
M  V30 25 1 25 26
M  V30 26 1 26 27
M  V30 27 1 27 28
M  V30 28 1 27 29
M  V30 29 1 29 30
M  V30 30 1 23 31
M  V30 31 2 31 32
M  V30 32 1 32 33
M  V30 33 1 33 34
M  V30 34 1 18 35
M  V30 35 2 35 36
M  V30 36 1 8 37
M  V30 37 1 37 5
M  V30 38 1 36 9
M  V30 39 1 36 15
M  V30 40 1 32 20
M  V30 41 1 30 24
M  V30 42 1 1 38
M  V30 43 1 1 39
M  V30 44 1 1 40
M  V30 45 1 2 41
M  V30 46 1 2 42
M  V30 47 1 6 43
M  V30 48 1 6 44
M  V30 49 1 7 45
M  V30 50 1 7 46
M  V30 51 1 8 47 CFG=1
M  V30 52 1 12 48
M  V30 53 1 14 49
M  V30 54 1 14 50
M  V30 55 1 14 51
M  V30 56 1 16 52
M  V30 57 1 19 53
M  V30 58 1 21 54
M  V30 59 1 22 55
M  V30 60 1 25 56
M  V30 61 1 25 57
M  V30 62 1 26 58
M  V30 63 1 26 59
M  V30 64 1 28 60
M  V30 65 1 28 61
M  V30 66 1 28 62
M  V30 67 1 29 63
M  V30 68 1 29 64
M  V30 69 1 30 65
M  V30 70 1 30 66
M  V30 71 1 31 67
M  V30 72 1 34 68
M  V30 73 1 34 69
M  V30 74 1 34 70
M  V30 75 1 37 71
M  V30 76 1 37 72
M  V30 END BOND
M  V30 END CTAB
M  END
>  <Dataset>  (20) 
ChEMBL_Kinases

>  <Ligand_Instance>  (20) 
nan

>  <PDB_ID>  (20) 
nan

>  <Standardized_SMILES>  (20) 
CCC(=O)N1CC[C@H](n2c(=O)cc(C)c3cnc(Nc4ccc(N5CCN(C)CC5)cc4OC)nc32)C1

>  <Name>  (20) 
nan

>  <Pocket>  (20) 
nan

>  <ATP_Site>  (20) 
nan

>  <Peripheral>  (20) 
nan

>  <Num_H_Atoms_ProtBoundConf>  (20) 
nan

>  <Num_Resolved_Atoms>  (20) 
nan

>  <Num_Not_Resolved_Atoms>  (20) 
nan

$$$$
CHEMBL4081560
     RDKit          3D

  0  0  0  0  0  0  0  0  0  0999 V3000
M  V30 BEGIN CTAB
M  V30 COUNTS 53 58 0 0 0
M  V30 BEGIN ATOM
M  V30 1 Br -2.449092 -2.915042 4.688489 0
M  V30 2 C -0.816724 -2.347243 3.875627 0
M  V30 3 C 0.431493 -2.532990 4.406209 0
M  V30 4 C 1.567705 -2.084948 3.741145 0
M  V30 5 C 1.412461 -1.453490 2.527243 0
M  V30 6 N 2.513262 -1.050411 1.891624 0
M  V30 7 C 2.452543 -0.447526 0.718789 0
M  V30 8 N 3.647562 0.159852 0.096279 0
M  V30 9 C 3.151822 1.490233 0.412803 0
M  V30 10 C 2.499516 2.006795 -0.728076 0
M  V30 11 C 1.773356 3.211860 -0.680613 0
M  V30 12 C 1.819059 3.733679 0.585920 0
M  V30 13 N 1.204172 4.909995 0.963835 0
M  V30 14 N 1.420415 5.191065 2.258643 0
M  V30 15 C 2.203859 4.204686 2.817975 0
M  V30 16 C 2.406084 3.346269 1.757881 0
M  V30 17 C 3.106998 2.140891 1.617806 0
M  V30 18 N 1.251690 -0.192424 0.069577 0
M  V30 19 C 0.093664 -0.575194 0.655149 0
M  V30 20 N -1.271876 -0.286712 0.420995 0
M  V30 21 C -2.583429 -0.002084 0.179948 0
M  V30 22 C -3.305774 -0.804403 -0.868257 0
M  V30 23 C -3.161857 -2.270501 -0.591603 0
M  V30 24 C -3.827267 -3.038896 0.296407 0
M  V30 25 N -3.213565 -4.257795 0.191754 0
M  V30 26 C -2.228387 -4.221025 -0.715216 0
M  V30 27 C -1.321699 -5.171489 -1.236630 0
M  V30 28 C -0.435232 -4.838064 -2.222448 0
M  V30 29 C -0.376246 -3.568474 -2.741211 0
M  V30 30 C -1.241764 -2.597365 -2.258626 0
M  V30 31 C -2.140939 -2.971085 -1.257405 0
M  V30 32 C 0.210622 -1.216374 1.905851 0
M  V30 33 C -0.874014 -1.704814 2.663819 0
M  V30 34 H 0.454520 -3.034859 5.357916 0
M  V30 35 H 2.520711 -2.228654 4.229172 0
M  V30 36 H 4.482981 -0.282411 -0.360080 0
M  V30 37 H 2.493943 1.513589 -1.711853 0
M  V30 38 H 1.253963 3.671972 -1.512396 0
M  V30 39 H 0.614818 5.608313 0.480821 0
M  V30 40 H 2.618801 3.978050 3.786896 0
M  V30 41 H 3.624492 1.640951 2.407774 0
M  V30 42 H -1.022156 0.091138 -0.571992 0
M  V30 43 H -2.731169 1.094465 -0.122547 0
M  V30 44 H -3.248829 -0.010037 1.128071 0
M  V30 45 H -2.974975 -0.516311 -1.886122 0
M  V30 46 H -4.411021 -0.625203 -0.836589 0
M  V30 47 H -4.650516 -2.700056 0.928366 0
M  V30 48 H -3.498006 -5.074416 0.773332 0
M  V30 49 H -1.361996 -6.149057 -0.837641 0
M  V30 50 H 0.263419 -5.521613 -2.665173 0
M  V30 51 H 0.298762 -3.188269 -3.538398 0
M  V30 52 H -1.202954 -1.570478 -2.665712 0
M  V30 53 H -1.857144 -1.558069 2.240077 0
M  V30 END ATOM
M  V30 BEGIN BOND
M  V30 1 1 1 2
M  V30 2 2 2 3
M  V30 3 1 3 4
M  V30 4 2 4 5
M  V30 5 1 5 6
M  V30 6 2 6 7
M  V30 7 1 7 8
M  V30 8 1 8 9
M  V30 9 2 9 10
M  V30 10 1 10 11
M  V30 11 2 11 12
M  V30 12 1 12 13
M  V30 13 1 13 14
M  V30 14 2 14 15
M  V30 15 1 15 16
M  V30 16 2 16 17
M  V30 17 1 7 18
M  V30 18 2 18 19
M  V30 19 1 19 20
M  V30 20 1 20 21
M  V30 21 1 21 22
M  V30 22 1 22 23
M  V30 23 2 23 24
M  V30 24 1 24 25
M  V30 25 1 25 26
M  V30 26 2 26 27
M  V30 27 1 27 28
M  V30 28 2 28 29
M  V30 29 1 29 30
M  V30 30 2 30 31
M  V30 31 1 19 32
M  V30 32 2 32 33
M  V30 33 1 33 2
M  V30 34 1 32 5
M  V30 35 1 17 9
M  V30 36 1 31 23
M  V30 37 1 16 12
M  V30 38 1 31 26
M  V30 39 1 3 34
M  V30 40 1 4 35
M  V30 41 1 8 36
M  V30 42 1 10 37
M  V30 43 1 11 38
M  V30 44 1 13 39
M  V30 45 1 15 40
M  V30 46 1 17 41
M  V30 47 1 20 42
M  V30 48 1 21 43
M  V30 49 1 21 44
M  V30 50 1 22 45
M  V30 51 1 22 46
M  V30 52 1 24 47
M  V30 53 1 25 48
M  V30 54 1 27 49
M  V30 55 1 28 50
M  V30 56 1 29 51
M  V30 57 1 30 52
M  V30 58 1 33 53
M  V30 END BOND
M  V30 END CTAB
M  END
>  <Dataset>  (21) 
ChEMBL_Kinases

>  <Ligand_Instance>  (21) 
nan

>  <PDB_ID>  (21) 
nan

>  <Standardized_SMILES>  (21) 
Brc1ccc2nc(Nc3ccc4[nH]ncc4c3)nc(NCCc3c[nH]c4ccccc34)c2c1

>  <Name>  (21) 
nan

>  <Pocket>  (21) 
nan

>  <ATP_Site>  (21) 
nan

>  <Peripheral>  (21) 
nan

>  <Num_H_Atoms_ProtBoundConf>  (21) 
nan

>  <Num_Resolved_Atoms>  (21) 
nan

>  <Num_Not_Resolved_Atoms>  (21) 
nan

$$$$
CHEMBL4853973
     RDKit          3D

  0  0  0  0  0  0  0  0  0  0999 V3000
M  V30 BEGIN CTAB
M  V30 COUNTS 70 75 0 0 0
M  V30 BEGIN ATOM
M  V30 1 C 5.645886 -4.548574 1.982586 0
M  V30 2 C 4.443513 -4.936185 1.547639 0
M  V30 3 C 2.993872 -4.784818 1.731059 0
M  V30 4 N 2.289514 -4.283300 0.578218 0
M  V30 5 C 1.760961 -4.984080 -0.426330 0
M  V30 6 O 1.818017 -6.246862 -0.508286 0
M  V30 7 C 1.183966 -4.105455 -1.290254 0
M  V30 8 C 0.497938 -4.238835 -2.472984 0
M  V30 9 N 0.048838 -3.107639 -3.072562 0
M  V30 10 C 0.245361 -1.879989 -2.564213 0
M  V30 11 N -0.341722 -0.887310 -3.395146 0
M  V30 12 C -1.425798 -0.140401 -2.830208 0
M  V30 13 C -1.778133 -0.335399 -1.507198 0
M  V30 14 C -2.802023 0.340438 -0.877894 0
M  V30 15 C -3.537187 1.280398 -1.604079 0
M  V30 16 N -4.600087 2.036950 -1.061609 0
M  V30 17 C -5.545812 2.885515 -1.805764 0
M  V30 18 C -6.955779 2.393936 -1.469334 0
M  V30 19 N -6.965313 1.261710 -0.590045 0
M  V30 20 C -6.743576 -0.003390 -1.215426 0
M  V30 21 C -6.269037 1.473594 0.642774 0
M  V30 22 C -4.913249 2.089036 0.363161 0
M  V30 23 C -3.189503 1.473796 -2.914126 0
M  V30 24 C -2.155563 0.788552 -3.542019 0
M  V30 25 N 0.924929 -1.743324 -1.392490 0
M  V30 26 C 1.378626 -2.850578 -0.780104 0
M  V30 27 N 2.062433 -2.977989 0.374195 0
M  V30 28 C 2.461841 -1.932739 1.247846 0
M  V30 29 C 1.435749 -1.816054 2.198016 0
M  V30 30 C 1.500404 -0.868696 3.228725 0
M  V30 31 C 2.590936 -0.035111 3.312439 0
M  V30 32 C 3.593367 -0.182186 2.345410 0
M  V30 33 N 3.502246 -1.092941 1.378179 0
M  V30 34 C 4.652510 0.794788 2.603634 0 CFG=2
M  V30 35 O 4.298913 2.000843 1.987911 0
M  V30 36 C 6.036131 0.366601 2.206917 0
M  V30 37 F 6.063391 0.108801 0.855687 0
M  V30 38 F 6.863370 1.473121 2.412966 0
M  V30 39 F 6.536990 -0.631900 2.988809 0
M  V30 40 C 4.527898 1.047092 4.089118 0
M  V30 41 C 3.004032 1.058310 4.247849 0
M  V30 42 H 4.845828 -4.056903 2.550477 0
M  V30 43 H 6.162796 -3.909500 2.693396 0
M  V30 44 H 4.724788 -5.637726 0.742814 0
M  V30 45 H 2.757240 -4.165478 2.643120 0
M  V30 46 H 2.563417 -5.802249 1.966400 0
M  V30 47 H 0.333332 -5.241351 -2.894866 0
M  V30 48 H -0.044621 -0.669915 -4.370338 0
M  V30 49 H -1.273049 -1.043380 -0.854300 0
M  V30 50 H -3.064913 0.169020 0.172487 0
M  V30 51 H -5.439897 3.930994 -1.399238 0
M  V30 52 H -5.432889 2.820621 -2.884611 0
M  V30 53 H -7.497934 2.085724 -2.406602 0
M  V30 54 H -7.541055 3.218716 -1.014985 0
M  V30 55 H -6.950369 0.052289 -2.303707 0
M  V30 56 H -7.487287 -0.746397 -0.802383 0
M  V30 57 H -5.754551 -0.452872 -0.997193 0
M  V30 58 H -6.103838 0.528646 1.194341 0
M  V30 59 H -6.878150 2.136778 1.284103 0
M  V30 60 H -4.130561 1.668578 1.008742 0
M  V30 61 H -4.983067 3.162303 0.637920 0
M  V30 62 H -3.657539 2.160500 -3.605293 0
M  V30 63 H -1.844549 0.904805 -4.567796 0
M  V30 64 H 0.489941 -2.372312 2.310599 0
M  V30 65 H 0.765866 -0.703416 4.002083 0
M  V30 66 H 3.336160 2.126875 2.148274 0
M  V30 67 H 4.982781 1.996903 4.412200 0
M  V30 68 H 4.952386 0.182908 4.628085 0
M  V30 69 H 2.762980 0.738649 5.290743 0
M  V30 70 H 2.549670 2.023145 4.030969 0
M  V30 END ATOM
M  V30 BEGIN BOND
M  V30 1 2 1 2
M  V30 2 1 2 3
M  V30 3 1 3 4
M  V30 4 1 4 5
M  V30 5 2 5 6
M  V30 6 1 5 7
M  V30 7 2 7 8
M  V30 8 1 8 9
M  V30 9 2 9 10
M  V30 10 1 10 11
M  V30 11 1 11 12
M  V30 12 2 12 13
M  V30 13 1 13 14
M  V30 14 2 14 15
M  V30 15 1 15 16
M  V30 16 1 16 17
M  V30 17 1 17 18
M  V30 18 1 18 19
M  V30 19 1 19 20
M  V30 20 1 19 21
M  V30 21 1 21 22
M  V30 22 1 15 23
M  V30 23 2 23 24
M  V30 24 1 10 25
M  V30 25 2 25 26
M  V30 26 1 26 27
M  V30 27 1 27 28
M  V30 28 2 28 29
M  V30 29 1 29 30
M  V30 30 2 30 31
M  V30 31 1 31 32
M  V30 32 2 32 33
M  V30 33 1 32 34
M  V30 34 1 34 35 CFG=3
M  V30 35 1 34 36
M  V30 36 1 36 37
M  V30 37 1 36 38
M  V30 38 1 36 39
M  V30 39 1 34 40
M  V30 40 1 40 41
M  V30 41 1 27 4
M  V30 42 1 33 28
M  V30 43 1 26 7
M  V30 44 1 41 31
M  V30 45 1 24 12
M  V30 46 1 22 16
M  V30 47 1 1 42
M  V30 48 1 1 43
M  V30 49 1 2 44
M  V30 50 1 3 45
M  V30 51 1 3 46
M  V30 52 1 8 47
M  V30 53 1 11 48
M  V30 54 1 13 49
M  V30 55 1 14 50
M  V30 56 1 17 51
M  V30 57 1 17 52
M  V30 58 1 18 53
M  V30 59 1 18 54
M  V30 60 1 20 55
M  V30 61 1 20 56
M  V30 62 1 20 57
M  V30 63 1 21 58
M  V30 64 1 21 59
M  V30 65 1 22 60
M  V30 66 1 22 61
M  V30 67 1 23 62
M  V30 68 1 24 63
M  V30 69 1 29 64
M  V30 70 1 30 65
M  V30 71 1 35 66
M  V30 72 1 40 67
M  V30 73 1 40 68
M  V30 74 1 41 69
M  V30 75 1 41 70
M  V30 END BOND
M  V30 END CTAB
M  END
>  <Dataset>  (22) 
ChEMBL_Kinases

>  <Ligand_Instance>  (22) 
nan

>  <PDB_ID>  (22) 
nan

>  <Standardized_SMILES>  (22) 
C=CCn1c(=O)c2cnc(Nc3ccc(N4CCN(C)CC4)cc3)nc2n1-c1ccc2c(n1)[C@](O)(C(F)(F)F)CC2

>  <Name>  (22) 
nan

>  <Pocket>  (22) 
nan

>  <ATP_Site>  (22) 
nan

>  <Peripheral>  (22) 
nan

>  <Num_H_Atoms_ProtBoundConf>  (22) 
nan

>  <Num_Resolved_Atoms>  (22) 
nan

>  <Num_Not_Resolved_Atoms>  (22) 
nan

$$$$
CHEMBL4854209
     RDKit          3D

  0  0  0  0  0  0  0  0  0  0999 V3000
M  V30 BEGIN CTAB
M  V30 COUNTS 67 71 0 0 0
M  V30 BEGIN ATOM
M  V30 1 O 1.308964 -3.585642 5.337460 0
M  V30 2 C 1.028549 -2.365250 5.415099 0
M  V30 3 N 1.525971 -1.391414 4.511519 0
M  V30 4 C 2.375535 -1.399303 3.373097 0
M  V30 5 C 3.763187 -1.247923 3.336990 0
M  V30 6 N 4.407871 -1.279575 2.156552 0
M  V30 7 C 3.784805 -1.452775 0.974918 0
M  V30 8 C 2.407216 -1.611352 0.915476 0
M  V30 9 C 1.617723 -1.800917 -0.297852 0
M  V30 10 O 0.371314 -1.972804 -0.319132 0
M  V30 11 N 2.235085 -1.801877 -1.572375 0
M  V30 12 C 1.454119 -1.990862 -2.782457 0
M  V30 13 C 1.489761 -0.646615 -3.489413 0
M  V30 14 C 0.710613 -0.680675 -4.784508 0
M  V30 15 N 0.477723 -2.035249 -5.240461 0
M  V30 16 C 0.127808 -1.978866 -6.641607 0
M  V30 17 C -1.097030 -1.175334 -6.861579 0
M  V30 18 C -2.274039 -1.920123 -6.802940 0
M  V30 19 C -3.470005 -1.245835 -7.000363 0
M  V30 20 C -3.584953 0.121456 -7.252873 0
M  V30 21 C -2.368196 0.797469 -7.296453 0
M  V30 22 Cl -2.402857 2.534485 -7.609840 0
M  V30 23 C -1.164714 0.175564 -7.108110 0
M  V30 24 C 1.716377 -2.801014 -5.113883 0
M  V30 25 C 1.941644 -3.102872 -3.644423 0
M  V30 26 C 1.737705 -1.578557 2.140467 0
M  V30 27 C 0.148271 -1.909994 6.482298 0
M  V30 28 C -0.332660 -2.875914 7.339101 0
M  V30 29 C -1.179358 -2.587216 8.395212 0
M  V30 30 N -1.564214 -1.298894 8.611853 0
M  V30 31 C -1.101139 -0.320752 7.776140 0
M  V30 32 N -1.424926 1.057976 7.886048 0
M  V30 33 C -2.448306 1.875758 7.335830 0
M  V30 34 O -3.274330 1.293565 6.575803 0
M  V30 35 C -2.522058 3.328256 7.650347 0
M  V30 36 C -3.885864 3.922352 7.647021 0
M  V30 37 C -2.880171 4.277079 6.564182 0
M  V30 38 C -0.250955 -0.614041 6.716739 0
M  V30 39 H 1.338538 -0.367590 4.514025 0
M  V30 40 H 4.210401 -1.114674 4.294773 0
M  V30 41 H 4.308948 -1.477336 0.028156 0
M  V30 42 H 3.261360 -1.669816 -1.709459 0
M  V30 43 H 0.369268 -2.161221 -2.518425 0
M  V30 44 H 2.529456 -0.344407 -3.604310 0
M  V30 45 H 0.974184 0.058932 -2.800673 0
M  V30 46 H 1.333715 -0.143865 -5.528718 0
M  V30 47 H -0.242021 -0.121219 -4.689161 0
M  V30 48 H 0.982398 -1.467249 -7.162989 0
M  V30 49 H 0.071552 -2.979917 -7.117584 0
M  V30 50 H -2.321526 -2.986414 -6.614344 0
M  V30 51 H -4.426659 -1.781556 -6.965237 0
M  V30 52 H -4.548145 0.578016 -7.396851 0
M  V30 53 H -0.223170 0.701811 -7.143128 0
M  V30 54 H 1.612632 -3.766054 -5.640324 0
M  V30 55 H 2.555326 -2.189854 -5.524402 0
M  V30 56 H 1.425438 -4.070267 -3.412345 0
M  V30 57 H 3.030941 -3.307921 -3.463687 0
M  V30 58 H 0.652795 -1.702012 2.109938 0
M  V30 59 H -0.080006 -3.927904 7.244196 0
M  V30 60 H -1.545192 -3.359760 9.056888 0
M  V30 61 H -0.696238 1.420121 8.516674 0
M  V30 62 H -1.732107 3.669342 8.350327 0
M  V30 63 H -4.742018 3.290982 7.319144 0
M  V30 64 H -4.086296 4.672069 8.428998 0
M  V30 65 H -3.088877 3.909429 5.534367 0
M  V30 66 H -2.440994 5.292398 6.622728 0
M  V30 67 H 0.122594 0.133406 6.052317 0
M  V30 END ATOM
M  V30 BEGIN BOND
M  V30 1 2 1 2
M  V30 2 1 2 3
M  V30 3 1 3 4
M  V30 4 2 4 5
M  V30 5 1 5 6
M  V30 6 2 6 7
M  V30 7 1 7 8
M  V30 8 1 8 9
M  V30 9 2 9 10
M  V30 10 1 9 11
M  V30 11 1 11 12
M  V30 12 1 12 13
M  V30 13 1 13 14
M  V30 14 1 14 15
M  V30 15 1 15 16
M  V30 16 1 16 17
M  V30 17 2 17 18
M  V30 18 1 18 19
M  V30 19 2 19 20
M  V30 20 1 20 21
M  V30 21 1 21 22
M  V30 22 2 21 23
M  V30 23 1 15 24
M  V30 24 1 24 25
M  V30 25 2 8 26
M  V30 26 1 2 27
M  V30 27 2 27 28
M  V30 28 1 28 29
M  V30 29 2 29 30
M  V30 30 1 30 31
M  V30 31 1 31 32
M  V30 32 1 32 33
M  V30 33 2 33 34
M  V30 34 1 33 35
M  V30 35 1 35 36
M  V30 36 1 36 37
M  V30 37 2 31 38
M  V30 38 1 26 4
M  V30 39 1 38 27
M  V30 40 1 25 12
M  V30 41 1 37 35
M  V30 42 1 23 17
M  V30 43 1 3 39
M  V30 44 1 5 40
M  V30 45 1 7 41
M  V30 46 1 11 42
M  V30 47 1 12 43
M  V30 48 1 13 44
M  V30 49 1 13 45
M  V30 50 1 14 46
M  V30 51 1 14 47
M  V30 52 1 16 48
M  V30 53 1 16 49
M  V30 54 1 18 50
M  V30 55 1 19 51
M  V30 56 1 20 52
M  V30 57 1 23 53
M  V30 58 1 24 54
M  V30 59 1 24 55
M  V30 60 1 25 56
M  V30 61 1 25 57
M  V30 62 1 26 58
M  V30 63 1 28 59
M  V30 64 1 29 60
M  V30 65 1 32 61
M  V30 66 1 35 62
M  V30 67 1 36 63
M  V30 68 1 36 64
M  V30 69 1 37 65
M  V30 70 1 37 66
M  V30 71 1 38 67
M  V30 END BOND
M  V30 END CTAB
M  END
>  <Dataset>  (23) 
ChEMBL_Kinases

>  <Ligand_Instance>  (23) 
nan

>  <PDB_ID>  (23) 
nan

>  <Standardized_SMILES>  (23) 
O=C(Nc1cncc(C(=O)NC2CCN(Cc3cccc(Cl)c3)CC2)c1)c1ccnc(NC(=O)C2CC2)c1

>  <Name>  (23) 
nan

>  <Pocket>  (23) 
nan

>  <ATP_Site>  (23) 
nan

>  <Peripheral>  (23) 
nan

>  <Num_H_Atoms_ProtBoundConf>  (23) 
nan

>  <Num_Resolved_Atoms>  (23) 
nan

>  <Num_Not_Resolved_Atoms>  (23) 
nan

$$$$
CHEMBL4854040
     RDKit          3D

  0  0  0  0  0  0  0  0  0  0999 V3000
M  V30 BEGIN CTAB
M  V30 COUNTS 56 60 0 0 0
M  V30 BEGIN ATOM
M  V30 1 C 3.190557 -3.122912 0.893316 0
M  V30 2 O 2.789907 -1.803999 0.616527 0
M  V30 3 C 3.473183 -0.662823 0.987943 0
M  V30 4 C 4.660149 -0.844057 1.697283 0
M  V30 5 C 5.404021 0.245464 2.106170 0
M  V30 6 C 4.975118 1.524403 1.813908 0
M  V30 7 C 3.803261 1.731165 1.112794 0
M  V30 8 O 3.263982 2.954715 0.756697 0
M  V30 9 C 3.835446 4.206067 1.058615 0
M  V30 10 C 3.053762 0.640171 0.700595 0
M  V30 11 C 1.794425 0.663670 -0.046983 0
M  V30 12 C 0.630379 0.704352 0.704972 0
M  V30 13 C -0.588622 0.728005 0.058960 0
M  V30 14 C -0.705570 0.712756 -1.310809 0
M  V30 15 C -1.961633 0.742294 -1.862355 0
M  V30 16 N -3.179141 0.785713 -1.131129 0
M  V30 17 C -3.829360 -0.061459 -0.191794 0
M  V30 18 C -4.983675 0.394903 0.405957 0
M  V30 19 C -5.569883 -0.476003 1.299235 0
M  V30 20 N -5.073288 -1.689930 1.586265 0
M  V30 21 C -3.950096 -2.168849 1.023209 0
M  V30 22 C -3.413585 -3.486851 1.336461 0
M  V30 23 C -2.267347 -4.018100 0.783012 0
M  V30 24 C -1.771509 -5.254293 1.082064 0
M  V30 25 F -0.637522 -5.711638 0.497997 0
M  V30 26 C -2.473217 -6.026990 2.008283 0
M  V30 27 C -3.633682 -5.529418 2.590177 0
M  V30 28 C -4.103833 -4.255870 2.252376 0
M  V30 29 F -5.239095 -3.833670 2.856233 0
M  V30 30 C -3.347898 -1.313538 0.126659 0
M  V30 31 C -1.961516 0.728875 -3.257548 0
M  V30 32 C -0.822202 0.689326 -4.030618 0
M  V30 33 N 0.348801 0.662677 -3.371535 0
M  V30 34 C 0.457415 0.672588 -2.049288 0
M  V30 35 C 1.687429 0.648416 -1.423215 0
M  V30 36 H 2.822584 -3.442130 1.892356 0
M  V30 37 H 4.285482 -3.230172 0.768428 0
M  V30 38 H 2.727190 -3.780276 0.122854 0
M  V30 39 H 5.089881 -1.795925 1.980302 0
M  V30 40 H 6.343365 0.142203 2.666321 0
M  V30 41 H 5.516244 2.389699 2.109178 0
M  V30 42 H 3.382857 4.560815 2.013240 0
M  V30 43 H 3.614375 4.922443 0.237737 0
M  V30 44 H 4.927019 4.085947 1.140873 0
M  V30 45 H 0.678779 0.717527 1.796145 0
M  V30 46 H -1.455313 0.764315 0.693541 0
M  V30 47 H -3.609887 1.684784 -1.428980 0
M  V30 48 H -5.445336 1.355949 0.228715 0
M  V30 49 H -6.475230 -0.201257 1.812565 0
M  V30 50 H -1.725139 -3.437884 0.076297 0
M  V30 51 H -2.127784 -7.009828 2.281607 0
M  V30 52 H -4.145361 -6.165417 3.304458 0
M  V30 53 H -2.453689 -1.589689 -0.377779 0
M  V30 54 H -2.905476 0.750490 -3.781989 0
M  V30 55 H -0.877346 0.680424 -5.110483 0
M  V30 56 H 2.601127 0.616961 -1.982976 0
M  V30 END ATOM
M  V30 BEGIN BOND
M  V30 1 1 1 2
M  V30 2 1 2 3
M  V30 3 2 3 4
M  V30 4 1 4 5
M  V30 5 2 5 6
M  V30 6 1 6 7
M  V30 7 1 7 8
M  V30 8 1 8 9
M  V30 9 2 7 10
M  V30 10 1 10 11
M  V30 11 2 11 12
M  V30 12 1 12 13
M  V30 13 2 13 14
M  V30 14 1 14 15
M  V30 15 1 15 16
M  V30 16 1 16 17
M  V30 17 2 17 18
M  V30 18 1 18 19
M  V30 19 2 19 20
M  V30 20 1 20 21
M  V30 21 1 21 22
M  V30 22 2 22 23
M  V30 23 1 23 24
M  V30 24 1 24 25
M  V30 25 2 24 26
M  V30 26 1 26 27
M  V30 27 2 27 28
M  V30 28 1 28 29
M  V30 29 2 21 30
M  V30 30 2 15 31
M  V30 31 1 31 32
M  V30 32 2 32 33
M  V30 33 1 33 34
M  V30 34 2 34 35
M  V30 35 1 10 3
M  V30 36 1 35 11
M  V30 37 1 34 14
M  V30 38 1 30 17
M  V30 39 1 28 22
M  V30 40 1 1 36
M  V30 41 1 1 37
M  V30 42 1 1 38
M  V30 43 1 4 39
M  V30 44 1 5 40
M  V30 45 1 6 41
M  V30 46 1 9 42
M  V30 47 1 9 43
M  V30 48 1 9 44
M  V30 49 1 12 45
M  V30 50 1 13 46
M  V30 51 1 16 47
M  V30 52 1 18 48
M  V30 53 1 19 49
M  V30 54 1 23 50
M  V30 55 1 26 51
M  V30 56 1 27 52
M  V30 57 1 30 53
M  V30 58 1 31 54
M  V30 59 1 32 55
M  V30 60 1 35 56
M  V30 END BOND
M  V30 END CTAB
M  END
>  <Dataset>  (24) 
ChEMBL_Kinases

>  <Ligand_Instance>  (24) 
nan

>  <PDB_ID>  (24) 
nan

>  <Standardized_SMILES>  (24) 
COc1cccc(OC)c1-c1ccc2c(Nc3ccnc(-c4cc(F)ccc4F)c3)ccnc2c1

>  <Name>  (24) 
nan

>  <Pocket>  (24) 
nan

>  <ATP_Site>  (24) 
nan

>  <Peripheral>  (24) 
nan

>  <Num_H_Atoms_ProtBoundConf>  (24) 
nan

>  <Num_Resolved_Atoms>  (24) 
nan

>  <Num_Not_Resolved_Atoms>  (24) 
nan

$$$$
CHEMBL4081417
     RDKit          3D

  0  0  0  0  0  0  0  0  0  0999 V3000
M  V30 BEGIN CTAB
M  V30 COUNTS 37 40 0 0 0
M  V30 BEGIN ATOM
M  V30 1 C -0.574856 -5.848869 2.555624 0
M  V30 2 C 0.845790 -5.462579 2.606526 0
M  V30 3 N 1.854468 -6.222185 3.103393 0
M  V30 4 N 2.989336 -5.573845 2.992692 0
M  V30 5 C 2.815213 -4.349592 2.419844 0
M  V30 6 C 1.457365 -4.301372 2.185137 0
M  V30 7 C 0.776393 -3.185436 1.580965 0
M  V30 8 C 1.208765 -1.997930 1.119429 0
M  V30 9 C 0.337534 -1.103238 0.584054 0
M  V30 10 N 0.529727 0.120525 0.068746 0
M  V30 11 C -0.453028 0.857800 -0.413918 0
M  V30 12 N -0.077093 2.128739 -0.920687 0
M  V30 13 C -0.935641 3.126329 -1.505129 0
M  V30 14 C -1.003484 4.225265 -0.435187 0
M  V30 15 O 0.217249 4.570970 0.069555 0
M  V30 16 C 1.324319 4.099658 -0.573220 0
M  V30 17 C 1.283698 2.629080 -0.922105 0
M  V30 18 N -1.741028 0.495041 -0.454112 0
M  V30 19 C -2.116087 -0.681697 0.011579 0
M  V30 20 O -3.209702 -1.250468 0.093659 0
M  V30 21 C -1.013947 -1.475565 0.538160 0
M  V30 22 S -0.986601 -3.200645 1.311372 0
M  V30 23 H -0.823945 -6.090221 1.494767 0
M  V30 24 H -0.731277 -6.776346 3.134272 0
M  V30 25 H -1.256365 -5.092152 2.999469 0
M  V30 26 H 3.942712 -5.910918 3.292600 0
M  V30 27 H 3.516791 -3.581742 2.187865 0
M  V30 28 H 2.265491 -1.797456 1.195695 0
M  V30 29 H -1.962720 2.771021 -1.611053 0
M  V30 30 H -0.530548 3.538410 -2.454746 0
M  V30 31 H -1.588260 3.751360 0.403417 0
M  V30 32 H -1.627906 5.074732 -0.787155 0
M  V30 33 H 1.616113 4.742262 -1.432727 0
M  V30 34 H 2.182476 4.215775 0.151329 0
M  V30 35 H 1.624054 2.553665 -1.991177 0
M  V30 36 H 1.981411 2.010607 -0.336807 0
M  V30 37 H -2.538772 1.034592 -0.819157 0
M  V30 END ATOM
M  V30 BEGIN BOND
M  V30 1 1 1 2
M  V30 2 2 2 3
M  V30 3 1 3 4
M  V30 4 1 4 5
M  V30 5 2 5 6
M  V30 6 1 6 7
M  V30 7 2 7 8
M  V30 8 1 8 9
M  V30 9 1 9 10
M  V30 10 2 10 11
M  V30 11 1 11 12
M  V30 12 1 12 13
M  V30 13 1 13 14
M  V30 14 1 14 15
M  V30 15 1 15 16
M  V30 16 1 16 17
M  V30 17 1 11 18
M  V30 18 1 18 19
M  V30 19 2 19 20
M  V30 20 1 19 21
M  V30 21 1 21 22
M  V30 22 1 6 2
M  V30 23 1 22 7
M  V30 24 2 21 9
M  V30 25 1 17 12
M  V30 26 1 1 23
M  V30 27 1 1 24
M  V30 28 1 1 25
M  V30 29 1 4 26
M  V30 30 1 5 27
M  V30 31 1 8 28
M  V30 32 1 13 29
M  V30 33 1 13 30
M  V30 34 1 14 31
M  V30 35 1 14 32
M  V30 36 1 16 33
M  V30 37 1 16 34
M  V30 38 1 17 35
M  V30 39 1 17 36
M  V30 40 1 18 37
M  V30 END BOND
M  V30 END CTAB
M  END
>  <Dataset>  (25) 
ChEMBL_Kinases

>  <Ligand_Instance>  (25) 
nan

>  <PDB_ID>  (25) 
nan

>  <Standardized_SMILES>  (25) 
Cc1n[nH]cc1-c1cc2nc(N3CCOCC3)[nH]c(=O)c2s1

>  <Name>  (25) 
nan

>  <Pocket>  (25) 
nan

>  <ATP_Site>  (25) 
nan

>  <Peripheral>  (25) 
nan

>  <Num_H_Atoms_ProtBoundConf>  (25) 
nan

>  <Num_Resolved_Atoms>  (25) 
nan

>  <Num_Not_Resolved_Atoms>  (25) 
nan

$$$$
CHEMBL4081410
     RDKit          3D

  0  0  0  0  0  0  0  0  0  0999 V3000
M  V30 BEGIN CTAB
M  V30 COUNTS 67 71 0 0 0
M  V30 BEGIN ATOM
M  V30 1 C 4.300083 -0.450029 4.779346 0
M  V30 2 N 5.450614 -1.066010 4.179344 0
M  V30 3 C 5.115427 -2.182760 3.325737 0
M  V30 4 C 4.310545 -1.752363 2.156085 0
M  V30 5 N 4.768673 -0.609962 1.431829 0
M  V30 6 C 3.583634 -0.023405 0.844923 0
M  V30 7 C 3.810268 1.178491 0.044070 0
M  V30 8 O 4.958410 1.669000 -0.123393 0
M  V30 9 N 2.584558 1.706849 -0.508162 0
M  V30 10 C 2.757675 2.901507 -1.311246 0
M  V30 11 C 1.246418 1.212022 -0.366124 0
M  V30 12 C 0.628248 1.786064 0.747851 0
M  V30 13 C -0.669162 1.460999 1.087924 0
M  V30 14 C -1.354198 0.552039 0.304576 0
M  V30 15 N -2.711222 0.173325 0.611697 0
M  V30 16 C -3.499473 -0.765504 -0.148887 0
M  V30 17 C -3.981712 -0.413527 -1.310764 0
M  V30 18 C -3.882336 0.829979 -2.038664 0
M  V30 19 O -3.292956 1.834412 -1.586802 0
M  V30 20 N -4.556602 0.639728 -3.273556 0
M  V30 21 C -5.046507 -0.693980 -3.279421 0
M  V30 22 C -5.750116 -1.342289 -4.270851 0
M  V30 23 C -6.128145 -2.655756 -4.108322 0
M  V30 24 C -5.798046 -3.341221 -2.931505 0
M  V30 25 F -6.235187 -4.622493 -2.916278 0
M  V30 26 C -5.095960 -2.648622 -1.973714 0
M  V30 27 C -4.714758 -1.347463 -2.115458 0
M  V30 28 C -3.653173 -1.912853 0.686222 0
M  V30 29 C -2.539010 -2.660805 1.090332 0
M  V30 30 C -2.523280 -3.742898 1.945493 0
M  V30 31 C -3.750450 -4.116106 2.449270 0
M  V30 32 C -4.933734 -3.478918 2.144643 0
M  V30 33 C -4.818967 -2.415649 1.282463 0
M  V30 34 C -0.726795 -0.005582 -0.793508 0
M  V30 35 C 0.568791 0.306094 -1.150013 0
M  V30 36 C 5.590288 0.318161 2.140497 0
M  V30 37 C 6.251586 -0.186662 3.375129 0
M  V30 38 H 3.372830 -1.048847 4.590491 0
M  V30 39 H 4.399653 -0.382153 5.886092 0
M  V30 40 H 4.188296 0.572029 4.397849 0
M  V30 41 H 6.071936 -2.638877 3.002639 0
M  V30 42 H 4.534688 -2.930160 3.884067 0
M  V30 43 H 4.297782 -2.606845 1.417467 0
M  V30 44 H 3.246512 -1.651401 2.475184 0
M  V30 45 H 3.130352 -0.806343 0.217396 0
M  V30 46 H 2.882823 0.196796 1.658851 0
M  V30 47 H 3.439031 3.572931 -0.710193 0
M  V30 48 H 3.288981 2.616800 -2.232856 0
M  V30 49 H 1.846180 3.486324 -1.468957 0
M  V30 50 H 1.066069 2.503916 1.427147 0
M  V30 51 H -1.193843 1.875310 1.937328 0
M  V30 52 H -3.151963 0.621046 1.457197 0
M  V30 53 H -4.664056 1.354750 -4.025068 0
M  V30 54 H -6.008878 -0.821880 -5.181386 0
M  V30 55 H -6.677933 -3.111167 -4.917979 0
M  V30 56 H -4.912489 -3.325888 -1.172285 0
M  V30 57 H -1.563378 -2.353983 0.681468 0
M  V30 58 H -1.586682 -4.230710 2.173626 0
M  V30 59 H -3.803505 -4.962459 3.129050 0
M  V30 60 H -5.889611 -3.745954 2.518607 0
M  V30 61 H -5.729114 -1.861528 0.997443 0
M  V30 62 H -1.222039 -0.723332 -1.439036 0
M  V30 63 H 1.140717 -0.060721 -1.965730 0
M  V30 64 H 6.431544 0.607845 1.451990 0
M  V30 65 H 5.063596 1.290047 2.329741 0
M  V30 66 H 6.549105 0.672681 4.002244 0
M  V30 67 H 7.200726 -0.742258 3.161623 0
M  V30 END ATOM
M  V30 BEGIN BOND
M  V30 1 1 1 2
M  V30 2 1 2 3
M  V30 3 1 3 4
M  V30 4 1 4 5
M  V30 5 1 5 6
M  V30 6 1 6 7
M  V30 7 2 7 8
M  V30 8 1 7 9
M  V30 9 1 9 10
M  V30 10 1 9 11
M  V30 11 2 11 12
M  V30 12 1 12 13
M  V30 13 2 13 14
M  V30 14 1 14 15
M  V30 15 1 15 16
M  V30 16 2 16 17
M  V30 17 1 17 18
M  V30 18 2 18 19
M  V30 19 1 18 20
M  V30 20 1 20 21
M  V30 21 2 21 22
M  V30 22 1 22 23
M  V30 23 2 23 24
M  V30 24 1 24 25
M  V30 25 1 24 26
M  V30 26 2 26 27
M  V30 27 1 16 28
M  V30 28 2 28 29
M  V30 29 1 29 30
M  V30 30 2 30 31
M  V30 31 1 31 32
M  V30 32 2 32 33
M  V30 33 1 14 34
M  V30 34 2 34 35
M  V30 35 1 5 36
M  V30 36 1 36 37
M  V30 37 1 37 2
M  V30 38 1 35 11
M  V30 39 1 27 17
M  V30 40 1 33 28
M  V30 41 1 27 21
M  V30 42 1 1 38
M  V30 43 1 1 39
M  V30 44 1 1 40
M  V30 45 1 3 41
M  V30 46 1 3 42
M  V30 47 1 4 43
M  V30 48 1 4 44
M  V30 49 1 6 45
M  V30 50 1 6 46
M  V30 51 1 10 47
M  V30 52 1 10 48
M  V30 53 1 10 49
M  V30 54 1 12 50
M  V30 55 1 13 51
M  V30 56 1 15 52
M  V30 57 1 20 53
M  V30 58 1 22 54
M  V30 59 1 23 55
M  V30 60 1 26 56
M  V30 61 1 29 57
M  V30 62 1 30 58
M  V30 63 1 31 59
M  V30 64 1 32 60
M  V30 65 1 33 61
M  V30 66 1 34 62
M  V30 67 1 35 63
M  V30 68 1 36 64
M  V30 69 1 36 65
M  V30 70 1 37 66
M  V30 71 1 37 67
M  V30 END BOND
M  V30 END CTAB
M  END
>  <Dataset>  (26) 
ChEMBL_Kinases

>  <Ligand_Instance>  (26) 
nan

>  <PDB_ID>  (26) 
nan

>  <Standardized_SMILES>  (26) 
CN1CCN(CC(=O)N(C)c2ccc(N/C(=C3\C(=O)Nc4ccc(F)cc43)c3ccccc3)cc2)CC1

>  <Name>  (26) 
nan

>  <Pocket>  (26) 
nan

>  <ATP_Site>  (26) 
nan

>  <Peripheral>  (26) 
nan

>  <Num_H_Atoms_ProtBoundConf>  (26) 
nan

>  <Num_Resolved_Atoms>  (26) 
nan

>  <Num_Not_Resolved_Atoms>  (26) 
nan

$$$$
CHEMBL4081408
     RDKit          3D

  0  0  0  0  0  0  0  0  0  0999 V3000
M  V30 BEGIN CTAB
M  V30 COUNTS 46 49 0 0 0
M  V30 BEGIN ATOM
M  V30 1 C 1.296599 -4.218203 1.728156 0
M  V30 2 N 0.103929 -3.455759 1.481656 0
M  V30 3 C 0.177242 -2.227328 0.890671 0
M  V30 4 N 1.421464 -1.665508 0.501363 0
M  V30 5 C 1.791837 -1.984077 -0.867190 0
M  V30 6 C 2.965126 -1.205709 -1.349538 0
M  V30 7 N 2.839709 0.158096 -0.934208 0
M  V30 8 C 2.869391 0.328847 0.499098 0
M  V30 9 C 2.251185 1.615078 0.919192 0
M  V30 10 C 1.052422 2.064879 0.400049 0
M  V30 11 C 0.490584 3.255416 0.795627 0
M  V30 12 C 1.098149 4.066663 1.736407 0
M  V30 13 Br 0.444174 5.729462 2.377340 0
M  V30 14 C 2.296192 3.642553 2.271840 0
M  V30 15 C 2.843188 2.457663 1.869949 0
M  V30 16 C 2.343683 -0.847927 1.251498 0
M  V30 17 N -0.974143 -1.530180 0.671093 0
M  V30 18 C -2.172434 -1.982922 1.002753 0
M  V30 19 C -3.347536 -1.166962 0.727543 0
M  V30 20 C -3.290288 0.067426 0.132937 0
M  V30 21 C -4.362101 0.886492 -0.153507 0
M  V30 22 N -5.596350 0.415722 0.191392 0
M  V30 23 C -5.677197 -0.792653 0.775882 0
M  V30 24 N -4.604079 -1.590030 1.051805 0
M  V30 25 C -2.304437 -3.198015 1.593179 0
M  V30 26 C -1.132508 -3.906791 1.816176 0
M  V30 27 O -1.183861 -5.050476 2.364688 0
M  V30 28 H 1.778315 -4.641605 0.842081 0
M  V30 29 H 0.987554 -5.116489 2.337642 0
M  V30 30 H 2.011370 -3.695743 2.429800 0
M  V30 31 H 1.909662 -3.082926 -0.977985 0
M  V30 32 H 0.915125 -1.670083 -1.487017 0
M  V30 33 H 3.917276 -1.664620 -1.032528 0
M  V30 34 H 2.914154 -1.202170 -2.466970 0
M  V30 35 H 3.418882 0.823429 -1.446933 0
M  V30 36 H 3.944374 0.453194 0.750453 0
M  V30 37 H 0.529268 1.484480 -0.332635 0
M  V30 38 H -0.452955 3.635850 0.404314 0
M  V30 39 H 2.891020 4.171223 3.019610 0
M  V30 40 H 3.790245 2.067498 2.257362 0
M  V30 41 H 1.934528 -0.455106 2.202953 0
M  V30 42 H 3.201074 -1.518673 1.471591 0
M  V30 43 H -2.315349 0.480151 -0.159301 0
M  V30 44 H -4.234996 1.851462 -0.626255 0
M  V30 45 H -6.619934 -1.262753 1.092204 0
M  V30 46 H -3.271258 -3.569344 1.863663 0
M  V30 END ATOM
M  V30 BEGIN BOND
M  V30 1 1 1 2
M  V30 2 1 2 3
M  V30 3 1 3 4
M  V30 4 1 4 5
M  V30 5 1 5 6
M  V30 6 1 6 7
M  V30 7 1 7 8
M  V30 8 1 8 9
M  V30 9 2 9 10
M  V30 10 1 10 11
M  V30 11 2 11 12
M  V30 12 1 12 13
M  V30 13 1 12 14
M  V30 14 2 14 15
M  V30 15 1 8 16
M  V30 16 2 3 17
M  V30 17 1 17 18
M  V30 18 1 18 19
M  V30 19 2 19 20
M  V30 20 1 20 21
M  V30 21 2 21 22
M  V30 22 1 22 23
M  V30 23 2 23 24
M  V30 24 2 18 25
M  V30 25 1 25 26
M  V30 26 2 26 27
M  V30 27 1 26 2
M  V30 28 1 16 4
M  V30 29 1 24 19
M  V30 30 1 15 9
M  V30 31 1 1 28
M  V30 32 1 1 29
M  V30 33 1 1 30
M  V30 34 1 5 31
M  V30 35 1 5 32
M  V30 36 1 6 33
M  V30 37 1 6 34
M  V30 38 1 7 35
M  V30 39 1 8 36
M  V30 40 1 10 37
M  V30 41 1 11 38
M  V30 42 1 14 39
M  V30 43 1 15 40
M  V30 44 1 16 41
M  V30 45 1 16 42
M  V30 46 1 20 43
M  V30 47 1 21 44
M  V30 48 1 23 45
M  V30 49 1 25 46
M  V30 END BOND
M  V30 END CTAB
M  END
>  <Dataset>  (27) 
ChEMBL_Kinases

>  <Ligand_Instance>  (27) 
nan

>  <PDB_ID>  (27) 
nan

>  <Standardized_SMILES>  (27) 
Cn1c(N2CCNC(c3ccc(Br)cc3)C2)nc(-c2ccncn2)cc1=O

>  <Name>  (27) 
nan

>  <Pocket>  (27) 
nan

>  <ATP_Site>  (27) 
nan

>  <Peripheral>  (27) 
nan

>  <Num_H_Atoms_ProtBoundConf>  (27) 
nan

>  <Num_Resolved_Atoms>  (27) 
nan

>  <Num_Not_Resolved_Atoms>  (27) 
nan

$$$$
CHEMBL4854144
     RDKit          3D

  0  0  0  0  0  0  0  0  0  0999 V3000
M  V30 BEGIN CTAB
M  V30 COUNTS 46 48 0 0 0
M  V30 BEGIN ATOM
M  V30 1 C 1.585627 -3.402368 1.789742 0
M  V30 2 N 0.327364 -3.915344 2.250307 0
M  V30 3 C -0.748694 -3.723888 1.332072 0
M  V30 4 C -1.172638 -2.302028 1.151018 0 CFG=1
M  V30 5 N -0.177024 -1.462017 0.659307 0
M  V30 6 C 0.835883 -0.608108 0.158159 0
M  V30 7 N 1.551244 -0.667757 -0.976610 0
M  V30 8 C 2.494340 0.206557 -1.302014 0
M  V30 9 C 3.200274 -0.004660 -2.595101 0
M  V30 10 N 2.739549 1.196438 -0.450701 0
M  V30 11 C 2.091922 1.353314 0.702728 0
M  V30 12 C 2.399748 2.423815 1.550585 0
M  V30 13 C 3.448179 3.269645 1.031801 0
M  V30 14 N 3.727988 4.359126 1.927400 0
M  V30 15 O 4.338698 3.869851 0.449716 0
M  V30 16 C 1.748134 2.615649 2.741867 0
M  V30 17 C 0.773071 1.713472 3.081346 0
M  V30 18 C 0.512437 0.683889 2.214216 0
M  V30 19 C 1.109507 0.427520 1.023495 0
M  V30 20 C -2.530988 -2.159137 0.523687 0
M  V30 21 C -2.856719 -0.796065 0.506086 0
M  V30 22 C -4.069984 -0.372079 -0.023683 0
M  V30 23 C -4.957256 -1.295710 -0.534642 0
M  V30 24 C -4.613139 -2.632605 -0.505950 0
M  V30 25 F -5.399748 -3.635195 -0.979313 0
M  V30 26 C -3.408266 -3.088242 0.017139 0
M  V30 27 H 1.587398 -3.327232 0.689227 0
M  V30 28 H 2.423678 -4.097033 2.061234 0
M  V30 29 H 1.803553 -2.383521 2.189719 0
M  V30 30 H 0.029163 -3.571743 3.183965 0
M  V30 31 H -1.607515 -4.407076 1.525181 0
M  V30 32 H -0.383326 -4.058589 0.314285 0
M  V30 33 H -1.417037 -1.980112 2.245289 0
M  V30 34 H -0.253360 -2.107903 -0.194627 0
M  V30 35 H 3.619681 0.949353 -2.928675 0
M  V30 36 H 2.560134 -0.522988 -3.336625 0
M  V30 37 H 4.051646 -0.692943 -2.379142 0
M  V30 38 H 4.061383 5.103194 2.563064 0
M  V30 39 H 3.046119 5.036547 2.341212 0
M  V30 40 H 2.024784 3.456146 3.355872 0
M  V30 41 H 0.252285 1.855340 4.016584 0
M  V30 42 H -0.268570 0.027342 2.555864 0
M  V30 43 H -2.273349 0.050825 0.867001 0
M  V30 44 H -4.386475 0.680996 -0.066827 0
M  V30 45 H -5.913648 -1.040610 -0.959515 0
M  V30 46 H -3.017758 -4.070539 0.102158 0
M  V30 END ATOM
M  V30 BEGIN BOND
M  V30 1 1 1 2
M  V30 2 1 2 3
M  V30 3 1 3 4
M  V30 4 1 4 5
M  V30 5 1 5 6
M  V30 6 2 6 7
M  V30 7 1 7 8
M  V30 8 1 8 9
M  V30 9 2 8 10
M  V30 10 1 10 11
M  V30 11 2 11 12
M  V30 12 1 12 13
M  V30 13 1 13 14
M  V30 14 2 13 15
M  V30 15 1 12 16
M  V30 16 2 16 17
M  V30 17 1 17 18
M  V30 18 2 18 19
M  V30 19 1 4 20
M  V30 20 2 20 21
M  V30 21 1 21 22
M  V30 22 2 22 23
M  V30 23 1 23 24
M  V30 24 1 24 25
M  V30 25 2 24 26
M  V30 26 1 19 6
M  V30 27 1 26 20
M  V30 28 1 19 11
M  V30 29 1 1 27
M  V30 30 1 1 28
M  V30 31 1 1 29
M  V30 32 1 2 30
M  V30 33 1 3 31
M  V30 34 1 3 32
M  V30 35 1 4 33 CFG=1
M  V30 36 1 5 34
M  V30 37 1 9 35
M  V30 38 1 9 36
M  V30 39 1 9 37
M  V30 40 1 14 38
M  V30 41 1 14 39
M  V30 42 1 16 40
M  V30 43 1 17 41
M  V30 44 1 18 42
M  V30 45 1 21 43
M  V30 46 1 22 44
M  V30 47 1 23 45
M  V30 48 1 26 46
M  V30 END BOND
M  V30 END CTAB
M  END
>  <Dataset>  (28) 
ChEMBL_Kinases

>  <Ligand_Instance>  (28) 
nan

>  <PDB_ID>  (28) 
nan

>  <Standardized_SMILES>  (28) 
CNC[C@@H](Nc1nc(C)nc2c(C(N)=O)cccc12)c1cccc(F)c1

>  <Name>  (28) 
nan

>  <Pocket>  (28) 
nan

>  <ATP_Site>  (28) 
nan

>  <Peripheral>  (28) 
nan

>  <Num_H_Atoms_ProtBoundConf>  (28) 
nan

>  <Num_Resolved_Atoms>  (28) 
nan

>  <Num_Not_Resolved_Atoms>  (28) 
nan

$$$$
CHEMBL4081138
     RDKit          3D

  0  0  0  0  0  0  0  0  0  0999 V3000
M  V30 BEGIN CTAB
M  V30 COUNTS 24 26 0 0 0
M  V30 BEGIN ATOM
M  V30 1 O -0.004455 -4.409285 0.982379 0
M  V30 2 C 0.845301 -3.490222 1.270641 0
M  V30 3 N 1.901131 -3.861923 2.093701 0
M  V30 4 C 2.819660 -2.826035 2.390479 0
M  V30 5 S 4.247538 -2.534696 3.122726 0
M  V30 6 S 2.153038 -1.309890 1.710859 0
M  V30 7 C 0.802133 -2.118923 0.819617 0
M  V30 8 C -0.027194 -1.642660 -0.062247 0
M  V30 9 C -0.001530 -0.254906 -0.451309 0
M  V30 10 C 0.098233 -0.084604 -1.952833 0
M  V30 11 S 0.098952 1.774040 -2.199104 0
M  V30 12 C -0.022765 2.164072 -0.467660 0
M  V30 13 C -0.090082 3.365465 0.145324 0
M  V30 14 C -0.204856 3.454526 1.530176 0
M  V30 15 C -0.238552 2.229192 2.150719 0
M  V30 16 C -0.169886 1.003109 1.535145 0
M  V30 17 C -0.055373 0.949080 0.167234 0
M  V30 18 H 2.173464 -4.759908 2.552228 0
M  V30 19 H -0.753201 -2.312883 -0.507068 0
M  V30 20 H 0.157073 -0.922435 -2.723763 0
M  V30 21 H -0.051438 4.221852 -0.476848 0
M  V30 22 H -0.257847 4.406320 2.017431 0
M  V30 23 H -0.330930 2.341957 3.244859 0
M  V30 24 H -0.236273 0.210502 2.261324 0
M  V30 END ATOM
M  V30 BEGIN BOND
M  V30 1 2 1 2
M  V30 2 1 2 3
M  V30 3 1 3 4
M  V30 4 2 4 5
M  V30 5 1 4 6
M  V30 6 1 6 7
M  V30 7 2 7 8
M  V30 8 1 8 9
M  V30 9 2 9 10
M  V30 10 1 10 11
M  V30 11 1 11 12
M  V30 12 2 12 13
M  V30 13 1 13 14
M  V30 14 2 14 15
M  V30 15 1 15 16
M  V30 16 2 16 17
M  V30 17 1 7 2
M  V30 18 1 17 9
M  V30 19 1 17 12
M  V30 20 1 3 18
M  V30 21 1 8 19
M  V30 22 1 10 20
M  V30 23 1 13 21
M  V30 24 1 14 22
M  V30 25 1 15 23
M  V30 26 1 16 24
M  V30 END BOND
M  V30 END CTAB
M  END
>  <Dataset>  (29) 
ChEMBL_Kinases

>  <Ligand_Instance>  (29) 
nan

>  <PDB_ID>  (29) 
nan

>  <Standardized_SMILES>  (29) 
O=C1NC(=S)S/C1=C\c1csc2ccccc12

>  <Name>  (29) 
nan

>  <Pocket>  (29) 
nan

>  <ATP_Site>  (29) 
nan

>  <Peripheral>  (29) 
nan

>  <Num_H_Atoms_ProtBoundConf>  (29) 
nan

>  <Num_Resolved_Atoms>  (29) 
nan

>  <Num_Not_Resolved_Atoms>  (29) 
nan

$$$$
CHEMBL4081134
     RDKit          3D

  0  0  0  0  0  0  0  0  0  0999 V3000
M  V30 BEGIN CTAB
M  V30 COUNTS 42 45 0 0 0
M  V30 BEGIN ATOM
M  V30 1 C 0.581317 -5.834004 1.308661 0
M  V30 2 C 1.044969 -4.538356 0.698098 0
M  V30 3 C 0.243733 -4.209584 -0.501699 0
M  V30 4 N 2.469305 -4.564545 0.483524 0
M  V30 5 C 3.372746 -5.436860 1.011665 0
M  V30 6 N 4.635180 -5.149223 0.580177 0
M  V30 7 N 4.509619 -4.093879 -0.218334 0
M  V30 8 C 3.199392 -3.740528 -0.276535 0
M  V30 9 C 2.681788 -2.583008 -1.089703 0
M  V30 10 N 2.205109 -1.634079 -0.708131 0
M  V30 11 C 1.733621 -0.585201 -1.395753 0
M  V30 12 C 1.123652 0.623907 -0.857401 0
M  V30 13 O 0.695690 1.582695 -1.547318 0
M  V30 14 N 0.954295 0.831780 0.527620 0
M  V30 15 C 0.347325 2.041988 0.995175 0
M  V30 16 C 1.065071 3.184914 1.294908 0
M  V30 17 N 0.183193 4.127501 1.704016 0
M  V30 18 N -1.043086 3.636882 1.676224 0
M  V30 19 C -2.365564 4.135592 1.986718 0
M  V30 20 C -2.877453 3.431881 3.249736 0
M  V30 21 O -3.433678 4.631286 3.645882 0
M  V30 22 C -2.421976 5.298832 2.918328 0
M  V30 23 C -0.983317 2.359255 1.246454 0
M  V30 24 C 1.860802 -0.698883 -2.844661 0
M  V30 25 S 2.688367 -2.402304 -2.966484 0
M  V30 26 H -0.519403 -5.944219 1.162487 0
M  V30 27 H 1.088597 -6.701256 0.847011 0
M  V30 28 H 0.784808 -5.807568 2.412670 0
M  V30 29 H 0.869072 -3.726420 1.452881 0
M  V30 30 H -0.141281 -3.147861 -0.490709 0
M  V30 31 H 0.731481 -4.457270 -1.463784 0
M  V30 32 H -0.688043 -4.814665 -0.482228 0
M  V30 33 H 3.167053 -6.258668 1.683528 0
M  V30 34 H 1.285010 0.076468 1.199950 0
M  V30 35 H 2.140206 3.398684 1.247608 0
M  V30 36 H -3.088552 4.181948 1.169052 0
M  V30 37 H -2.037854 3.088784 3.895366 0
M  V30 38 H -3.597322 2.638154 2.970706 0
M  V30 39 H -1.536999 5.485624 3.526420 0
M  V30 40 H -2.908832 6.216232 2.482626 0
M  V30 41 H -1.713533 1.564619 1.063457 0
M  V30 42 H 1.560383 -0.001188 -3.566496 0
M  V30 END ATOM
M  V30 BEGIN BOND
M  V30 1 1 1 2
M  V30 2 1 2 3
M  V30 3 1 2 4
M  V30 4 1 4 5
M  V30 5 2 5 6
M  V30 6 1 6 7
M  V30 7 2 7 8
M  V30 8 1 8 9
M  V30 9 2 9 10
M  V30 10 1 10 11
M  V30 11 1 11 12
M  V30 12 2 12 13
M  V30 13 1 12 14
M  V30 14 1 14 15
M  V30 15 1 15 16
M  V30 16 2 16 17
M  V30 17 1 17 18
M  V30 18 1 18 19
M  V30 19 1 19 20
M  V30 20 1 20 21
M  V30 21 1 21 22
M  V30 22 1 18 23
M  V30 23 2 11 24
M  V30 24 1 24 25
M  V30 25 1 8 4
M  V30 26 1 25 9
M  V30 27 2 23 15
M  V30 28 1 22 19
M  V30 29 1 1 26
M  V30 30 1 1 27
M  V30 31 1 1 28
M  V30 32 1 2 29
M  V30 33 1 3 30
M  V30 34 1 3 31
M  V30 35 1 3 32
M  V30 36 1 5 33
M  V30 37 1 14 34
M  V30 38 1 16 35
M  V30 39 1 19 36
M  V30 40 1 20 37
M  V30 41 1 20 38
M  V30 42 1 22 39
M  V30 43 1 22 40
M  V30 44 1 23 41
M  V30 45 1 24 42
M  V30 END BOND
M  V30 END CTAB
M  END
>  <Dataset>  (30) 
ChEMBL_Kinases

>  <Ligand_Instance>  (30) 
nan

>  <PDB_ID>  (30) 
nan

>  <Standardized_SMILES>  (30) 
CC(C)n1cnnc1-c1nc(C(=O)Nc2cnn(C3COC3)c2)cs1

>  <Name>  (30) 
nan

>  <Pocket>  (30) 
nan

>  <ATP_Site>  (30) 
nan

>  <Peripheral>  (30) 
nan

>  <Num_H_Atoms_ProtBoundConf>  (30) 
nan

>  <Num_Resolved_Atoms>  (30) 
nan

>  <Num_Not_Resolved_Atoms>  (30) 
nan

$$$$
CHEMBL4081097
     RDKit          3D

  0  0  0  0  0  0  0  0  0  0999 V3000
M  V30 BEGIN CTAB
M  V30 COUNTS 45 48 0 0 0
M  V30 BEGIN ATOM
M  V30 1 N -0.453555 -4.942913 3.432444 0
M  V30 2 C 0.728426 -4.292542 3.897718 0
M  V30 3 O 1.396433 -4.772776 4.839604 0
M  V30 4 C 1.150763 -3.058200 3.261579 0
M  V30 5 C 2.277416 -2.464687 3.726082 0
M  V30 6 N 2.720356 -1.329108 3.186646 0
M  V30 7 C 2.099567 -0.685330 2.154228 0
M  V30 8 N 2.599809 0.512739 1.590659 0
M  V30 9 C 2.274373 1.474011 0.607468 0 CFG=1
M  V30 10 C 1.046835 2.257892 1.063274 0
M  V30 11 C 0.531672 2.954618 -0.172181 0
M  V30 12 C 1.690921 3.628080 -0.884157 0
M  V30 13 N 2.832107 3.780472 0.001188 0
M  V30 14 C 3.363016 2.523780 0.474072 0
M  V30 15 C 0.957666 -1.327698 1.715436 0
M  V30 16 C 0.051899 -1.025269 0.712441 0
M  V30 17 C -0.939189 -1.982670 0.650857 0
M  V30 18 C -2.073087 -2.023309 -0.266666 0
M  V30 19 C -2.937165 -3.090435 -0.133650 0
M  V30 20 C -4.024482 -3.141786 -1.003526 0
M  V30 21 C -4.184048 -2.137356 -1.943947 0
M  V30 22 C -3.294927 -1.067609 -2.058083 0
M  V30 23 C -2.211619 -1.013376 -1.193883 0
M  V30 24 O -0.651445 -2.850274 1.588768 0
M  V30 25 C 0.442026 -2.498984 2.222483 0
M  V30 26 H -0.545366 -5.390796 2.482415 0
M  V30 27 H -1.396324 -5.120339 3.846339 0
M  V30 28 H 2.892795 -2.833694 4.534546 0
M  V30 29 H 3.519400 0.770687 2.062565 0
M  V30 30 H 2.041362 1.027448 -0.390361 0
M  V30 31 H 0.321433 1.685484 1.622072 0
M  V30 32 H 1.387913 3.079190 1.759714 0
M  V30 33 H 0.104726 2.172188 -0.835777 0
M  V30 34 H -0.244180 3.683515 0.131141 0
M  V30 35 H 1.961851 3.085449 -1.811879 0
M  V30 36 H 1.365331 4.635528 -1.166777 0
M  V30 37 H 3.547195 4.307527 -0.542600 0
M  V30 38 H 3.699950 2.735235 1.531194 0
M  V30 39 H 4.250384 2.168220 -0.075565 0
M  V30 40 H 0.073725 -0.191242 0.053720 0
M  V30 41 H -2.768258 -3.848028 0.616347 0
M  V30 42 H -4.687952 -3.973712 -0.891309 0
M  V30 43 H -5.066445 -2.283121 -2.566270 0
M  V30 44 H -3.502553 -0.323931 -2.829344 0
M  V30 45 H -1.519925 -0.185883 -1.278884 0
M  V30 END ATOM
M  V30 BEGIN BOND
M  V30 1 1 1 2
M  V30 2 2 2 3
M  V30 3 1 2 4
M  V30 4 2 4 5
M  V30 5 1 5 6
M  V30 6 2 6 7
M  V30 7 1 7 8
M  V30 8 1 8 9
M  V30 9 1 9 10
M  V30 10 1 10 11
M  V30 11 1 11 12
M  V30 12 1 12 13
M  V30 13 1 13 14
M  V30 14 1 7 15
M  V30 15 1 15 16
M  V30 16 2 16 17
M  V30 17 1 17 18
M  V30 18 2 18 19
M  V30 19 1 19 20
M  V30 20 2 20 21
M  V30 21 1 21 22
M  V30 22 2 22 23
M  V30 23 1 17 24
M  V30 24 1 24 25
M  V30 25 1 25 4
M  V30 26 1 14 9
M  V30 27 2 25 15
M  V30 28 1 23 18
M  V30 29 1 1 26
M  V30 30 1 1 27
M  V30 31 1 5 28
M  V30 32 1 8 29
M  V30 33 1 9 30 CFG=3
M  V30 34 1 10 31
M  V30 35 1 10 32
M  V30 36 1 11 33
M  V30 37 1 11 34
M  V30 38 1 12 35
M  V30 39 1 12 36
M  V30 40 1 13 37
M  V30 41 1 14 38
M  V30 42 1 14 39
M  V30 43 1 16 40
M  V30 44 1 19 41
M  V30 45 1 20 42
M  V30 46 1 21 43
M  V30 47 1 22 44
M  V30 48 1 23 45
M  V30 END BOND
M  V30 END CTAB
M  END
>  <Dataset>  (31) 
ChEMBL_Kinases

>  <Ligand_Instance>  (31) 
nan

>  <PDB_ID>  (31) 
nan

>  <Standardized_SMILES>  (31) 
NC(=O)c1cnc(N[C@H]2CCCNC2)c2cc(-c3ccccc3)oc12

>  <Name>  (31) 
nan

>  <Pocket>  (31) 
nan

>  <ATP_Site>  (31) 
nan

>  <Peripheral>  (31) 
nan

>  <Num_H_Atoms_ProtBoundConf>  (31) 
nan

>  <Num_Resolved_Atoms>  (31) 
nan

>  <Num_Not_Resolved_Atoms>  (31) 
nan

$$$$
CHEMBL4854154
     RDKit          3D

  0  0  0  0  0  0  0  0  0  0999 V3000
M  V30 BEGIN CTAB
M  V30 COUNTS 58 60 0 0 0
M  V30 BEGIN ATOM
M  V30 1 C -0.863343 0.472617 -0.209094 0
M  V30 2 C -0.346491 -0.362647 0.877175 0
M  V30 3 C 0.893228 -0.153403 1.440832 0
M  V30 4 C 1.344800 -0.974319 2.478832 0
M  V30 5 N 2.644808 -0.693148 3.012681 0
M  V30 6 C 2.724852 0.212145 4.093409 0
M  V30 7 O 1.725317 0.776159 4.603728 0
M  V30 8 C 4.085104 0.497683 4.641615 0 CFG=2
M  V30 9 N 3.920547 1.443159 5.732970 0
M  V30 10 C 5.001934 1.005889 3.589364 0
M  V30 11 C 5.992353 0.225776 3.025230 0
M  V30 12 C 6.823197 0.745529 2.045962 0
M  V30 13 C 6.685831 2.055257 1.606401 0
M  V30 14 C 5.677024 2.828812 2.190046 0
M  V30 15 C 4.838695 2.316936 3.172739 0
M  V30 16 C 0.524368 -1.988176 2.918315 0
M  V30 17 C -0.719016 -2.201830 2.356444 0
M  V30 18 C -1.166945 -1.378265 1.318110 0
M  V30 19 C -2.495990 -1.727471 0.824254 0
M  V30 20 C -3.485914 -1.965283 1.768962 0
M  V30 21 N -4.730087 -2.293722 1.369431 0
M  V30 22 C -5.041322 -2.398685 0.043624 0
M  V30 23 N -6.394979 -2.752540 -0.202286 0
M  V30 24 C -4.078450 -2.168201 -0.917529 0
M  V30 25 C -4.488290 -2.299821 -2.309597 0
M  V30 26 O -5.663092 -2.607566 -2.553898 0
M  V30 27 N -3.573803 -2.083616 -3.377245 0
M  V30 28 C -3.713533 -2.146019 -4.792965 0
M  V30 29 C -2.835234 -3.193573 -5.439134 0
M  V30 30 C -3.482771 -0.774745 -5.404205 0
M  V30 31 C -2.809919 -1.833484 -0.515211 0
M  V30 32 H -1.961881 0.523233 -0.262843 0
M  V30 33 H -0.415172 1.497243 -0.049435 0
M  V30 34 H -0.487025 0.161631 -1.204485 0
M  V30 35 H 1.517171 0.652087 1.074784 0
M  V30 36 H 3.500145 -1.155895 2.599554 0
M  V30 37 H 4.523766 -0.446487 5.080154 0
M  V30 38 H 4.836055 1.968443 5.826254 0
M  V30 39 H 3.255507 2.177563 5.358545 0
M  V30 40 H 6.067954 -0.787621 3.393197 0
M  V30 41 H 7.588028 0.100145 1.629022 0
M  V30 42 H 7.349977 2.433888 0.839638 0
M  V30 43 H 5.637888 3.837183 1.790965 0
M  V30 44 H 4.096919 3.015858 3.545649 0
M  V30 45 H 0.897357 -2.610097 3.723577 0
M  V30 46 H -1.283688 -3.034100 2.783684 0
M  V30 47 H -3.250995 -1.884877 2.836054 0
M  V30 48 H -6.656469 -3.731788 -0.459990 0
M  V30 49 H -6.956743 -1.864099 -0.065408 0
M  V30 50 H -2.577067 -1.823083 -3.212810 0
M  V30 51 H -4.760511 -2.421503 -5.039124 0
M  V30 52 H -1.780069 -3.144234 -5.127822 0
M  V30 53 H -3.310828 -4.162199 -5.269550 0
M  V30 54 H -2.837645 -2.967443 -6.525497 0
M  V30 55 H -4.419792 -0.199578 -5.372396 0
M  V30 56 H -3.014944 -0.842485 -6.405528 0
M  V30 57 H -2.759517 -0.260605 -4.729477 0
M  V30 58 H -2.046692 -1.652481 -1.258404 0
M  V30 END ATOM
M  V30 BEGIN BOND
M  V30 1 1 1 2
M  V30 2 2 2 3
M  V30 3 1 3 4
M  V30 4 1 4 5
M  V30 5 1 5 6
M  V30 6 2 6 7
M  V30 7 1 6 8
M  V30 8 1 8 9
M  V30 9 1 8 10
M  V30 10 2 10 11
M  V30 11 1 11 12
M  V30 12 2 12 13
M  V30 13 1 13 14
M  V30 14 2 14 15
M  V30 15 2 4 16
M  V30 16 1 16 17
M  V30 17 2 17 18
M  V30 18 1 18 19
M  V30 19 2 19 20
M  V30 20 1 20 21
M  V30 21 2 21 22
M  V30 22 1 22 23
M  V30 23 1 22 24
M  V30 24 1 24 25
M  V30 25 2 25 26
M  V30 26 1 25 27
M  V30 27 1 27 28
M  V30 28 1 28 29
M  V30 29 1 28 30
M  V30 30 2 24 31
M  V30 31 1 18 2
M  V30 32 1 31 19
M  V30 33 1 15 10
M  V30 34 1 1 32
M  V30 35 1 1 33
M  V30 36 1 1 34
M  V30 37 1 3 35
M  V30 38 1 5 36
M  V30 39 1 8 37 CFG=1
M  V30 40 1 9 38
M  V30 41 1 9 39
M  V30 42 1 11 40
M  V30 43 1 12 41
M  V30 44 1 13 42
M  V30 45 1 14 43
M  V30 46 1 15 44
M  V30 47 1 16 45
M  V30 48 1 17 46
M  V30 49 1 20 47
M  V30 50 1 23 48
M  V30 51 1 23 49
M  V30 52 1 27 50
M  V30 53 1 28 51
M  V30 54 1 29 52
M  V30 55 1 29 53
M  V30 56 1 29 54
M  V30 57 1 30 55
M  V30 58 1 30 56
M  V30 59 1 30 57
M  V30 60 1 31 58
M  V30 END BOND
M  V30 END CTAB
M  END
>  <Dataset>  (32) 
ChEMBL_Kinases

>  <Ligand_Instance>  (32) 
nan

>  <PDB_ID>  (32) 
nan

>  <Standardized_SMILES>  (32) 
Cc1cc(NC(=O)[C@H](N)c2ccccc2)ccc1-c1cnc(N)c(C(=O)NC(C)C)c1

>  <Name>  (32) 
nan

>  <Pocket>  (32) 
nan

>  <ATP_Site>  (32) 
nan

>  <Peripheral>  (32) 
nan

>  <Num_H_Atoms_ProtBoundConf>  (32) 
nan

>  <Num_Resolved_Atoms>  (32) 
nan

>  <Num_Not_Resolved_Atoms>  (32) 
nan

$$$$
CHEMBL4081088
     RDKit          3D

  0  0  0  0  0  0  0  0  0  0999 V3000
M  V30 BEGIN CTAB
M  V30 COUNTS 55 58 0 0 0
M  V30 BEGIN ATOM
M  V30 1 C 0.372353 4.611341 4.803811 0
M  V30 2 N 1.512115 4.183944 4.015855 0
M  V30 3 C 1.843177 4.479235 2.760841 0
M  V30 4 C 3.017826 3.835451 2.446154 0
M  V30 5 C 3.772817 3.849901 1.196640 0
M  V30 6 C 4.748451 4.803561 0.999600 0
M  V30 7 F 4.971585 5.706173 1.992136 0
M  V30 8 C 5.497918 4.868863 -0.162764 0
M  V30 9 N 5.225310 3.943254 -1.106466 0
M  V30 10 C 4.271350 3.011305 -0.913094 0
M  V30 11 C 3.500781 2.904501 0.221973 0
M  V30 12 C 2.475537 1.884433 0.401470 0
M  V30 13 C 2.146375 0.943676 -0.468123 0
M  V30 14 C 1.092607 -0.022761 -0.159452 0
M  V30 15 O 0.510246 0.062689 0.947663 0
M  V30 16 N 0.748498 -1.026135 -1.098446 0
M  V30 17 C -0.312616 -1.865571 -0.585610 0
M  V30 18 C -0.064589 -3.023289 0.157742 0
M  V30 19 C -1.148840 -3.769799 0.610901 0
M  V30 20 C -2.447520 -3.388299 0.340316 0
M  V30 21 C -3.648704 -4.114072 0.777840 0
M  V30 22 N -4.163182 -5.102617 -0.065728 0
M  V30 23 C -4.582889 -4.755407 -1.372271 0
M  V30 24 C -3.575509 -5.229765 -2.408755 0
M  V30 25 O -3.466325 -6.613757 -2.275353 0
M  V30 26 C -2.914105 -6.984409 -1.070703 0
M  V30 27 C -3.761799 -6.446118 0.064674 0
M  V30 28 C -2.640917 -2.231861 -0.401065 0
M  V30 29 C -1.594027 -1.451470 -0.876575 0
M  V30 30 C 3.350338 3.147427 3.594326 0
M  V30 31 N 2.422032 3.366844 4.551003 0
M  V30 32 H -0.275925 5.223721 4.147023 0
M  V30 33 H 0.675866 5.114664 5.735011 0
M  V30 34 H -0.215596 3.684028 5.011430 0
M  V30 35 H 1.289711 5.115790 2.094250 0
M  V30 36 H 6.263546 5.616716 -0.318060 0
M  V30 37 H 4.137707 2.330447 -1.720120 0
M  V30 38 H 1.925399 1.887203 1.329532 0
M  V30 39 H 2.690489 0.933717 -1.397152 0
M  V30 40 H 1.283250 -1.023679 -1.993057 0
M  V30 41 H 0.953985 -3.299541 0.355449 0
M  V30 42 H -0.990696 -4.670882 1.188721 0
M  V30 43 H -3.440846 -4.579742 1.770609 0
M  V30 44 H -4.499858 -3.406067 1.009876 0
M  V30 45 H -4.882164 -3.718127 -1.504378 0
M  V30 46 H -5.505526 -5.372533 -1.583815 0
M  V30 47 H -3.969235 -5.045004 -3.416482 0
M  V30 48 H -2.567948 -4.819369 -2.217170 0
M  V30 49 H -3.011460 -8.107724 -1.024469 0
M  V30 50 H -1.840046 -6.740133 -0.955545 0
M  V30 51 H -3.346373 -6.697791 1.050803 0
M  V30 52 H -4.712032 -7.059797 0.017995 0
M  V30 53 H -3.632993 -1.848666 -0.666161 0
M  V30 54 H -1.768907 -0.552115 -1.453669 0
M  V30 55 H 4.226437 2.516680 3.728084 0
M  V30 END ATOM
M  V30 BEGIN BOND
M  V30 1 1 1 2
M  V30 2 1 2 3
M  V30 3 2 3 4
M  V30 4 1 4 5
M  V30 5 2 5 6
M  V30 6 1 6 7
M  V30 7 1 6 8
M  V30 8 2 8 9
M  V30 9 1 9 10
M  V30 10 2 10 11
M  V30 11 1 11 12
M  V30 12 2 12 13
M  V30 13 1 13 14
M  V30 14 2 14 15
M  V30 15 1 14 16
M  V30 16 1 16 17
M  V30 17 2 17 18
M  V30 18 1 18 19
M  V30 19 2 19 20
M  V30 20 1 20 21
M  V30 21 1 21 22
M  V30 22 1 22 23
M  V30 23 1 23 24
M  V30 24 1 24 25
M  V30 25 1 25 26
M  V30 26 1 26 27
M  V30 27 1 20 28
M  V30 28 2 28 29
M  V30 29 1 4 30
M  V30 30 2 30 31
M  V30 31 1 31 2
M  V30 32 1 11 5
M  V30 33 1 29 17
M  V30 34 1 27 22
M  V30 35 1 1 32
M  V30 36 1 1 33
M  V30 37 1 1 34
M  V30 38 1 3 35
M  V30 39 1 8 36
M  V30 40 1 10 37
M  V30 41 1 12 38
M  V30 42 1 13 39
M  V30 43 1 16 40
M  V30 44 1 18 41
M  V30 45 1 19 42
M  V30 46 1 21 43
M  V30 47 1 21 44
M  V30 48 1 23 45
M  V30 49 1 23 46
M  V30 50 1 24 47
M  V30 51 1 24 48
M  V30 52 1 26 49
M  V30 53 1 26 50
M  V30 54 1 27 51
M  V30 55 1 27 52
M  V30 56 1 28 53
M  V30 57 1 29 54
M  V30 58 1 30 55
M  V30 END BOND
M  V30 END CTAB
M  END
>  <Dataset>  (33) 
ChEMBL_Kinases

>  <Ligand_Instance>  (33) 
nan

>  <PDB_ID>  (33) 
nan

>  <Standardized_SMILES>  (33) 
Cn1cc(-c2c(F)cncc2/C=C/C(=O)Nc2ccc(CN3CCOCC3)cc2)cn1

>  <Name>  (33) 
nan

>  <Pocket>  (33) 
nan

>  <ATP_Site>  (33) 
nan

>  <Peripheral>  (33) 
nan

>  <Num_H_Atoms_ProtBoundConf>  (33) 
nan

>  <Num_Resolved_Atoms>  (33) 
nan

>  <Num_Not_Resolved_Atoms>  (33) 
nan

$$$$
CHEMBL4854187
     RDKit          3D

  0  0  0  0  0  0  0  0  0  0999 V3000
M  V30 BEGIN CTAB
M  V30 COUNTS 42 44 0 0 0
M  V30 BEGIN ATOM
M  V30 1 C -1.042353 -4.261261 1.443927 0
M  V30 2 O -1.488913 -3.146434 2.185689 0
M  V30 3 C -0.758476 -2.020162 2.423634 0
M  V30 4 C 0.515950 -1.970139 1.896619 0
M  V30 5 C 1.284277 -0.845561 2.117324 0
M  V30 6 N 2.601774 -0.808422 1.565318 0
M  V30 7 C 2.536610 -0.242561 0.262152 0
M  V30 8 O 1.348583 0.082048 -0.079330 0
M  V30 9 C 3.726268 -0.040921 -0.630264 0
M  V30 10 C 3.171029 0.589597 -1.912611 0
M  V30 11 C 2.168575 -0.299377 -2.568265 0
M  V30 12 C 0.946868 0.505995 -2.874126 0
M  V30 13 C 1.140220 1.869991 -2.277272 0
M  V30 14 C 2.505038 1.904307 -1.630492 0
M  V30 15 C 0.786085 0.209296 2.851934 0
M  V30 16 C -0.492083 0.098129 3.350489 0
M  V30 17 C -1.309255 -0.997853 3.164993 0
M  V30 18 C -2.648205 -1.012928 3.737125 0
M  V30 19 C -3.623953 -1.983613 3.681906 0
M  V30 20 N -4.721289 -1.586411 4.352291 0
M  V30 21 C -4.396214 -0.361399 4.814269 0
M  V30 22 O -3.182296 -0.045869 4.444075 0
M  V30 23 H -0.042221 -4.542447 1.846383 0
M  V30 24 H -1.696977 -5.137317 1.644354 0
M  V30 25 H -0.901894 -4.055485 0.364071 0
M  V30 26 H 0.915872 -2.796798 1.316815 0
M  V30 27 H 3.535741 -1.102743 1.925489 0
M  V30 28 H 4.495070 0.596096 -0.192820 0
M  V30 29 H 4.192301 -0.993909 -0.933956 0
M  V30 30 H 4.036704 0.740274 -2.593343 0
M  V30 31 H 2.559939 -0.721595 -3.528558 0
M  V30 32 H 1.896608 -1.195078 -1.964056 0
M  V30 33 H 0.018091 0.049721 -2.485794 0
M  V30 34 H 0.774149 0.603578 -3.978696 0
M  V30 35 H 1.097307 2.668620 -3.074502 0
M  V30 36 H 0.316901 2.140317 -1.584766 0
M  V30 37 H 2.446410 2.091817 -0.548494 0
M  V30 38 H 3.118964 2.733133 -2.055267 0
M  V30 39 H 1.384229 1.081604 3.022189 0
M  V30 40 H -0.889175 0.926094 3.929712 0
M  V30 41 H -3.563916 -2.929190 3.190712 0
M  V30 42 H -4.897450 0.414310 5.412857 0
M  V30 END ATOM
M  V30 BEGIN BOND
M  V30 1 1 1 2
M  V30 2 1 2 3
M  V30 3 2 3 4
M  V30 4 1 4 5
M  V30 5 1 5 6
M  V30 6 1 6 7
M  V30 7 2 7 8
M  V30 8 1 7 9
M  V30 9 1 9 10
M  V30 10 1 10 11
M  V30 11 1 11 12
M  V30 12 1 12 13
M  V30 13 1 13 14
M  V30 14 2 5 15
M  V30 15 1 15 16
M  V30 16 2 16 17
M  V30 17 1 17 18
M  V30 18 2 18 19
M  V30 19 1 19 20
M  V30 20 2 20 21
M  V30 21 1 21 22
M  V30 22 1 17 3
M  V30 23 1 22 18
M  V30 24 1 14 10
M  V30 25 1 1 23
M  V30 26 1 1 24
M  V30 27 1 1 25
M  V30 28 1 4 26
M  V30 29 1 6 27
M  V30 30 1 9 28
M  V30 31 1 9 29
M  V30 32 1 10 30
M  V30 33 1 11 31
M  V30 34 1 11 32
M  V30 35 1 12 33
M  V30 36 1 12 34
M  V30 37 1 13 35
M  V30 38 1 13 36
M  V30 39 1 14 37
M  V30 40 1 14 38
M  V30 41 1 15 39
M  V30 42 1 16 40
M  V30 43 1 19 41
M  V30 44 1 21 42
M  V30 END BOND
M  V30 END CTAB
M  END
>  <Dataset>  (34) 
ChEMBL_Kinases

>  <Ligand_Instance>  (34) 
nan

>  <PDB_ID>  (34) 
nan

>  <Standardized_SMILES>  (34) 
COc1cc(NC(=O)CC2CCCC2)ccc1-c1cnco1

>  <Name>  (34) 
nan

>  <Pocket>  (34) 
nan

>  <ATP_Site>  (34) 
nan

>  <Peripheral>  (34) 
nan

>  <Num_H_Atoms_ProtBoundConf>  (34) 
nan

>  <Num_Resolved_Atoms>  (34) 
nan

>  <Num_Not_Resolved_Atoms>  (34) 
nan

$$$$
CHEMBL4081037
     RDKit          3D

  0  0  0  0  0  0  0  0  0  0999 V3000
M  V30 BEGIN CTAB
M  V30 COUNTS 46 49 0 0 0
M  V30 BEGIN ATOM
M  V30 1 O -0.071258 -6.349210 1.628935 0
M  V30 2 C 0.206074 -5.149508 1.474625 0
M  V30 3 N 1.215969 -4.511244 2.232540 0
M  V30 4 C 1.244325 -3.152053 1.780901 0
M  V30 5 C 2.055335 -2.117845 2.207877 0
M  V30 6 C 1.926158 -0.865427 1.642437 0
M  V30 7 C 0.979781 -0.672095 0.652695 0
M  V30 8 C 0.740412 0.605503 -0.014951 0
M  V30 9 O -0.082956 0.786620 -0.966647 0
M  V30 10 N 1.429989 1.778472 0.360485 0
M  V30 11 C 1.368859 3.129230 -0.136985 0 CFG=2
M  V30 12 C 2.710206 3.682582 -0.504876 0
M  V30 13 O 3.285636 2.889677 -1.514439 0
M  V30 14 C 0.823495 3.945216 1.010299 0
M  V30 15 C 1.285532 5.154906 1.455472 0
M  V30 16 C 0.658516 5.768194 2.521894 0
M  V30 17 C -0.424996 5.228229 3.179930 0
M  V30 18 C -0.895002 4.013707 2.739466 0
M  V30 19 C -0.263390 3.393696 1.663225 0
M  V30 20 C 0.166855 -1.706401 0.223719 0
M  V30 21 C 0.284636 -2.965188 0.780455 0
M  V30 22 C -0.411865 -4.239046 0.551846 0
M  V30 23 C -1.391601 -4.490025 -0.309328 0
M  V30 24 C -1.993970 -5.811568 -0.424641 0
M  V30 25 C -3.379518 -5.890372 -0.621735 0
M  V30 26 C -3.712577 -7.240007 -0.700153 0
M  V30 27 C -2.497184 -7.918353 -0.544859 0
M  V30 28 O -1.574749 -7.030402 -0.393909 0
M  V30 29 H 1.826718 -4.920178 2.972845 0
M  V30 30 H 2.808694 -2.239407 2.985182 0
M  V30 31 H 2.533912 -0.033039 1.942528 0
M  V30 32 H 2.136780 1.790400 1.125239 0
M  V30 33 H 0.681710 3.257916 -1.004455 0
M  V30 34 H 2.592084 4.728098 -0.880257 0
M  V30 35 H 3.358281 3.747258 0.399473 0
M  V30 36 H 3.081072 3.337905 -2.389699 0
M  V30 37 H 2.136051 5.555157 0.923325 0
M  V30 38 H 1.052839 6.732310 2.850408 0
M  V30 39 H -0.908631 5.726173 4.020175 0
M  V30 40 H -1.745157 3.540825 3.218822 0
M  V30 41 H -0.675876 2.434893 1.355750 0
M  V30 42 H -0.589108 -1.593165 -0.552664 0
M  V30 43 H -1.712298 -3.650965 -0.920156 0
M  V30 44 H -4.128180 -5.100206 -0.708591 0
M  V30 45 H -4.729305 -7.637748 -0.852149 0
M  V30 46 H -2.514000 -8.989982 -0.572155 0
M  V30 END ATOM
M  V30 BEGIN BOND
M  V30 1 2 1 2
M  V30 2 1 2 3
M  V30 3 1 3 4
M  V30 4 2 4 5
M  V30 5 1 5 6
M  V30 6 2 6 7
M  V30 7 1 7 8
M  V30 8 2 8 9
M  V30 9 1 8 10
M  V30 10 1 10 11
M  V30 11 1 11 12
M  V30 12 1 12 13
M  V30 13 1 11 14
M  V30 14 2 14 15
M  V30 15 1 15 16
M  V30 16 2 16 17
M  V30 17 1 17 18
M  V30 18 2 18 19
M  V30 19 1 7 20
M  V30 20 2 20 21
M  V30 21 1 21 22
M  V30 22 2 22 23
M  V30 23 1 23 24
M  V30 24 2 24 25
M  V30 25 1 25 26
M  V30 26 2 26 27
M  V30 27 1 27 28
M  V30 28 1 22 2
M  V30 29 1 28 24
M  V30 30 1 21 4
M  V30 31 1 19 14
M  V30 32 1 3 29
M  V30 33 1 5 30
M  V30 34 1 6 31
M  V30 35 1 10 32
M  V30 36 1 11 33 CFG=3
M  V30 37 1 12 34
M  V30 38 1 12 35
M  V30 39 1 13 36
M  V30 40 1 15 37
M  V30 41 1 16 38
M  V30 42 1 17 39
M  V30 43 1 18 40
M  V30 44 1 19 41
M  V30 45 1 20 42
M  V30 46 1 23 43
M  V30 47 1 25 44
M  V30 48 1 26 45
M  V30 49 1 27 46
M  V30 END BOND
M  V30 END CTAB
M  END
>  <Dataset>  (35) 
ChEMBL_Kinases

>  <Ligand_Instance>  (35) 
nan

>  <PDB_ID>  (35) 
nan

>  <Standardized_SMILES>  (35) 
O=C1Nc2ccc(C(=O)N[C@H](CO)c3ccccc3)cc2/C1=C/c1ccco1

>  <Name>  (35) 
nan

>  <Pocket>  (35) 
nan

>  <ATP_Site>  (35) 
nan

>  <Peripheral>  (35) 
nan

>  <Num_H_Atoms_ProtBoundConf>  (35) 
nan

>  <Num_Resolved_Atoms>  (35) 
nan

>  <Num_Not_Resolved_Atoms>  (35) 
nan

$$$$
CHEMBL4081489
     RDKit          3D

  0  0  0  0  0  0  0  0  0  0999 V3000
M  V30 BEGIN CTAB
M  V30 COUNTS 46 48 0 0 0
M  V30 BEGIN ATOM
M  V30 1 C -2.352950 -4.250893 2.118386 0
M  V30 2 N -0.943176 -4.406888 2.076666 0
M  V30 3 C 0.505086 -4.525623 2.068412 0
M  V30 4 C 1.406120 -3.678653 1.439975 0
M  V30 5 C 2.773510 -4.061129 1.562441 0
M  V30 6 O 3.699211 -3.263121 0.964112 0
M  V30 7 C 3.414621 -2.075312 0.322819 0
M  V30 8 C 4.094934 -1.039552 0.994084 0
M  V30 9 C 3.965790 0.249849 0.551764 0
M  V30 10 C 3.174563 0.506280 -0.535381 0
M  V30 11 N 2.822445 1.775096 -1.136460 0
M  V30 12 C 1.608200 2.423113 -0.710495 0
M  V30 13 O 1.086429 1.636146 0.192633 0
M  V30 14 N 0.784901 3.584255 -0.909203 0
M  V30 15 C -0.380196 3.462185 -0.043661 0
M  V30 16 C -0.762488 3.890958 1.172051 0
M  V30 17 C -1.942443 3.436023 1.698281 0
M  V30 18 C -2.723865 2.557926 0.995422 0
M  V30 19 O -3.909286 2.129152 1.581353 0
M  V30 20 C -4.830629 1.232892 1.040911 0
M  V30 21 C -2.405060 2.053738 -0.290040 0
M  V30 22 C -1.174331 2.547946 -0.797907 0
M  V30 23 C 2.494286 -0.495851 -1.217309 0
M  V30 24 C 2.631371 -1.817335 -0.764707 0
M  V30 25 F 2.056351 -2.908228 -1.352235 0
M  V30 26 N 2.760811 -5.114953 2.242513 0
M  V30 27 C 2.150760 -6.017134 2.880062 0
M  V30 28 N 0.826714 -5.637868 2.753257 0
M  V30 29 H -2.801896 -4.437306 3.119692 0
M  V30 30 H -2.714665 -3.265529 1.731807 0
M  V30 31 H -2.870851 -5.002281 1.446128 0
M  V30 32 H -0.791410 -3.564882 2.742265 0
M  V30 33 H 0.923455 -2.853609 0.981243 0
M  V30 34 H 4.744879 -1.096250 1.853867 0
M  V30 35 H 4.407639 1.141306 0.936929 0
M  V30 36 H 3.204208 2.461325 -1.871369 0
M  V30 37 H 1.316477 4.115497 -1.594634 0
M  V30 38 H 0.000454 4.569823 1.523900 0
M  V30 39 H -2.158134 3.840714 2.671825 0
M  V30 40 H -5.728747 1.725295 0.623100 0
M  V30 41 H -4.411967 0.575679 0.257931 0
M  V30 42 H -5.204188 0.474078 1.820912 0
M  V30 43 H -3.044115 1.373524 -0.835665 0
M  V30 44 H -1.035061 2.093960 -1.782225 0
M  V30 45 H 1.840248 -0.490953 -2.063620 0
M  V30 46 H 2.380293 -6.899876 3.428070 0
M  V30 END ATOM
M  V30 BEGIN BOND
M  V30 1 1 1 2
M  V30 2 1 2 3
M  V30 3 2 3 4
M  V30 4 1 4 5
M  V30 5 1 5 6
M  V30 6 1 6 7
M  V30 7 2 7 8
M  V30 8 1 8 9
M  V30 9 2 9 10
M  V30 10 1 10 11
M  V30 11 1 11 12
M  V30 12 2 12 13
M  V30 13 1 12 14
M  V30 14 1 14 15
M  V30 15 2 15 16
M  V30 16 1 16 17
M  V30 17 2 17 18
M  V30 18 1 18 19
M  V30 19 1 19 20
M  V30 20 1 18 21
M  V30 21 2 21 22
M  V30 22 1 10 23
M  V30 23 2 23 24
M  V30 24 1 24 25
M  V30 25 2 5 26
M  V30 26 1 26 27
M  V30 27 2 27 28
M  V30 28 1 28 3
M  V30 29 1 24 7
M  V30 30 1 22 15
M  V30 31 1 1 29
M  V30 32 1 1 30
M  V30 33 1 1 31
M  V30 34 1 2 32
M  V30 35 1 4 33
M  V30 36 1 8 34
M  V30 37 1 9 35
M  V30 38 1 11 36
M  V30 39 1 14 37
M  V30 40 1 16 38
M  V30 41 1 17 39
M  V30 42 1 20 40
M  V30 43 1 20 41
M  V30 44 1 20 42
M  V30 45 1 21 43
M  V30 46 1 22 44
M  V30 47 1 23 45
M  V30 48 1 27 46
M  V30 END BOND
M  V30 END CTAB
M  END
>  <Dataset>  (36) 
ChEMBL_Kinases

>  <Ligand_Instance>  (36) 
nan

>  <PDB_ID>  (36) 
nan

>  <Standardized_SMILES>  (36) 
CNc1cc(Oc2ccc(NC(=O)Nc3ccc(OC)cc3)cc2F)ncn1

>  <Name>  (36) 
nan

>  <Pocket>  (36) 
nan

>  <ATP_Site>  (36) 
nan

>  <Peripheral>  (36) 
nan

>  <Num_H_Atoms_ProtBoundConf>  (36) 
nan

>  <Num_Resolved_Atoms>  (36) 
nan

>  <Num_Not_Resolved_Atoms>  (36) 
nan

$$$$
CHEMBL4085294
     RDKit          3D

  0  0  0  0  0  0  0  0  0  0999 V3000
M  V30 BEGIN CTAB
M  V30 COUNTS 74 78 0 0 0
M  V30 BEGIN ATOM
M  V30 1 C -0.474725 -2.332635 3.033093 0
M  V30 2 C 0.980265 -2.047268 2.767556 0
M  V30 3 C 1.825319 -1.737159 3.810120 0
M  V30 4 C 3.167495 -1.479353 3.517675 0
M  V30 5 C 3.662299 -1.526352 2.231769 0
M  V30 6 C 5.082103 -1.232893 2.063421 0
M  V30 7 O 5.759038 -0.957549 3.069389 0
M  V30 8 N 5.739162 -1.244907 0.796746 0
M  V30 9 C 7.118596 -0.929187 0.861689 0
M  V30 10 C 8.218373 -1.744933 1.023908 0
M  V30 11 C 9.477989 -1.186422 1.055199 0
M  V30 12 C 9.737837 0.148373 0.935488 0
M  V30 13 Cl 11.376892 0.762054 0.987881 0
M  V30 14 C 8.639845 0.970135 0.772790 0
M  V30 15 C 8.897727 2.429607 0.640317 0
M  V30 16 F 7.682746 3.055210 0.491269 0
M  V30 17 F 9.619871 2.874113 1.730129 0
M  V30 18 F 9.613861 2.625985 -0.537153 0
M  V30 19 C 7.347200 0.445596 0.735639 0
M  V30 20 C 2.808277 -1.834649 1.221193 0
M  V30 21 C 1.463945 -2.097160 1.476900 0
M  V30 22 N 0.536138 -2.420706 0.450864 0
M  V30 23 C 0.143163 -3.646452 -0.101893 0
M  V30 24 O 0.733266 -4.621950 0.423028 0
M  V30 25 C -0.869055 -3.708692 -1.189389 0
M  V30 26 C -1.459798 -2.450299 -1.713195 0
M  V30 27 C -2.816114 -2.276307 -1.931668 0
M  V30 28 C -3.358270 -1.087774 -2.428650 0
M  V30 29 N -4.761418 -1.024550 -2.611779 0
M  V30 30 C -6.029164 -0.731587 -1.982057 0
M  V30 31 C -6.148209 0.655150 -1.434847 0
M  V30 32 C -7.552565 0.766448 -0.829383 0
M  V30 33 C -7.629759 1.981946 0.038424 0
M  V30 34 N -6.469601 2.842554 -0.062241 0
M  V30 35 C -6.710131 4.022368 0.747670 0
M  V30 36 C -5.298897 2.118674 0.406093 0
M  V30 37 C -5.189212 0.777083 -0.249940 0
M  V30 38 N -2.502672 -0.076992 -2.701390 0
M  V30 39 C -1.181808 -0.217079 -2.499435 0
M  V30 40 N -0.718281 -1.374929 -2.022411 0
M  V30 41 C -1.648844 -4.971507 -1.379885 0
M  V30 42 C -0.503427 -4.721515 -2.304552 0
M  V30 43 H -0.738871 -2.013683 4.052043 0
M  V30 44 H -1.076000 -1.766315 2.291591 0
M  V30 45 H -0.696946 -3.414226 2.848833 0
M  V30 46 H 1.443865 -1.696468 4.837584 0
M  V30 47 H 3.760040 -1.244301 4.393670 0
M  V30 48 H 5.177456 -1.477437 -0.060348 0
M  V30 49 H 7.951396 -2.787483 1.113039 0
M  V30 50 H 10.309167 -1.892378 1.187133 0
M  V30 51 H 6.574075 1.191228 0.603854 0
M  V30 52 H 3.177025 -1.875285 0.218162 0
M  V30 53 H 0.166899 -1.490998 0.160022 0
M  V30 54 H -3.493526 -3.085670 -1.711967 0
M  V30 55 H -4.710064 -1.328507 -3.621516 0
M  V30 56 H -6.807106 -0.972916 -2.716834 0
M  V30 57 H -6.143926 -1.503813 -1.172272 0
M  V30 58 H -5.997264 1.430202 -2.193451 0
M  V30 59 H -8.303491 0.756220 -1.637210 0
M  V30 60 H -7.741608 -0.127930 -0.197979 0
M  V30 61 H -7.791898 1.701477 1.095224 0
M  V30 62 H -8.517257 2.578124 -0.270007 0
M  V30 63 H -6.014796 4.810869 0.379445 0
M  V30 64 H -6.510887 3.855997 1.828099 0
M  V30 65 H -7.735113 4.392385 0.575757 0
M  V30 66 H -4.376155 2.716591 0.204575 0
M  V30 67 H -5.402572 1.965834 1.498991 0
M  V30 68 H -5.530837 -0.023030 0.463930 0
M  V30 69 H -4.178388 0.525502 -0.580847 0
M  V30 70 H -0.476033 0.595181 -2.716245 0
M  V30 71 H -2.636678 -4.922478 -1.857130 0
M  V30 72 H -1.502211 -5.771257 -0.622280 0
M  V30 73 H 0.409349 -5.328217 -2.160949 0
M  V30 74 H -0.660890 -4.406913 -3.349833 0
M  V30 END ATOM
M  V30 BEGIN BOND
M  V30 1 1 1 2
M  V30 2 2 2 3
M  V30 3 1 3 4
M  V30 4 2 4 5
M  V30 5 1 5 6
M  V30 6 2 6 7
M  V30 7 1 6 8
M  V30 8 1 8 9
M  V30 9 2 9 10
M  V30 10 1 10 11
M  V30 11 2 11 12
M  V30 12 1 12 13
M  V30 13 1 12 14
M  V30 14 1 14 15
M  V30 15 1 15 16
M  V30 16 1 15 17
M  V30 17 1 15 18
M  V30 18 2 14 19
M  V30 19 1 5 20
M  V30 20 2 20 21
M  V30 21 1 21 22
M  V30 22 1 22 23
M  V30 23 2 23 24
M  V30 24 1 23 25
M  V30 25 1 25 26
M  V30 26 2 26 27
M  V30 27 1 27 28
M  V30 28 1 28 29
M  V30 29 1 29 30
M  V30 30 1 30 31
M  V30 31 1 31 32
M  V30 32 1 32 33
M  V30 33 1 33 34
M  V30 34 1 34 35
M  V30 35 1 34 36
M  V30 36 1 36 37
M  V30 37 2 28 38
M  V30 38 1 38 39
M  V30 39 2 39 40
M  V30 40 1 25 41
M  V30 41 1 41 42
M  V30 42 1 21 2
M  V30 43 1 42 25
M  V30 44 1 19 9
M  V30 45 1 40 26
M  V30 46 1 37 31
M  V30 47 1 1 43
M  V30 48 1 1 44
M  V30 49 1 1 45
M  V30 50 1 3 46
M  V30 51 1 4 47
M  V30 52 1 8 48
M  V30 53 1 10 49
M  V30 54 1 11 50
M  V30 55 1 19 51
M  V30 56 1 20 52
M  V30 57 1 22 53
M  V30 58 1 27 54
M  V30 59 1 29 55
M  V30 60 1 30 56
M  V30 61 1 30 57
M  V30 62 1 31 58
M  V30 63 1 32 59
M  V30 64 1 32 60
M  V30 65 1 33 61
M  V30 66 1 33 62
M  V30 67 1 35 63
M  V30 68 1 35 64
M  V30 69 1 35 65
M  V30 70 1 36 66
M  V30 71 1 36 67
M  V30 72 1 37 68
M  V30 73 1 37 69
M  V30 74 1 39 70
M  V30 75 1 41 71
M  V30 76 1 41 72
M  V30 77 1 42 73
M  V30 78 1 42 74
M  V30 END BOND
M  V30 END CTAB
M  END
>  <Dataset>  (37) 
ChEMBL_Kinases

>  <Ligand_Instance>  (37) 
nan

>  <PDB_ID>  (37) 
nan

>  <Standardized_SMILES>  (37) 
Cc1ccc(C(=O)Nc2ccc(Cl)c(C(F)(F)F)c2)cc1NC(=O)C1(c2cc(NCC3CCN(C)CC3)ncn2)CC1

>  <Name>  (37) 
nan

>  <Pocket>  (37) 
nan

>  <ATP_Site>  (37) 
nan

>  <Peripheral>  (37) 
nan

>  <Num_H_Atoms_ProtBoundConf>  (37) 
nan

>  <Num_Resolved_Atoms>  (37) 
nan

>  <Num_Not_Resolved_Atoms>  (37) 
nan

$$$$
CHEMBL4085289
     RDKit          3D

  0  0  0  0  0  0  0  0  0  0999 V3000
M  V30 BEGIN CTAB
M  V30 COUNTS 64 68 0 0 0
M  V30 BEGIN ATOM
M  V30 1 C 4.797962 2.991427 4.773642 0
M  V30 2 O 5.868800 2.211522 4.246489 0
M  V30 3 C 5.566232 1.393399 3.146794 0
M  V30 4 C 6.608320 0.642326 2.643261 0
M  V30 5 C 6.353126 -0.168386 1.570623 0
M  V30 6 C 5.066451 -0.207783 1.029913 0
M  V30 7 C 4.004365 0.524439 1.503123 0
M  V30 8 C 4.319757 1.309513 2.568022 0
M  V30 9 C 2.842326 0.229036 0.702399 0
M  V30 10 C 1.663032 0.737252 0.861166 0
M  V30 11 N 1.212144 1.669446 1.808906 0
M  V30 12 C -0.163101 1.969363 1.642161 0
M  V30 13 C -1.100607 2.794867 2.275036 0
M  V30 14 C -2.415123 2.902521 1.900418 0
M  V30 15 C -2.830157 2.148105 0.834393 0
M  V30 16 C -1.953505 1.320948 0.176196 0
M  V30 17 C -0.627986 1.215078 0.557175 0
M  V30 18 C 0.496730 0.437569 0.053741 0
M  V30 19 N 0.364217 -0.336869 -0.928067 0
M  V30 20 O -0.772575 -0.552316 -1.622926 0
M  V30 21 C -0.863027 -0.496946 -3.002523 0
M  V30 22 C -2.234179 -0.773218 -3.563303 0
M  V30 23 O -2.765812 -1.998778 -3.278937 0
M  V30 24 C -3.014210 -2.313671 -1.983661 0 CFG=2
M  V30 25 O -2.377258 -3.511116 -1.663340 0
M  V30 26 C -2.354904 -3.754151 -0.298856 0 CFG=2
M  V30 27 C -1.830000 -5.164520 -0.103962 0
M  V30 28 O -2.660278 -6.097897 -0.744282 0
M  V30 29 C -3.677740 -3.682366 0.372967 0 CFG=1
M  V30 30 O -3.489030 -3.276631 1.693718 0
M  V30 31 C -4.647303 -2.712090 -0.246008 0 CFG=2
M  V30 32 O -5.937715 -3.171257 0.018923 0
M  V30 33 C -4.505161 -2.603547 -1.732191 0 CFG=1
M  V30 34 O -5.236209 -1.477089 -2.131073 0
M  V30 35 C 3.293116 -0.734285 -0.283054 0
M  V30 36 O 2.661093 -1.297873 -1.202992 0
M  V30 37 N 4.672860 -1.018367 -0.095634 0
M  V30 38 H 3.923211 2.330369 5.029516 0
M  V30 39 H 5.097516 3.509302 5.699439 0
M  V30 40 H 4.414691 3.741864 4.077982 0
M  V30 41 H 7.596482 0.685583 3.074135 0
M  V30 42 H 7.176492 -0.744490 1.193588 0
M  V30 43 H 3.616931 1.935777 3.051587 0
M  V30 44 H 1.673980 2.159278 2.574794 0
M  V30 45 H -0.780848 3.393301 3.117041 0
M  V30 46 H -3.077625 3.563874 2.441431 0
M  V30 47 H -3.867517 2.239553 0.546533 0
M  V30 48 H -2.388691 0.775832 -0.645925 0
M  V30 49 H -0.635358 0.568636 -3.302485 0
M  V30 50 H -0.085975 -1.136001 -3.516692 0
M  V30 51 H -2.962667 -0.014599 -3.148226 0
M  V30 52 H -2.265142 -0.621457 -4.666310 0
M  V30 53 H -2.778788 -1.507873 -1.274593 0
M  V30 54 H -1.594142 -3.081347 0.179860 0
M  V30 55 H -1.741365 -5.459258 0.951413 0
M  V30 56 H -0.830353 -5.285235 -0.601394 0
M  V30 57 H -2.167249 -6.927805 -0.960774 0
M  V30 58 H -4.167172 -4.693740 0.407354 0
M  V30 59 H -2.565129 -3.030051 1.856491 0
M  V30 60 H -4.581103 -1.710269 0.223669 0
M  V30 61 H -5.899239 -3.517037 0.946357 0
M  V30 62 H -4.765792 -3.521166 -2.253876 0
M  V30 63 H -4.754997 -0.706539 -1.709806 0
M  V30 64 H 5.285660 -1.679536 -0.655650 0
M  V30 END ATOM
M  V30 BEGIN BOND
M  V30 1 1 1 2
M  V30 2 1 2 3
M  V30 3 2 3 4
M  V30 4 1 4 5
M  V30 5 2 5 6
M  V30 6 1 6 7
M  V30 7 2 7 8
M  V30 8 1 7 9
M  V30 9 2 9 10
M  V30 10 1 10 11
M  V30 11 1 11 12
M  V30 12 2 12 13
M  V30 13 1 13 14
M  V30 14 2 14 15
M  V30 15 1 15 16
M  V30 16 2 16 17
M  V30 17 1 17 18
M  V30 18 2 18 19
M  V30 19 1 19 20
M  V30 20 1 20 21
M  V30 21 1 21 22
M  V30 22 1 22 23
M  V30 23 1 23 24
M  V30 24 1 24 25
M  V30 25 1 25 26
M  V30 26 1 26 27
M  V30 27 1 27 28
M  V30 28 1 26 29
M  V30 29 1 29 30
M  V30 30 1 29 31
M  V30 31 1 31 32
M  V30 32 1 31 33
M  V30 33 1 33 34
M  V30 34 1 9 35
M  V30 35 2 35 36
M  V30 36 1 35 37
M  V30 37 1 8 3
M  V30 38 1 18 10
M  V30 39 1 33 24
M  V30 40 1 37 6
M  V30 41 1 17 12
M  V30 42 1 1 38
M  V30 43 1 1 39
M  V30 44 1 1 40
M  V30 45 1 4 41
M  V30 46 1 5 42
M  V30 47 1 8 43
M  V30 48 1 11 44
M  V30 49 1 13 45
M  V30 50 1 14 46
M  V30 51 1 15 47
M  V30 52 1 16 48
M  V30 53 1 21 49
M  V30 54 1 21 50
M  V30 55 1 22 51
M  V30 56 1 22 52
M  V30 57 1 24 53 CFG=1
M  V30 58 1 26 54 CFG=1
M  V30 59 1 27 55
M  V30 60 1 27 56
M  V30 61 1 28 57
M  V30 62 1 29 58 CFG=1
M  V30 63 1 30 59
M  V30 64 1 31 60 CFG=1
M  V30 65 1 32 61
M  V30 66 1 33 62 CFG=3
M  V30 67 1 34 63
M  V30 68 1 37 64
M  V30 END BOND
M  V30 END CTAB
M  END
>  <Dataset>  (38) 
ChEMBL_Kinases

>  <Ligand_Instance>  (38) 
nan

>  <PDB_ID>  (38) 
nan

>  <Standardized_SMILES>  (38) 
COc1ccc2c(c1)/C(=C1\Nc3ccccc3\C1=N/OCCO[C@@H]1O[C@H](CO)[C@@H](O)[C@H](O)[C@H]1O)C(=O)N2

>  <Name>  (38) 
nan

>  <Pocket>  (38) 
nan

>  <ATP_Site>  (38) 
nan

>  <Peripheral>  (38) 
nan

>  <Num_H_Atoms_ProtBoundConf>  (38) 
nan

>  <Num_Resolved_Atoms>  (38) 
nan

>  <Num_Not_Resolved_Atoms>  (38) 
nan

$$$$
CHEMBL4851480
     RDKit          3D

  0  0  0  0  0  0  0  0  0  0999 V3000
M  V30 BEGIN CTAB
M  V30 COUNTS 54 56 0 0 0
M  V30 BEGIN ATOM
M  V30 1 C 5.282784 -3.696485 1.038571 0
M  V30 2 C 4.980688 -3.600421 -0.452666 0
M  V30 3 C 4.099066 -4.787307 -0.786315 0
M  V30 4 N 4.255622 -2.394163 -0.764584 0
M  V30 5 C 4.556831 -1.367790 -1.699278 0
M  V30 6 O 5.566780 -1.413727 -2.403344 0
M  V30 7 C 3.666212 -0.222960 -1.847979 0
M  V30 8 C 2.498455 -0.019284 -1.140021 0
M  V30 9 C 1.682861 1.059231 -1.297749 0
M  V30 10 C 0.461043 1.201000 -0.507387 0
M  V30 11 C -0.621812 1.591245 -1.271743 0
M  V30 12 C -1.882840 1.783947 -0.711569 0
M  V30 13 C -1.998300 1.562181 0.666103 0
M  V30 14 N -3.294897 1.763193 1.225344 0
M  V30 15 C -4.102632 0.567977 1.216779 0
M  V30 16 O -3.690604 -0.532053 0.759081 0
M  V30 17 C -5.491993 0.474652 1.732396 0 CFG=2
M  V30 18 O -5.842522 1.716075 2.203644 0
M  V30 19 C -5.539193 -0.572833 2.775465 0
M  V30 20 C -6.125788 -1.815073 2.518184 0
M  V30 21 C -6.217462 -2.854037 3.427050 0
M  V30 22 F -6.806163 -4.018812 3.077027 0
M  V30 23 C -5.682843 -2.629883 4.681574 0
M  V30 24 C -5.085814 -1.413183 4.996910 0
M  V30 25 F -4.578364 -1.255318 6.250114 0
M  V30 26 C -5.019133 -0.394693 4.040617 0
M  V30 27 C -0.919693 1.171898 1.436132 0
M  V30 28 C 0.318384 0.989154 0.850528 0
M  V30 29 F 1.421566 0.614425 1.502455 0
M  V30 30 C 2.082532 2.005360 -2.247684 0
M  V30 31 N 3.216525 1.829230 -2.950215 0
M  V30 32 C 4.023226 0.748841 -2.784691 0
M  V30 33 N 5.207845 0.650719 -3.578383 0
M  V30 34 H 4.482640 -3.215866 1.639358 0
M  V30 35 H 5.369858 -4.762937 1.306101 0
M  V30 36 H 6.207562 -3.115060 1.294024 0
M  V30 37 H 5.883319 -3.669850 -1.063087 0
M  V30 38 H 4.298739 -5.121734 -1.820497 0
M  V30 39 H 4.238891 -5.599828 -0.029246 0
M  V30 40 H 3.029944 -4.493625 -0.682712 0
M  V30 41 H 3.409598 -2.385457 -0.153966 0
M  V30 42 H 2.220618 -0.752850 -0.426680 0
M  V30 43 H -0.595927 1.780989 -2.356560 0
M  V30 44 H -2.746495 2.088307 -1.283027 0
M  V30 45 H -3.770914 2.594812 1.635479 0
M  V30 46 H -6.116862 0.137899 0.877993 0
M  V30 47 H -5.237164 1.976020 2.915722 0
M  V30 48 H -6.530740 -1.929468 1.505782 0
M  V30 49 H -5.774751 -3.467339 5.363390 0
M  V30 50 H -4.553359 0.548984 4.293020 0
M  V30 51 H -1.024462 1.005746 2.492493 0
M  V30 52 H 1.431125 2.864216 -2.371926 0
M  V30 53 H 5.177043 0.109004 -4.470819 0
M  V30 54 H 6.071934 1.143479 -3.210511 0
M  V30 END ATOM
M  V30 BEGIN BOND
M  V30 1 1 1 2
M  V30 2 1 2 3
M  V30 3 1 2 4
M  V30 4 1 4 5
M  V30 5 2 5 6
M  V30 6 1 5 7
M  V30 7 2 7 8
M  V30 8 1 8 9
M  V30 9 1 9 10
M  V30 10 2 10 11
M  V30 11 1 11 12
M  V30 12 2 12 13
M  V30 13 1 13 14
M  V30 14 1 14 15
M  V30 15 2 15 16
M  V30 16 1 15 17
M  V30 17 1 17 18
M  V30 18 1 17 19
M  V30 19 2 19 20
M  V30 20 1 20 21
M  V30 21 1 21 22
M  V30 22 2 21 23
M  V30 23 1 23 24
M  V30 24 1 24 25
M  V30 25 2 24 26
M  V30 26 1 13 27
M  V30 27 2 27 28
M  V30 28 1 28 29
M  V30 29 2 9 30
M  V30 30 1 30 31
M  V30 31 2 31 32
M  V30 32 1 32 33
M  V30 33 1 32 7
M  V30 34 1 28 10
M  V30 35 1 26 19
M  V30 36 1 1 34
M  V30 37 1 1 35
M  V30 38 1 1 36
M  V30 39 1 2 37
M  V30 40 1 3 38
M  V30 41 1 3 39
M  V30 42 1 3 40
M  V30 43 1 4 41
M  V30 44 1 8 42
M  V30 45 1 11 43
M  V30 46 1 12 44
M  V30 47 1 14 45
M  V30 48 1 17 46 CFG=3
M  V30 49 1 18 47
M  V30 50 1 20 48
M  V30 51 1 23 49
M  V30 52 1 26 50
M  V30 53 1 27 51
M  V30 54 1 30 52
M  V30 55 1 33 53
M  V30 56 1 33 54
M  V30 END BOND
M  V30 END CTAB
M  END
>  <Dataset>  (39) 
ChEMBL_Kinases

>  <Ligand_Instance>  (39) 
nan

>  <PDB_ID>  (39) 
nan

>  <Standardized_SMILES>  (39) 
CC(C)NC(=O)c1cc(-c2ccc(NC(=O)[C@H](O)c3cc(F)cc(F)c3)cc2F)cnc1N

>  <Name>  (39) 
nan

>  <Pocket>  (39) 
nan

>  <ATP_Site>  (39) 
nan

>  <Peripheral>  (39) 
nan

>  <Num_H_Atoms_ProtBoundConf>  (39) 
nan

>  <Num_Resolved_Atoms>  (39) 
nan

>  <Num_Not_Resolved_Atoms>  (39) 
nan

$$$$
CHEMBL4085263
     RDKit          3D

  0  0  0  0  0  0  0  0  0  0999 V3000
M  V30 BEGIN CTAB
M  V30 COUNTS 44 47 0 0 0
M  V30 BEGIN ATOM
M  V30 1 C 0.049335 -6.658566 1.263476 0
M  V30 2 C -0.526874 -5.403033 0.716893 0
M  V30 3 C -1.839299 -5.418032 0.343160 0
M  V30 4 C -2.366710 -4.249711 -0.162926 0
M  V30 5 C -1.570394 -3.133279 -0.271754 0
M  V30 6 F -2.154952 -2.045155 -0.770015 0
M  V30 7 C -0.258836 -3.074393 0.088427 0
M  V30 8 C 0.644602 -1.942141 0.005697 0
M  V30 9 C 0.390151 -0.691772 -0.446687 0
M  V30 10 C 1.293307 0.343610 -0.500147 0
M  V30 11 N 0.919662 1.623546 -0.995863 0
M  V30 12 C 1.000673 2.812690 -0.194354 0
M  V30 13 C 1.745164 3.959918 -0.434819 0
M  V30 14 C 1.676177 4.986859 0.468753 0
M  V30 15 N 0.910639 4.899803 1.565699 0
M  V30 16 C 0.180806 3.809765 1.828337 0
M  V30 17 C -0.657830 3.531915 2.888104 0
M  V30 18 N -1.119707 2.295561 2.629299 0
M  V30 19 C -2.027707 1.440652 3.345832 0
M  V30 20 N -0.622409 1.817182 1.500723 0
M  V30 21 C 0.204741 2.724782 0.948166 0
M  V30 22 C 2.580636 0.127561 -0.063498 0
M  V30 23 C 3.577291 1.226045 -0.109123 0
M  V30 24 C 2.830836 -1.147862 0.395257 0
M  V30 25 N 1.910111 -2.119482 0.424323 0
M  V30 26 C 0.239980 -4.268661 0.594139 0
M  V30 27 H 0.930656 -6.396741 1.908026 0
M  V30 28 H 0.470275 -7.294133 0.458273 0
M  V30 29 H -0.660787 -7.155112 1.928858 0
M  V30 30 H -2.437364 -6.301830 0.438624 0
M  V30 31 H -3.402721 -4.241292 -0.464082 0
M  V30 32 H -0.602449 -0.467752 -0.800772 0
M  V30 33 H 0.608441 1.480379 -1.980993 0
M  V30 34 H 2.320404 3.907112 -1.351024 0
M  V30 35 H 2.275186 5.854388 0.232093 0
M  V30 36 H -0.938114 4.105508 3.760570 0
M  V30 37 H -1.542769 0.449922 3.508908 0
M  V30 38 H -2.943155 1.257821 2.711563 0
M  V30 39 H -2.354367 1.924744 4.274447 0
M  V30 40 H 3.471109 1.727953 -1.114146 0
M  V30 41 H 4.621117 0.833646 -0.092622 0
M  V30 42 H 3.473434 1.931885 0.731964 0
M  V30 43 H 3.832788 -1.369155 0.751215 0
M  V30 44 H 1.266808 -4.365964 0.919587 0
M  V30 END ATOM
M  V30 BEGIN BOND
M  V30 1 1 1 2
M  V30 2 2 2 3
M  V30 3 1 3 4
M  V30 4 2 4 5
M  V30 5 1 5 6
M  V30 6 1 5 7
M  V30 7 1 7 8
M  V30 8 2 8 9
M  V30 9 1 9 10
M  V30 10 1 10 11
M  V30 11 1 11 12
M  V30 12 2 12 13
M  V30 13 1 13 14
M  V30 14 2 14 15
M  V30 15 1 15 16
M  V30 16 2 16 17
M  V30 17 1 17 18
M  V30 18 1 18 19
M  V30 19 1 18 20
M  V30 20 2 20 21
M  V30 21 2 10 22
M  V30 22 1 22 23
M  V30 23 1 22 24
M  V30 24 2 24 25
M  V30 25 2 7 26
M  V30 26 1 26 2
M  V30 27 1 25 8
M  V30 28 1 21 12
M  V30 29 1 21 16
M  V30 30 1 1 27
M  V30 31 1 1 28
M  V30 32 1 1 29
M  V30 33 1 3 30
M  V30 34 1 4 31
M  V30 35 1 9 32
M  V30 36 1 11 33
M  V30 37 1 13 34
M  V30 38 1 14 35
M  V30 39 1 17 36
M  V30 40 1 19 37
M  V30 41 1 19 38
M  V30 42 1 19 39
M  V30 43 1 23 40
M  V30 44 1 23 41
M  V30 45 1 23 42
M  V30 46 1 24 43
M  V30 47 1 26 44
M  V30 END BOND
M  V30 END CTAB
M  END
>  <Dataset>  (40) 
ChEMBL_Kinases

>  <Ligand_Instance>  (40) 
nan

>  <PDB_ID>  (40) 
nan

>  <Standardized_SMILES>  (40) 
Cc1ccc(F)c(-c2cc(Nc3ccnc4cn(C)nc34)c(C)cn2)c1

>  <Name>  (40) 
nan

>  <Pocket>  (40) 
nan

>  <ATP_Site>  (40) 
nan

>  <Peripheral>  (40) 
nan

>  <Num_H_Atoms_ProtBoundConf>  (40) 
nan

>  <Num_Resolved_Atoms>  (40) 
nan

>  <Num_Not_Resolved_Atoms>  (40) 
nan

$$$$
CHEMBL4085238
     RDKit          3D

  0  0  0  0  0  0  0  0  0  0999 V3000
M  V30 BEGIN CTAB
M  V30 COUNTS 50 53 0 0 0
M  V30 BEGIN ATOM
M  V30 1 N 2.906041 -5.936094 2.796700 0
M  V30 2 S 2.042788 -6.426264 1.375086 0
M  V30 3 O 2.950054 -7.224941 0.509365 0
M  V30 4 O 0.864219 -7.223460 1.858107 0
M  V30 5 C 1.516683 -5.005681 0.502034 0
M  V30 6 C 0.294068 -4.366311 0.680876 0
M  V30 7 C -0.034738 -3.240185 -0.058156 0
M  V30 8 C 0.888742 -2.789111 -0.963727 0
M  V30 9 N 0.595709 -1.637861 -1.743228 0
M  V30 10 C -0.566151 -0.818699 -1.771036 0
M  V30 11 N -0.592970 0.204412 -0.916461 0
M  V30 12 C -1.563538 1.103135 -0.759839 0
M  V30 13 O -1.807418 2.188804 0.007953 0
M  V30 14 C -1.140401 2.848885 0.999566 0
M  V30 15 C -0.862770 2.150054 2.269549 0
M  V30 16 C -0.106579 3.081655 3.225153 0
M  V30 17 C 1.320301 3.270227 2.752537 0
M  V30 18 C 2.021902 1.945641 2.661767 0
M  V30 19 C 1.256479 1.086808 1.645640 0
M  V30 20 C -0.129801 0.866031 2.243686 0
M  V30 21 C -2.653562 0.899351 -1.617366 0
M  V30 22 C -3.884986 1.489174 -1.887618 0
M  V30 23 N -4.537716 0.831496 -2.857316 0
M  V30 24 N -3.812991 -0.192886 -3.274994 0
M  V30 25 C -2.691974 -0.155175 -2.539568 0
M  V30 26 N -1.618077 -0.995539 -2.581467 0
M  V30 27 C 2.118392 -3.357061 -1.205642 0
M  V30 28 C 2.402368 -4.490015 -0.435057 0
M  V30 29 H 3.421314 -5.042678 2.606044 0
M  V30 30 H 2.295045 -5.768118 3.611180 0
M  V30 31 H -0.354358 -4.814059 1.424971 0
M  V30 32 H -0.993388 -2.766460 0.104753 0
M  V30 33 H 1.216454 -1.200433 -2.443991 0
M  V30 34 H -1.768122 3.767601 1.287345 0
M  V30 35 H -0.147510 3.294919 0.626870 0
M  V30 36 H -1.846097 1.985651 2.785959 0
M  V30 37 H -0.070111 2.567672 4.198388 0
M  V30 38 H -0.578753 4.050504 3.347935 0
M  V30 39 H 1.422481 3.814259 1.813522 0
M  V30 40 H 1.818209 3.831071 3.598845 0
M  V30 41 H 2.036671 1.438611 3.653928 0
M  V30 42 H 3.040831 2.095517 2.258519 0
M  V30 43 H 1.132031 1.719356 0.744885 0
M  V30 44 H 1.764724 0.140442 1.443524 0
M  V30 45 H -0.607794 0.025677 1.749407 0
M  V30 46 H 0.017288 0.577084 3.340157 0
M  V30 47 H -4.249598 2.379958 -1.357693 0
M  V30 48 H -4.020853 -0.902596 -4.009925 0
M  V30 49 H 2.823571 -2.974039 -1.928852 0
M  V30 50 H 3.375414 -4.967769 -0.603050 0
M  V30 END ATOM
M  V30 BEGIN BOND
M  V30 1 1 1 2
M  V30 2 2 2 3
M  V30 3 2 2 4
M  V30 4 1 2 5
M  V30 5 2 5 6
M  V30 6 1 6 7
M  V30 7 2 7 8
M  V30 8 1 8 9
M  V30 9 1 9 10
M  V30 10 2 10 11
M  V30 11 1 11 12
M  V30 12 1 12 13
M  V30 13 1 13 14
M  V30 14 1 14 15
M  V30 15 1 15 16
M  V30 16 1 16 17
M  V30 17 1 17 18
M  V30 18 1 18 19
M  V30 19 1 19 20
M  V30 20 2 12 21
M  V30 21 1 21 22
M  V30 22 2 22 23
M  V30 23 1 23 24
M  V30 24 1 24 25
M  V30 25 2 25 26
M  V30 26 1 8 27
M  V30 27 2 27 28
M  V30 28 1 28 5
M  V30 29 1 26 10
M  V30 30 1 20 15
M  V30 31 1 25 21
M  V30 32 1 1 29
M  V30 33 1 1 30
M  V30 34 1 6 31
M  V30 35 1 7 32
M  V30 36 1 9 33
M  V30 37 1 14 34
M  V30 38 1 14 35
M  V30 39 1 15 36
M  V30 40 1 16 37
M  V30 41 1 16 38
M  V30 42 1 17 39
M  V30 43 1 17 40
M  V30 44 1 18 41
M  V30 45 1 18 42
M  V30 46 1 19 43
M  V30 47 1 19 44
M  V30 48 1 20 45
M  V30 49 1 20 46
M  V30 50 1 22 47
M  V30 51 1 24 48
M  V30 52 1 27 49
M  V30 53 1 28 50
M  V30 END BOND
M  V30 END CTAB
M  END
>  <Dataset>  (41) 
ChEMBL_Kinases

>  <Ligand_Instance>  (41) 
nan

>  <PDB_ID>  (41) 
nan

>  <Standardized_SMILES>  (41) 
NS(=O)(=O)c1ccc(Nc2nc(OCC3CCCCC3)c3cn[nH]c3n2)cc1

>  <Name>  (41) 
nan

>  <Pocket>  (41) 
nan

>  <ATP_Site>  (41) 
nan

>  <Peripheral>  (41) 
nan

>  <Num_H_Atoms_ProtBoundConf>  (41) 
nan

>  <Num_Resolved_Atoms>  (41) 
nan

>  <Num_Not_Resolved_Atoms>  (41) 
nan

$$$$
CHEMBL4085116
     RDKit          3D

  0  0  0  0  0  0  0  0  0  0999 V3000
M  V30 BEGIN CTAB
M  V30 COUNTS 58 61 0 0 0
M  V30 BEGIN ATOM
M  V30 1 O -0.065996 -0.979764 1.303073 0
M  V30 2 C -0.140067 -0.983467 2.572089 0
M  V30 3 C 0.656337 0.008252 3.323281 0
M  V30 4 C 1.430600 0.882685 2.704704 0
M  V30 5 C 2.234342 1.878346 3.383687 0
M  V30 6 C 2.285947 2.017171 4.753240 0
M  V30 7 N 3.035297 2.936668 5.387686 0
M  V30 8 C 3.811135 3.812869 4.713169 0
M  V30 9 C 3.762365 3.677259 3.336020 0
M  V30 10 C 3.001036 2.739723 2.627881 0
M  V30 11 C 3.075306 2.763753 1.193666 0
M  V30 12 C 4.332259 2.807706 0.574047 0
M  V30 13 N 4.130766 2.829199 -0.755886 0
M  V30 14 N 2.854514 2.803011 -1.046070 0
M  V30 15 C 2.181300 2.811504 -2.333723 0
M  V30 16 C 1.942334 4.279772 -2.693105 0
M  V30 17 F 3.211937 4.857888 -2.744083 0
M  V30 18 F 1.269167 4.869942 -1.661325 0
M  V30 19 F 1.346827 4.431933 -3.905460 0
M  V30 20 C 2.196834 2.763237 0.126004 0
M  V30 21 N -0.961854 -1.909443 3.269202 0
M  V30 22 C -1.633522 -2.766250 2.322512 0
M  V30 23 C -1.004521 -3.935158 1.947738 0
M  V30 24 C -1.643619 -4.756891 1.042949 0
M  V30 25 C -2.894785 -4.474434 0.481643 0
M  V30 26 C -3.594903 -5.323966 -0.476289 0
M  V30 27 N -3.349390 -5.093064 -1.850856 0
M  V30 28 C -2.018422 -5.225941 -2.324014 0
M  V30 29 C -1.162038 -4.028596 -2.301767 0
M  V30 30 O -1.765847 -2.821727 -2.160330 0
M  V30 31 C -3.088671 -2.717874 -2.392184 0
M  V30 32 C -3.928539 -3.925185 -2.426212 0
M  V30 33 C -3.442199 -3.279612 0.921393 0
M  V30 34 C -2.866912 -2.405893 1.821545 0
M  V30 35 H 0.596009 0.008813 4.402656 0
M  V30 36 H 1.420089 0.794211 1.648263 0
M  V30 37 H 1.711822 1.376667 5.390921 0
M  V30 38 H 4.436167 4.574283 5.151829 0
M  V30 39 H 4.386497 4.380332 2.762176 0
M  V30 40 H 5.367227 2.827638 0.876215 0
M  V30 41 H 2.771112 2.298235 -3.112915 0
M  V30 42 H 1.193247 2.339582 -2.284144 0
M  V30 43 H 1.136956 2.736690 0.316245 0
M  V30 44 H -1.032833 -1.924529 4.312812 0
M  V30 45 H -0.041476 -4.249219 2.318077 0
M  V30 46 H -1.173216 -5.680600 0.730969 0
M  V30 47 H -3.353828 -6.395928 -0.244755 0
M  V30 48 H -4.703477 -5.240238 -0.321816 0
M  V30 49 H -1.460035 -6.077938 -1.833697 0
M  V30 50 H -2.105882 -5.591085 -3.391931 0
M  V30 51 H -0.537837 -3.993532 -3.242258 0
M  V30 52 H -0.404890 -4.121772 -1.495136 0
M  V30 53 H -3.517846 -1.983635 -1.668784 0
M  V30 54 H -3.212606 -2.198912 -3.388910 0
M  V30 55 H -4.229292 -4.207715 -3.476498 0
M  V30 56 H -4.908978 -3.738749 -1.910719 0
M  V30 57 H -4.422533 -3.020161 0.505993 0
M  V30 58 H -3.366804 -1.493943 2.108449 0
M  V30 END ATOM
M  V30 BEGIN BOND
M  V30 1 2 1 2
M  V30 2 1 2 3
M  V30 3 2 3 4
M  V30 4 1 4 5
M  V30 5 2 5 6
M  V30 6 1 6 7
M  V30 7 2 7 8
M  V30 8 1 8 9
M  V30 9 2 9 10
M  V30 10 1 10 11
M  V30 11 1 11 12
M  V30 12 2 12 13
M  V30 13 1 13 14
M  V30 14 1 14 15
M  V30 15 1 15 16
M  V30 16 1 16 17
M  V30 17 1 16 18
M  V30 18 1 16 19
M  V30 19 1 14 20
M  V30 20 1 2 21
M  V30 21 1 21 22
M  V30 22 2 22 23
M  V30 23 1 23 24
M  V30 24 2 24 25
M  V30 25 1 25 26
M  V30 26 1 26 27
M  V30 27 1 27 28
M  V30 28 1 28 29
M  V30 29 1 29 30
M  V30 30 1 30 31
M  V30 31 1 31 32
M  V30 32 1 25 33
M  V30 33 2 33 34
M  V30 34 1 10 5
M  V30 35 2 20 11
M  V30 36 1 34 22
M  V30 37 1 32 27
M  V30 38 1 3 35
M  V30 39 1 4 36
M  V30 40 1 6 37
M  V30 41 1 8 38
M  V30 42 1 9 39
M  V30 43 1 12 40
M  V30 44 1 15 41
M  V30 45 1 15 42
M  V30 46 1 20 43
M  V30 47 1 21 44
M  V30 48 1 23 45
M  V30 49 1 24 46
M  V30 50 1 26 47
M  V30 51 1 26 48
M  V30 52 1 28 49
M  V30 53 1 28 50
M  V30 54 1 29 51
M  V30 55 1 29 52
M  V30 56 1 31 53
M  V30 57 1 31 54
M  V30 58 1 32 55
M  V30 59 1 32 56
M  V30 60 1 33 57
M  V30 61 1 34 58
M  V30 END BOND
M  V30 END CTAB
M  END
>  <Dataset>  (42) 
ChEMBL_Kinases

>  <Ligand_Instance>  (42) 
nan

>  <PDB_ID>  (42) 
nan

>  <Standardized_SMILES>  (42) 
O=C(/C=C/c1cnccc1-c1cnn(CC(F)(F)F)c1)Nc1ccc(CN2CCOCC2)cc1

>  <Name>  (42) 
nan

>  <Pocket>  (42) 
nan

>  <ATP_Site>  (42) 
nan

>  <Peripheral>  (42) 
nan

>  <Num_H_Atoms_ProtBoundConf>  (42) 
nan

>  <Num_Resolved_Atoms>  (42) 
nan

>  <Num_Not_Resolved_Atoms>  (42) 
nan

$$$$
CHEMBL4085086
     RDKit          3D

  0  0  0  0  0  0  0  0  0  0999 V3000
M  V30 BEGIN CTAB
M  V30 COUNTS 51 52 0 0 0
M  V30 BEGIN ATOM
M  V30 1 C 3.537313 -2.760570 5.730745 0
M  V30 2 C 3.067459 -3.113388 4.337049 0
M  V30 3 C 2.283632 -1.943511 3.721422 0
M  V30 4 C 3.091232 -0.724869 3.618056 0
M  V30 5 C 4.312813 -0.617468 2.867877 0
M  V30 6 C 4.557346 -0.723862 1.445756 0
M  V30 7 C 3.960438 0.280261 0.507290 0
M  V30 8 C 2.496402 0.259375 0.441936 0
M  V30 9 O 2.718707 -0.865966 0.908827 0
M  V30 10 N 1.751201 1.360256 -0.041405 0
M  V30 11 N 0.364432 1.157321 -0.029116 0
M  V30 12 C -0.252024 0.600219 -1.155612 0
M  V30 13 O 0.651705 0.372727 -2.035768 0
M  V30 14 C -1.648967 0.300682 -1.373867 0
M  V30 15 C -2.725498 0.471458 -0.568357 0
M  V30 16 O -2.476342 1.014805 0.658520 0
M  V30 17 C -4.009097 0.131899 -0.924981 0
M  V30 18 C -5.016786 0.364530 0.005495 0
M  V30 19 C -6.298389 0.014978 -0.376033 0
M  V30 20 C -6.597344 -0.536444 -1.604352 0
M  V30 21 Cl -8.234527 -0.974074 -2.070240 0
M  V30 22 C -5.561278 -0.749708 -2.498182 0
M  V30 23 C -4.260813 -0.416474 -2.163091 0
M  V30 24 N -3.199407 -0.590501 -2.970982 0
M  V30 25 C -3.457748 -1.163868 -4.267376 0
M  V30 26 C -1.948742 -0.260017 -2.624393 0
M  V30 27 O -1.031295 -0.476583 -3.483063 0
M  V30 28 H 3.457040 -3.658924 6.364825 0
M  V30 29 H 4.577972 -2.376274 5.668792 0
M  V30 30 H 2.842959 -1.955574 6.103415 0
M  V30 31 H 2.332648 -3.959322 4.433092 0
M  V30 32 H 3.869575 -3.358639 3.639587 0
M  V30 33 H 1.749005 -2.345279 2.886181 0
M  V30 34 H 1.491960 -1.742789 4.512869 0
M  V30 35 H 2.422855 0.170818 3.391224 0
M  V30 36 H 3.368022 -0.473434 4.709199 0
M  V30 37 H 5.098876 -1.263687 3.440093 0
M  V30 38 H 4.752431 0.422294 3.162224 0
M  V30 39 H 5.690164 -0.597029 1.299464 0
M  V30 40 H 4.390338 -1.723933 0.983174 0
M  V30 41 H 4.363577 0.120552 -0.548267 0
M  V30 42 H 4.336478 1.314709 0.791479 0
M  V30 43 H 2.320245 2.180934 -0.345093 0
M  V30 44 H -0.240049 1.401429 0.782534 0
M  V30 45 H -2.388411 0.417145 1.489054 0
M  V30 46 H -4.833703 0.794003 0.980313 0
M  V30 47 H -7.160576 0.147954 0.259894 0
M  V30 48 H -5.748439 -1.176980 -3.466063 0
M  V30 49 H -2.561619 -1.060617 -4.905665 0
M  V30 50 H -4.273802 -0.576433 -4.742614 0
M  V30 51 H -3.684268 -2.238841 -4.221209 0
M  V30 END ATOM
M  V30 BEGIN BOND
M  V30 1 1 1 2
M  V30 2 1 2 3
M  V30 3 1 3 4
M  V30 4 1 4 5
M  V30 5 1 5 6
M  V30 6 1 6 7
M  V30 7 1 7 8
M  V30 8 2 8 9
M  V30 9 1 8 10
M  V30 10 1 10 11
M  V30 11 1 11 12
M  V30 12 2 12 13
M  V30 13 1 12 14
M  V30 14 2 14 15
M  V30 15 1 15 16
M  V30 16 1 15 17
M  V30 17 2 17 18
M  V30 18 1 18 19
M  V30 19 2 19 20
M  V30 20 1 20 21
M  V30 21 1 20 22
M  V30 22 2 22 23
M  V30 23 1 23 24
M  V30 24 1 24 25
M  V30 25 1 24 26
M  V30 26 2 26 27
M  V30 27 1 26 14
M  V30 28 1 23 17
M  V30 29 1 1 28
M  V30 30 1 1 29
M  V30 31 1 1 30
M  V30 32 1 2 31
M  V30 33 1 2 32
M  V30 34 1 3 33
M  V30 35 1 3 34
M  V30 36 1 4 35
M  V30 37 1 4 36
M  V30 38 1 5 37
M  V30 39 1 5 38
M  V30 40 1 6 39
M  V30 41 1 6 40
M  V30 42 1 7 41
M  V30 43 1 7 42
M  V30 44 1 10 43
M  V30 45 1 11 44
M  V30 46 1 16 45
M  V30 47 1 18 46
M  V30 48 1 19 47
M  V30 49 1 22 48
M  V30 50 1 25 49
M  V30 51 1 25 50
M  V30 52 1 25 51
M  V30 END BOND
M  V30 END CTAB
M  END
>  <Dataset>  (43) 
ChEMBL_Kinases

>  <Ligand_Instance>  (43) 
nan

>  <PDB_ID>  (43) 
nan

>  <Standardized_SMILES>  (43) 
CCCCCCCC(=O)NNC(=O)c1c(O)c2ccc(Cl)cc2n(C)c1=O

>  <Name>  (43) 
nan

>  <Pocket>  (43) 
nan

>  <ATP_Site>  (43) 
nan

>  <Peripheral>  (43) 
nan

>  <Num_H_Atoms_ProtBoundConf>  (43) 
nan

>  <Num_Resolved_Atoms>  (43) 
nan

>  <Num_Not_Resolved_Atoms>  (43) 
nan

$$$$
CHEMBL4085072
     RDKit          3D

  0  0  0  0  0  0  0  0  0  0999 V3000
M  V30 BEGIN CTAB
M  V30 COUNTS 58 61 0 0 0
M  V30 BEGIN ATOM
M  V30 1 C 2.071329 -3.132124 4.676529 0
M  V30 2 C 2.334942 -1.608768 4.518509 0
M  V30 3 C 3.507130 -1.336435 5.394739 0
M  V30 4 C 2.466452 -1.352164 3.074773 0
M  V30 5 C 2.704237 0.036529 2.601415 0 CFG=2
M  V30 6 C 3.993082 0.577951 3.153928 0
M  V30 7 N 1.645660 0.946112 2.959653 0
M  V30 8 C 2.793223 0.020006 1.071305 0
M  V30 9 O 1.724583 -0.382329 0.376199 0
M  V30 10 C 0.471115 -0.159113 0.071067 0
M  V30 11 C -0.475339 0.784590 0.392740 0
M  V30 12 C -1.777355 0.846064 -0.045560 0
M  V30 13 C -2.162274 -0.160058 -0.905564 0
M  V30 14 C -3.557643 -0.051143 -1.325340 0
M  V30 15 C -4.477275 -0.000643 -0.271262 0
M  V30 16 C -5.834878 0.070903 -0.466636 0
M  V30 17 N -6.304513 0.093727 -1.736578 0
M  V30 18 C -5.437098 0.046778 -2.765101 0
M  V30 19 C -5.842206 0.074573 -4.095242 0
M  V30 20 C -4.946381 0.034320 -5.150911 0
M  V30 21 C -3.592131 -0.036073 -4.908825 0
M  V30 22 C -3.156057 -0.065589 -3.601334 0
M  V30 23 C -4.076098 -0.024692 -2.599901 0
M  V30 24 C -1.263792 -1.165612 -1.289204 0
M  V30 25 C 0.060968 -1.172714 -0.804023 0
M  V30 26 C 0.707899 -2.345121 -1.417872 0
M  V30 27 C 1.260426 -2.451974 -2.741457 0
M  V30 28 C 2.208001 -2.238174 -1.558640 0
M  V30 29 H 3.030081 -3.683931 4.575482 0
M  V30 30 H 1.681782 -3.272888 5.706509 0
M  V30 31 H 1.309260 -3.443646 3.934710 0
M  V30 32 H 1.447422 -1.147538 4.987954 0
M  V30 33 H 4.429713 -1.892208 5.083755 0
M  V30 34 H 3.701497 -0.300216 5.659654 0
M  V30 35 H 3.256040 -1.827395 6.398198 0
M  V30 36 H 1.568661 -1.801364 2.561694 0
M  V30 37 H 3.308299 -2.015088 2.694007 0
M  V30 38 H 4.709175 -0.183149 3.505225 0
M  V30 39 H 3.861315 1.317018 3.973781 0
M  V30 40 H 4.554627 1.081333 2.297729 0
M  V30 41 H 0.760783 0.471117 3.217663 0
M  V30 42 H 1.935413 1.731935 3.552155 0
M  V30 43 H 3.711365 -0.630846 0.885947 0
M  V30 44 H 3.182417 1.042734 0.760480 0
M  V30 45 H -0.126474 1.557087 1.053932 0
M  V30 46 H -2.411562 1.652232 0.294462 0
M  V30 47 H -4.164226 -0.015432 0.770313 0
M  V30 48 H -6.552156 0.110154 0.335628 0
M  V30 49 H -6.914115 0.130524 -4.294993 0
M  V30 50 H -5.385637 0.061883 -6.145016 0
M  V30 51 H -2.925709 -0.065356 -5.747326 0
M  V30 52 H -2.090929 -0.109979 -3.449678 0
M  V30 53 H -1.765982 -1.856360 -1.950728 0
M  V30 54 H 0.385142 -3.301090 -0.919416 0
M  V30 55 H 1.326213 -1.652055 -3.491283 0
M  V30 56 H 1.300587 -3.453435 -3.217332 0
M  V30 57 H 2.737088 -1.288041 -1.488861 0
M  V30 58 H 2.838509 -3.102678 -1.264787 0
M  V30 END ATOM
M  V30 BEGIN BOND
M  V30 1 1 1 2
M  V30 2 1 2 3
M  V30 3 1 2 4
M  V30 4 1 4 5
M  V30 5 1 5 6
M  V30 6 1 5 7 CFG=3
M  V30 7 1 5 8
M  V30 8 1 8 9
M  V30 9 1 9 10
M  V30 10 2 10 11
M  V30 11 1 11 12
M  V30 12 2 12 13
M  V30 13 1 13 14
M  V30 14 2 14 15
M  V30 15 1 15 16
M  V30 16 2 16 17
M  V30 17 1 17 18
M  V30 18 2 18 19
M  V30 19 1 19 20
M  V30 20 2 20 21
M  V30 21 1 21 22
M  V30 22 2 22 23
M  V30 23 1 13 24
M  V30 24 2 24 25
M  V30 25 1 25 26
M  V30 26 1 26 27
M  V30 27 1 27 28
M  V30 28 1 25 10
M  V30 29 1 28 26
M  V30 30 1 23 14
M  V30 31 1 23 18
M  V30 32 1 1 29
M  V30 33 1 1 30
M  V30 34 1 1 31
M  V30 35 1 2 32
M  V30 36 1 3 33
M  V30 37 1 3 34
M  V30 38 1 3 35
M  V30 39 1 4 36
M  V30 40 1 4 37
M  V30 41 1 6 38
M  V30 42 1 6 39
M  V30 43 1 6 40
M  V30 44 1 7 41
M  V30 45 1 7 42
M  V30 46 1 8 43
M  V30 47 1 8 44
M  V30 48 1 11 45
M  V30 49 1 12 46
M  V30 50 1 15 47
M  V30 51 1 16 48
M  V30 52 1 19 49
M  V30 53 1 20 50
M  V30 54 1 21 51
M  V30 55 1 22 52
M  V30 56 1 24 53
M  V30 57 1 26 54
M  V30 58 1 27 55
M  V30 59 1 27 56
M  V30 60 1 28 57
M  V30 61 1 28 58
M  V30 END BOND
M  V30 END CTAB
M  END
>  <Dataset>  (44) 
ChEMBL_Kinases

>  <Ligand_Instance>  (44) 
nan

>  <PDB_ID>  (44) 
nan

>  <Standardized_SMILES>  (44) 
CC(C)C[C@](C)(N)COc1ccc(-c2ccnc3ccccc23)cc1C1CC1

>  <Name>  (44) 
nan

>  <Pocket>  (44) 
nan

>  <ATP_Site>  (44) 
nan

>  <Peripheral>  (44) 
nan

>  <Num_H_Atoms_ProtBoundConf>  (44) 
nan

>  <Num_Resolved_Atoms>  (44) 
nan

>  <Num_Not_Resolved_Atoms>  (44) 
nan

$$$$
CHEMBL4085036
     RDKit          3D

  0  0  0  0  0  0  0  0  0  0999 V3000
M  V30 BEGIN CTAB
M  V30 COUNTS 87 92 0 0 0
M  V30 BEGIN ATOM
M  V30 1 C 7.439494 -2.102891 7.246121 0
M  V30 2 C 6.355065 -1.285852 6.582298 0
M  V30 3 N 5.388270 -2.154449 5.947506 0
M  V30 4 C 4.352753 -1.423322 5.311776 0
M  V30 5 O 4.503168 -0.192645 5.440084 0
M  V30 6 C 3.265293 -2.091067 4.605115 0
M  V30 7 N 3.146614 -3.451119 4.537773 0
M  V30 8 C 2.042850 -3.750186 3.831818 0
M  V30 9 N 1.430700 -2.612517 3.433519 0
M  V30 10 C 2.186551 -1.610091 3.907140 0
M  V30 11 C 1.840303 -0.177771 3.549683 0 CFG=1
M  V30 12 C 2.823474 0.139038 2.443646 0
M  V30 13 C 2.755380 1.500028 1.869245 0
M  V30 14 N 0.472457 -0.071702 3.108852 0
M  V30 15 C -0.118450 1.227523 3.228006 0
M  V30 16 C -1.573815 1.324927 2.838970 0
M  V30 17 C -1.956645 2.698106 3.371217 0
M  V30 18 C -1.032858 2.939858 4.517772 0
M  V30 19 C -0.228769 1.654786 4.700347 0
M  V30 20 C -0.265452 -1.181293 2.607231 0
M  V30 21 N -1.437189 -1.053444 1.960251 0
M  V30 22 C -2.158871 -2.076816 1.474913 0
M  V30 23 N -3.377681 -1.739186 0.819553 0
M  V30 24 C -3.445590 -1.419506 -0.583728 0
M  V30 25 C -2.232911 -1.443690 -1.274365 0
M  V30 26 C -2.160225 -1.152074 -2.617134 0
M  V30 27 C -3.300591 -0.824470 -3.320845 0
M  V30 28 C -3.396493 -0.488998 -4.737892 0
M  V30 29 O -4.456725 -0.198202 -5.359220 0
M  V30 30 N -2.232110 -0.459444 -5.591964 0
M  V30 31 C -2.359017 -0.124532 -6.984725 0
M  V30 32 C -1.924645 -1.301184 -7.807283 0
M  V30 33 C -0.446942 -1.511272 -7.862215 0
M  V30 34 N 0.281637 -0.396842 -7.245603 0
M  V30 35 C 1.674156 -0.605565 -7.595952 0
M  V30 36 C -0.199329 0.842838 -7.824076 0
M  V30 37 C -1.578787 1.123628 -7.326462 0
M  V30 38 C -4.495391 -0.803434 -2.627883 0
M  V30 39 C -4.591953 -1.092303 -1.282719 0
M  V30 40 O -5.774044 -1.081227 -0.556822 0
M  V30 41 C -7.010535 -0.766978 -1.133753 0
M  V30 42 N -1.663341 -3.324273 1.654747 0
M  V30 43 C -0.495679 -3.543946 2.292100 0
M  V30 44 C 0.207421 -2.477125 2.769973 0
M  V30 45 H 8.239854 -2.426607 6.550765 0
M  V30 46 H 7.949342 -1.526048 8.044534 0
M  V30 47 H 7.020496 -3.047499 7.680912 0
M  V30 48 H 5.893039 -0.646059 7.370530 0
M  V30 49 H 6.878535 -0.613216 5.859141 0
M  V30 50 H 5.405402 -3.213662 5.929982 0
M  V30 51 H 1.808051 -4.811403 3.687392 0
M  V30 52 H 1.965779 0.423949 4.457790 0
M  V30 53 H 2.602392 -0.579576 1.613453 0
M  V30 54 H 3.849084 -0.033947 2.818070 0
M  V30 55 H 2.031518 1.549295 1.042202 0
M  V30 56 H 3.753207 1.655673 1.341196 0
M  V30 57 H 2.727463 2.339598 2.584271 0
M  V30 58 H 0.391373 2.035359 2.667798 0
M  V30 59 H -2.146623 0.602596 3.446757 0
M  V30 60 H -1.760682 1.250343 1.752542 0
M  V30 61 H -2.985526 2.670624 3.776894 0
M  V30 62 H -1.840266 3.403899 2.540178 0
M  V30 63 H -0.294899 3.725064 4.181876 0
M  V30 64 H -1.505558 3.292196 5.434409 0
M  V30 65 H 0.737519 1.948586 5.119202 0
M  V30 66 H -0.745115 0.891014 5.280036 0
M  V30 67 H -4.301326 -1.699497 1.303844 0
M  V30 68 H -1.302418 -1.693155 -0.783019 0
M  V30 69 H -1.250584 -1.157894 -3.192812 0
M  V30 70 H -1.295540 -0.678583 -5.212974 0
M  V30 71 H -3.412478 0.087768 -7.280266 0
M  V30 72 H -2.477245 -2.191942 -7.446268 0
M  V30 73 H -2.294807 -1.113436 -8.839197 0
M  V30 74 H -0.122405 -1.649564 -8.907982 0
M  V30 75 H -0.205398 -2.419302 -7.259212 0
M  V30 76 H 1.815741 -0.606606 -8.716220 0
M  V30 77 H 2.375184 0.075024 -7.113408 0
M  V30 78 H 1.925879 -1.643527 -7.288027 0
M  V30 79 H -0.181494 0.791520 -8.937042 0
M  V30 80 H 0.465180 1.669031 -7.521490 0
M  V30 81 H -1.529953 1.790061 -6.438287 0
M  V30 82 H -2.105607 1.723874 -8.106188 0
M  V30 83 H -5.434407 -0.558347 -3.097789 0
M  V30 84 H -7.411080 -1.620888 -1.713460 0
M  V30 85 H -6.851865 0.109069 -1.794971 0
M  V30 86 H -7.766950 -0.513830 -0.367554 0
M  V30 87 H -0.143169 -4.563957 2.409420 0
M  V30 END ATOM
M  V30 BEGIN BOND
M  V30 1 1 1 2
M  V30 2 1 2 3
M  V30 3 1 3 4
M  V30 4 2 4 5
M  V30 5 1 4 6
M  V30 6 1 6 7
M  V30 7 2 7 8
M  V30 8 1 8 9
M  V30 9 1 9 10
M  V30 10 1 10 11
M  V30 11 1 11 12
M  V30 12 1 12 13
M  V30 13 1 11 14
M  V30 14 1 14 15
M  V30 15 1 15 16
M  V30 16 1 16 17
M  V30 17 1 17 18
M  V30 18 1 18 19
M  V30 19 1 14 20
M  V30 20 2 20 21
M  V30 21 1 21 22
M  V30 22 1 22 23
M  V30 23 1 23 24
M  V30 24 2 24 25
M  V30 25 1 25 26
M  V30 26 2 26 27
M  V30 27 1 27 28
M  V30 28 2 28 29
M  V30 29 1 28 30
M  V30 30 1 30 31
M  V30 31 1 31 32
M  V30 32 1 32 33
M  V30 33 1 33 34
M  V30 34 1 34 35
M  V30 35 1 34 36
M  V30 36 1 36 37
M  V30 37 1 27 38
M  V30 38 2 38 39
M  V30 39 1 39 40
M  V30 40 1 40 41
M  V30 41 2 22 42
M  V30 42 1 42 43
M  V30 43 2 43 44
M  V30 44 2 10 6
M  V30 45 1 19 15
M  V30 46 1 44 20
M  V30 47 1 44 9
M  V30 48 1 39 24
M  V30 49 1 37 31
M  V30 50 1 1 45
M  V30 51 1 1 46
M  V30 52 1 1 47
M  V30 53 1 2 48
M  V30 54 1 2 49
M  V30 55 1 3 50
M  V30 56 1 8 51
M  V30 57 1 11 52 CFG=1
M  V30 58 1 12 53
M  V30 59 1 12 54
M  V30 60 1 13 55
M  V30 61 1 13 56
M  V30 62 1 13 57
M  V30 63 1 15 58
M  V30 64 1 16 59
M  V30 65 1 16 60
M  V30 66 1 17 61
M  V30 67 1 17 62
M  V30 68 1 18 63
M  V30 69 1 18 64
M  V30 70 1 19 65
M  V30 71 1 19 66
M  V30 72 1 23 67
M  V30 73 1 25 68
M  V30 74 1 26 69
M  V30 75 1 30 70
M  V30 76 1 31 71
M  V30 77 1 32 72
M  V30 78 1 32 73
M  V30 79 1 33 74
M  V30 80 1 33 75
M  V30 81 1 35 76
M  V30 82 1 35 77
M  V30 83 1 35 78
M  V30 84 1 36 79
M  V30 85 1 36 80
M  V30 86 1 37 81
M  V30 87 1 37 82
M  V30 88 1 38 83
M  V30 89 1 41 84
M  V30 90 1 41 85
M  V30 91 1 41 86
M  V30 92 1 43 87
M  V30 END BOND
M  V30 END CTAB
M  END
>  <Dataset>  (45) 
ChEMBL_Kinases

>  <Ligand_Instance>  (45) 
nan

>  <PDB_ID>  (45) 
nan

>  <Standardized_SMILES>  (45) 
CCNC(=O)c1ncn2c1[C@@H](CC)N(C1CCCC1)c1nc(Nc3ccc(C(=O)NC4CCN(C)CC4)cc3OC)ncc1-2

>  <Name>  (45) 
nan

>  <Pocket>  (45) 
nan

>  <ATP_Site>  (45) 
nan

>  <Peripheral>  (45) 
nan

>  <Num_H_Atoms_ProtBoundConf>  (45) 
nan

>  <Num_Resolved_Atoms>  (45) 
nan

>  <Num_Not_Resolved_Atoms>  (45) 
nan

$$$$
CHEMBL4851548
     RDKit          3D

  0  0  0  0  0  0  0  0  0  0999 V3000
M  V30 BEGIN CTAB
M  V30 COUNTS 42 45 0 0 0
M  V30 BEGIN ATOM
M  V30 1 C 2.992006 -2.931392 4.098184 0
M  V30 2 C 3.468116 -1.910052 3.069606 0
M  V30 3 C 4.930969 -2.219178 2.830439 0
M  V30 4 N 3.279970 -0.562075 3.575266 0
M  V30 5 C 3.396048 -0.248550 4.891646 0
M  V30 6 N 3.162050 1.068051 5.014421 0
M  V30 7 N 2.901681 1.621255 3.852048 0
M  V30 8 C 2.974813 0.603317 2.949258 0
M  V30 9 C 2.771977 0.630496 1.512716 0
M  V30 10 C 3.704215 0.293666 0.559611 0
M  V30 11 C 3.544256 0.298608 -0.808250 0
M  V30 12 C 2.298585 0.688153 -1.278494 0
M  V30 13 C 1.360444 1.027032 -0.327141 0
M  V30 14 N 0.080924 1.432638 -0.738284 0
M  V30 15 C -0.557134 0.139576 -0.703325 0
M  V30 16 O 0.083462 -0.895865 -0.351998 0
M  V30 17 C -2.007148 -0.128359 -1.075843 0
M  V30 18 N -2.906282 0.481238 -1.425463 0
M  V30 19 C -4.133988 0.059388 -1.712787 0
M  V30 20 C -5.229643 0.811177 -2.145598 0
M  V30 21 C -6.409113 0.155738 -2.386495 0
M  V30 22 C -6.645083 -1.194838 -2.247007 0
M  V30 23 C -5.544352 -1.941596 -1.813381 0
M  V30 24 C -4.340313 -1.311778 -1.561771 0
M  V30 25 S -2.727011 -1.867259 -1.014461 0
M  V30 26 N 1.567773 1.005752 1.001472 0
M  V30 27 H 3.841626 -3.485966 4.556464 0
M  V30 28 H 2.430612 -2.436135 4.906423 0
M  V30 29 H 2.328944 -3.671895 3.614372 0
M  V30 30 H 2.847676 -2.045330 2.142688 0
M  V30 31 H 5.559213 -1.524933 3.422327 0
M  V30 32 H 5.214954 -2.172957 1.783095 0
M  V30 33 H 5.218636 -3.234563 3.209987 0
M  V30 34 H 3.632709 -0.915033 5.725365 0
M  V30 35 H 4.673529 -0.008021 0.912764 0
M  V30 36 H 4.343286 0.013643 -1.477371 0
M  V30 37 H 2.147943 0.701007 -2.333141 0
M  V30 38 H -0.751741 2.009474 -1.071283 0
M  V30 39 H -5.230292 1.885307 -2.311732 0
M  V30 40 H -7.284549 0.709773 -2.726705 0
M  V30 41 H -7.563126 -1.711583 -2.433538 0
M  V30 42 H -5.561750 -3.010479 -1.652368 0
M  V30 END ATOM
M  V30 BEGIN BOND
M  V30 1 1 1 2
M  V30 2 1 2 3
M  V30 3 1 2 4
M  V30 4 1 4 5
M  V30 5 2 5 6
M  V30 6 1 6 7
M  V30 7 2 7 8
M  V30 8 1 8 9
M  V30 9 2 9 10
M  V30 10 1 10 11
M  V30 11 2 11 12
M  V30 12 1 12 13
M  V30 13 1 13 14
M  V30 14 1 14 15
M  V30 15 2 15 16
M  V30 16 1 15 17
M  V30 17 2 17 18
M  V30 18 1 18 19
M  V30 19 2 19 20
M  V30 20 1 20 21
M  V30 21 2 21 22
M  V30 22 1 22 23
M  V30 23 2 23 24
M  V30 24 1 24 25
M  V30 25 2 13 26
M  V30 26 1 8 4
M  V30 27 1 26 9
M  V30 28 1 25 17
M  V30 29 1 24 19
M  V30 30 1 1 27
M  V30 31 1 1 28
M  V30 32 1 1 29
M  V30 33 1 2 30
M  V30 34 1 3 31
M  V30 35 1 3 32
M  V30 36 1 3 33
M  V30 37 1 5 34
M  V30 38 1 10 35
M  V30 39 1 11 36
M  V30 40 1 12 37
M  V30 41 1 14 38
M  V30 42 1 20 39
M  V30 43 1 21 40
M  V30 44 1 22 41
M  V30 45 1 23 42
M  V30 END BOND
M  V30 END CTAB
M  END
>  <Dataset>  (46) 
ChEMBL_Kinases

>  <Ligand_Instance>  (46) 
nan

>  <PDB_ID>  (46) 
nan

>  <Standardized_SMILES>  (46) 
CC(C)n1cnnc1-c1cccc(NC(=O)c2nc3ccccc3s2)n1

>  <Name>  (46) 
nan

>  <Pocket>  (46) 
nan

>  <ATP_Site>  (46) 
nan

>  <Peripheral>  (46) 
nan

>  <Num_H_Atoms_ProtBoundConf>  (46) 
nan

>  <Num_Resolved_Atoms>  (46) 
nan

>  <Num_Not_Resolved_Atoms>  (46) 
nan

$$$$
CHEMBL4084957
     RDKit          3D

  0  0  0  0  0  0  0  0  0  0999 V3000
M  V30 BEGIN CTAB
M  V30 COUNTS 33 36 0 0 0
M  V30 BEGIN ATOM
M  V30 1 C -0.463045 -4.855341 -2.561344 0
M  V30 2 S -0.890651 -4.681487 -0.822485 0
M  V30 3 C -0.482394 -3.081916 -0.172185 0
M  V30 4 S 1.121974 -2.658167 0.581924 0
M  V30 5 C 0.805151 -1.026005 0.960232 0
M  V30 6 C 1.828016 -0.260214 1.594800 0
M  V30 7 O 2.932380 -0.857134 1.841238 0
M  V30 8 N 1.939806 1.082302 2.052161 0
M  V30 9 C 3.137248 1.539887 2.658874 0
M  V30 10 C 4.323301 2.113965 2.318053 0
M  V30 11 C 5.139369 2.335555 3.451865 0
M  V30 12 S 4.316632 1.784172 4.896852 0
M  V30 13 N 2.791265 1.209196 4.046219 0
M  V30 14 C -0.539193 -0.801109 0.506145 0
M  V30 15 C -1.111083 -1.895093 -0.052053 0
M  V30 16 C -2.530403 -1.672421 -0.528400 0
M  V30 17 S -3.660439 -2.815347 -1.322750 0
M  V30 18 N -5.042531 -1.570242 -1.470092 0
M  V30 19 C -4.469206 -0.513424 -0.918247 0
M  V30 20 C -3.212303 -0.458788 -0.414018 0
M  V30 21 C -2.549903 0.683821 0.202189 0
M  V30 22 C -1.184117 0.495582 0.641357 0
M  V30 23 H 0.134535 -5.779238 -2.710036 0
M  V30 24 H 0.170269 -4.019574 -2.923774 0
M  V30 25 H -1.376030 -4.923227 -3.189627 0
M  V30 26 H 1.066467 1.637148 1.884858 0
M  V30 27 H 4.331291 2.252150 1.254311 0
M  V30 28 H 6.153241 2.827781 3.148640 0
M  V30 29 H -5.214179 0.266146 -0.963790 0
M  V30 30 H -3.238846 1.026418 1.034866 0
M  V30 31 H -2.621979 1.562855 -0.509871 0
M  V30 32 H -0.523519 1.297722 0.177107 0
M  V30 33 H -1.140143 0.771958 1.742085 0
M  V30 END ATOM
M  V30 BEGIN BOND
M  V30 1 1 1 2
M  V30 2 1 2 3
M  V30 3 1 3 4
M  V30 4 1 4 5
M  V30 5 1 5 6
M  V30 6 2 6 7
M  V30 7 1 6 8
M  V30 8 1 8 9
M  V30 9 1 9 10
M  V30 10 2 10 11
M  V30 11 1 11 12
M  V30 12 1 12 13
M  V30 13 2 5 14
M  V30 14 1 14 15
M  V30 15 1 15 16
M  V30 16 1 16 17
M  V30 17 1 17 18
M  V30 18 2 18 19
M  V30 19 1 19 20
M  V30 20 1 20 21
M  V30 21 1 21 22
M  V30 22 2 15 3
M  V30 23 2 20 16
M  V30 24 2 13 9
M  V30 25 1 22 14
M  V30 26 1 1 23
M  V30 27 1 1 24
M  V30 28 1 1 25
M  V30 29 1 8 26
M  V30 30 1 10 27
M  V30 31 1 11 28
M  V30 32 1 19 29
M  V30 33 1 21 30
M  V30 34 1 21 31
M  V30 35 1 22 32
M  V30 36 1 22 33
M  V30 END BOND
M  V30 END CTAB
M  END
>  <Dataset>  (47) 
ChEMBL_Kinases

>  <Ligand_Instance>  (47) 
nan

>  <PDB_ID>  (47) 
nan

>  <Standardized_SMILES>  (47) 
CSc1sc(C(=O)Nc2ccsn2)c2c1-c1sncc1CC2

>  <Name>  (47) 
nan

>  <Pocket>  (47) 
nan

>  <ATP_Site>  (47) 
nan

>  <Peripheral>  (47) 
nan

>  <Num_H_Atoms_ProtBoundConf>  (47) 
nan

>  <Num_Resolved_Atoms>  (47) 
nan

>  <Num_Not_Resolved_Atoms>  (47) 
nan

$$$$
CHEMBL4852798
     RDKit          3D

  0  0  0  0  0  0  0  0  0  0999 V3000
M  V30 BEGIN CTAB
M  V30 COUNTS 59 63 0 0 0
M  V30 BEGIN ATOM
M  V30 1 C 2.208244 -1.050328 5.075702 0
M  V30 2 C 2.572788 -1.594980 3.694690 0
M  V30 3 O 3.672575 -0.998727 3.140253 0
M  V30 4 C 4.087583 -1.400033 1.920593 0
M  V30 5 C 5.460089 -1.931922 1.775639 0
M  V30 6 N 3.921996 -0.314111 0.968340 0
M  V30 7 C 2.747027 0.040279 0.419200 0
M  V30 8 C 2.935760 1.117919 -0.450603 0
M  V30 9 C 1.809291 1.701915 -1.183042 0
M  V30 10 C 1.918817 2.279098 -2.431521 0
M  V30 11 N 0.849332 2.803626 -3.064444 0
M  V30 12 C -0.384607 2.781906 -2.489713 0
M  V30 13 C -0.586260 2.219309 -1.231975 0
M  V30 14 C -1.895911 2.178538 -0.584616 0
M  V30 15 N -2.778732 3.197942 -0.512679 0
M  V30 16 N -3.867095 2.836916 0.138943 0
M  V30 17 C -3.767608 1.539260 0.542398 0
M  V30 18 C -4.570377 0.657126 1.237278 0
M  V30 19 C -4.153693 -0.632332 1.484631 0
M  V30 20 C -2.918414 -1.048870 1.032632 0
M  V30 21 C -2.397833 -2.413848 1.255798 0
M  V30 22 N -2.000123 -2.973911 2.412490 0
M  V30 23 N -1.619708 -4.202513 2.103989 0
M  V30 24 C -1.783249 -4.386828 0.781606 0
M  V30 25 N -2.273026 -3.268434 0.232618 0
M  V30 26 C -2.578824 -3.089047 -1.169502 0
M  V30 27 C -3.394867 -4.236355 -1.732300 0
M  V30 28 C -1.260678 -3.028526 -1.919082 0
M  V30 29 C -2.107543 -0.154165 0.329416 0
M  V30 30 C -2.525276 1.138232 0.081540 0
M  V30 31 C 0.531982 1.699480 -0.629733 0
M  V30 32 C 4.265192 1.385418 -0.393769 0
M  V30 33 N 4.827310 0.507406 0.467154 0
M  V30 34 H 1.107589 -1.081539 5.211825 0
M  V30 35 H 2.624071 -1.776409 5.803961 0
M  V30 36 H 2.540635 -0.026877 5.219756 0
M  V30 37 H 2.587819 -2.693356 3.683554 0
M  V30 38 H 1.700843 -1.310966 3.049591 0
M  V30 39 H 3.382890 -2.209681 1.585554 0
M  V30 40 H 6.249081 -1.161866 1.632038 0
M  V30 41 H 5.791894 -2.627615 2.559743 0
M  V30 42 H 5.481475 -2.539760 0.830838 0
M  V30 43 H 1.795655 -0.460478 0.639487 0
M  V30 44 H 2.910439 2.301242 -2.903239 0
M  V30 45 H -1.247171 3.203501 -2.997451 0
M  V30 46 H -4.738129 3.369529 0.374619 0
M  V30 47 H -5.548020 1.001534 1.589889 0
M  V30 48 H -4.771318 -1.320385 2.022444 0
M  V30 49 H -1.537497 -5.324939 0.287283 0
M  V30 50 H -3.110126 -2.131427 -1.347351 0
M  V30 51 H -3.218899 -5.183946 -1.179629 0
M  V30 52 H -3.159262 -4.403195 -2.805910 0
M  V30 53 H -4.462106 -3.933511 -1.680284 0
M  V30 54 H -1.300691 -2.297702 -2.755415 0
M  V30 55 H -0.453794 -2.652607 -1.233450 0
M  V30 56 H -0.925374 -4.030535 -2.252987 0
M  V30 57 H -1.144262 -0.506423 -0.013633 0
M  V30 58 H 0.458867 1.239736 0.359237 0
M  V30 59 H 4.710102 2.183297 -0.972854 0
M  V30 END ATOM
M  V30 BEGIN BOND
M  V30 1 1 1 2
M  V30 2 1 2 3
M  V30 3 1 3 4
M  V30 4 1 4 5
M  V30 5 1 4 6
M  V30 6 1 6 7
M  V30 7 2 7 8
M  V30 8 1 8 9
M  V30 9 2 9 10
M  V30 10 1 10 11
M  V30 11 2 11 12
M  V30 12 1 12 13
M  V30 13 1 13 14
M  V30 14 2 14 15
M  V30 15 1 15 16
M  V30 16 1 16 17
M  V30 17 2 17 18
M  V30 18 1 18 19
M  V30 19 2 19 20
M  V30 20 1 20 21
M  V30 21 2 21 22
M  V30 22 1 22 23
M  V30 23 2 23 24
M  V30 24 1 24 25
M  V30 25 1 25 26
M  V30 26 1 26 27
M  V30 27 1 26 28
M  V30 28 1 20 29
M  V30 29 2 29 30
M  V30 30 2 13 31
M  V30 31 1 8 32
M  V30 32 2 32 33
M  V30 33 1 33 6
M  V30 34 1 31 9
M  V30 35 1 30 14
M  V30 36 1 30 17
M  V30 37 1 25 21
M  V30 38 1 1 34
M  V30 39 1 1 35
M  V30 40 1 1 36
M  V30 41 1 2 37
M  V30 42 1 2 38
M  V30 43 1 4 39
M  V30 44 1 5 40
M  V30 45 1 5 41
M  V30 46 1 5 42
M  V30 47 1 7 43
M  V30 48 1 10 44
M  V30 49 1 12 45
M  V30 50 1 16 46
M  V30 51 1 18 47
M  V30 52 1 19 48
M  V30 53 1 24 49
M  V30 54 1 26 50
M  V30 55 1 27 51
M  V30 56 1 27 52
M  V30 57 1 27 53
M  V30 58 1 28 54
M  V30 59 1 28 55
M  V30 60 1 28 56
M  V30 61 1 29 57
M  V30 62 1 31 58
M  V30 63 1 32 59
M  V30 END BOND
M  V30 END CTAB
M  END
>  <Dataset>  (48) 
ChEMBL_Kinases

>  <Ligand_Instance>  (48) 
nan

>  <PDB_ID>  (48) 
nan

>  <Standardized_SMILES>  (48) 
CCOC(C)n1cc(-c2cncc(-c3n[nH]c4ccc(-c5nncn5C(C)C)cc34)c2)cn1

>  <Name>  (48) 
nan

>  <Pocket>  (48) 
nan

>  <ATP_Site>  (48) 
nan

>  <Peripheral>  (48) 
nan

>  <Num_H_Atoms_ProtBoundConf>  (48) 
nan

>  <Num_Resolved_Atoms>  (48) 
nan

>  <Num_Not_Resolved_Atoms>  (48) 
nan

$$$$
CHEMBL4851694
     RDKit          3D

  0  0  0  0  0  0  0  0  0  0999 V3000
M  V30 BEGIN CTAB
M  V30 COUNTS 58 62 0 0 0
M  V30 BEGIN ATOM
M  V30 1 N 0.683527 0.816598 5.235678 0
M  V30 2 C 1.634293 0.211328 4.692126 0
M  V30 3 C 2.656698 -0.406504 4.127357 0
M  V30 4 C 3.479483 -1.449142 4.457729 0
M  V30 5 C 4.494706 -1.915360 3.704509 0
M  V30 6 C 4.814129 -1.359850 2.495853 0
M  V30 7 N 5.797202 -1.738367 1.644807 0
M  V30 8 C 6.109024 -1.174937 0.495061 0
M  V30 9 C 5.360684 -0.058552 0.054124 0
M  V30 10 C 4.329308 0.414301 0.799751 0
M  V30 11 N 3.428484 1.449485 0.627071 0
M  V30 12 C 2.745631 2.604658 0.168966 0
M  V30 13 C 1.571359 2.514978 -0.729914 0
M  V30 14 C 0.331679 1.909291 -0.262973 0
M  V30 15 C -0.903904 2.610604 -0.385955 0
M  V30 16 C -2.167406 2.075933 -0.052877 0
M  V30 17 C -2.123804 0.765536 0.436945 0
M  V30 18 C -3.424980 0.254599 0.482274 0
M  V30 19 C -3.712768 -1.125640 0.723075 0
M  V30 20 C -4.067430 -2.503668 0.943130 0
M  V30 21 O -4.297388 -3.208665 1.962388 0
M  V30 22 N -4.020151 -2.811026 -0.476714 0
M  V30 23 C -3.872787 -4.202878 -0.765315 0
M  V30 24 C -3.441977 -4.591384 -2.149941 0
M  V30 25 N -3.023383 -3.403444 -2.886746 0
M  V30 26 C -4.231408 -2.579063 -2.887073 0
M  V30 27 C -4.317232 -1.903710 -1.569001 0
M  V30 28 C -2.332683 -1.719869 0.934918 0
M  V30 29 C -0.969433 -1.327777 0.919457 0
M  V30 30 C -1.013574 0.052714 0.600115 0
M  V30 31 C 0.093918 0.707578 0.222947 0
M  V30 32 C 4.037854 -0.257412 2.045741 0
M  V30 33 C 3.034099 0.116178 2.887280 0
M  V30 34 H 3.190035 -1.893839 5.435052 0
M  V30 35 H 5.102326 -2.728461 3.961448 0
M  V30 36 H 6.946020 -1.538371 -0.056087 0
M  V30 37 H 5.549641 0.490533 -0.900442 0
M  V30 38 H 2.428196 1.520850 0.968557 0
M  V30 39 H 3.597642 3.173231 -0.494987 0
M  V30 40 H 2.672177 3.406030 0.916543 0
M  V30 41 H 1.343592 3.640002 -0.963483 0
M  V30 42 H 1.954360 2.201677 -1.715117 0
M  V30 43 H -0.952927 3.642720 -0.793086 0
M  V30 44 H -3.126320 2.611532 -0.142865 0
M  V30 45 H -4.414100 0.516058 0.397226 0
M  V30 46 H -4.511467 -4.916326 -0.237863 0
M  V30 47 H -2.797902 -4.370118 -0.197971 0
M  V30 48 H -2.478664 -5.177907 -2.132538 0
M  V30 49 H -4.106333 -5.186977 -2.749756 0
M  V30 50 H -2.304054 -2.920920 -2.317062 0
M  V30 51 H -5.108460 -3.315069 -3.072360 0
M  V30 52 H -4.253030 -1.811850 -3.702305 0
M  V30 53 H -5.423618 -1.590154 -1.512601 0
M  V30 54 H -3.667971 -1.028152 -1.527516 0
M  V30 55 H -2.024066 -2.782109 1.236165 0
M  V30 56 H 0.040717 -1.780894 1.061122 0
M  V30 57 H 0.951915 0.066835 0.400302 0
M  V30 58 H 2.455127 0.967289 2.532099 0
M  V30 END ATOM
M  V30 BEGIN BOND
M  V30 1 3 1 2
M  V30 2 1 2 3
M  V30 3 2 3 4
M  V30 4 1 4 5
M  V30 5 2 5 6
M  V30 6 1 6 7
M  V30 7 2 7 8
M  V30 8 1 8 9
M  V30 9 2 9 10
M  V30 10 1 10 11
M  V30 11 1 11 12
M  V30 12 1 12 13
M  V30 13 1 13 14
M  V30 14 2 14 15
M  V30 15 1 15 16
M  V30 16 2 16 17
M  V30 17 1 17 18
M  V30 18 2 18 19
M  V30 19 1 19 20
M  V30 20 2 20 21
M  V30 21 1 20 22
M  V30 22 1 22 23
M  V30 23 1 23 24
M  V30 24 1 24 25
M  V30 25 1 25 26
M  V30 26 1 26 27
M  V30 27 1 19 28
M  V30 28 2 28 29
M  V30 29 1 29 30
M  V30 30 2 30 31
M  V30 31 1 10 32
M  V30 32 2 32 33
M  V30 33 1 33 3
M  V30 34 1 32 6
M  V30 35 1 31 14
M  V30 36 1 30 17
M  V30 37 1 27 22
M  V30 38 1 4 34
M  V30 39 1 5 35
M  V30 40 1 8 36
M  V30 41 1 9 37
M  V30 42 1 11 38
M  V30 43 1 12 39
M  V30 44 1 12 40
M  V30 45 1 13 41
M  V30 46 1 13 42
M  V30 47 1 15 43
M  V30 48 1 16 44
M  V30 49 1 18 45
M  V30 50 1 23 46
M  V30 51 1 23 47
M  V30 52 1 24 48
M  V30 53 1 24 49
M  V30 54 1 25 50
M  V30 55 1 26 51
M  V30 56 1 26 52
M  V30 57 1 27 53
M  V30 58 1 27 54
M  V30 59 1 28 55
M  V30 60 1 29 56
M  V30 61 1 31 57
M  V30 62 1 33 58
M  V30 END BOND
M  V30 END CTAB
M  END
>  <Dataset>  (49) 
ChEMBL_Kinases

>  <Ligand_Instance>  (49) 
nan

>  <PDB_ID>  (49) 
nan

>  <Standardized_SMILES>  (49) 
N#Cc1ccc2nccc(NCCc3ccc4cc(C(=O)N5CCNCC5)ccc4c3)c2c1

>  <Name>  (49) 
nan

>  <Pocket>  (49) 
nan

>  <ATP_Site>  (49) 
nan

>  <Peripheral>  (49) 
nan

>  <Num_H_Atoms_ProtBoundConf>  (49) 
nan

>  <Num_Resolved_Atoms>  (49) 
nan

>  <Num_Not_Resolved_Atoms>  (49) 
nan

$$$$
CHEMBL4084945
     RDKit          3D

  0  0  0  0  0  0  0  0  0  0999 V3000
M  V30 BEGIN CTAB
M  V30 COUNTS 42 45 0 0 0
M  V30 BEGIN ATOM
M  V30 1 C -0.758969 -4.862711 -2.551073 0
M  V30 2 C 0.750002 -5.029000 -2.552684 0
M  V30 3 C 1.278777 -5.266190 -1.195696 0
M  V30 4 N 1.688681 -6.437143 -0.674321 0
M  V30 5 N 2.099416 -6.277228 0.574167 0
M  V30 6 C 1.985955 -4.975903 0.961345 0
M  V30 7 C 1.472151 -4.372909 -0.163312 0
M  V30 8 C 1.172215 -2.913491 -0.223819 0
M  V30 9 C 1.300772 -1.954987 0.659283 0
M  V30 10 C 0.934178 -0.686741 0.302017 0
M  V30 11 N 0.978316 0.442340 1.035467 0
M  V30 12 C 0.588075 1.637322 0.569665 0
M  V30 13 C 0.640665 2.880256 1.385901 0
M  V30 14 N -0.583156 3.135037 2.117745 0
M  V30 15 C -0.489743 4.386274 2.844826 0
M  V30 16 C 0.244207 4.019568 4.093678 0
M  V30 17 C -0.224379 2.622668 4.413601 0
M  V30 18 C -0.758405 2.103332 3.095766 0
M  V30 19 N 0.107267 1.821684 -0.697594 0
M  V30 20 C 0.028092 0.739715 -1.505501 0
M  V30 21 O -0.378544 0.717194 -2.673199 0
M  V30 22 C 0.454452 -0.461195 -0.940139 0
M  V30 23 S 0.522481 -2.175688 -1.672053 0
M  V30 24 H -1.017801 -4.137160 -3.330944 0
M  V30 25 H -1.243090 -5.832235 -2.869311 0
M  V30 26 H -1.175949 -4.661103 -1.554126 0
M  V30 27 H 1.253553 -4.180544 -3.063798 0
M  V30 28 H 1.003708 -5.924512 -3.171067 0
M  V30 29 H 2.478133 -7.001729 1.251047 0
M  V30 30 H 2.233645 -4.523751 1.907479 0
M  V30 31 H 1.693214 -2.222332 1.631553 0
M  V30 32 H 0.794701 3.761802 0.740471 0
M  V30 33 H 1.531264 2.874536 2.069274 0
M  V30 34 H -1.464289 4.864759 3.029062 0
M  V30 35 H 0.138929 5.075464 2.221028 0
M  V30 36 H 1.337886 4.009800 3.955810 0
M  V30 37 H 0.036682 4.658035 4.967077 0
M  V30 38 H -1.040244 2.675360 5.172716 0
M  V30 39 H 0.547023 1.971499 4.852013 0
M  V30 40 H -0.242658 1.165727 2.902559 0
M  V30 41 H -1.845519 1.836761 3.231865 0
M  V30 42 H -0.206801 2.704869 -1.115066 0
M  V30 END ATOM
M  V30 BEGIN BOND
M  V30 1 1 1 2
M  V30 2 1 2 3
M  V30 3 2 3 4
M  V30 4 1 4 5
M  V30 5 1 5 6
M  V30 6 2 6 7
M  V30 7 1 7 8
M  V30 8 2 8 9
M  V30 9 1 9 10
M  V30 10 1 10 11
M  V30 11 2 11 12
M  V30 12 1 12 13
M  V30 13 1 13 14
M  V30 14 1 14 15
M  V30 15 1 15 16
M  V30 16 1 16 17
M  V30 17 1 17 18
M  V30 18 1 12 19
M  V30 19 1 19 20
M  V30 20 2 20 21
M  V30 21 1 20 22
M  V30 22 1 22 23
M  V30 23 1 7 3
M  V30 24 1 23 8
M  V30 25 2 22 10
M  V30 26 1 18 14
M  V30 27 1 1 24
M  V30 28 1 1 25
M  V30 29 1 1 26
M  V30 30 1 2 27
M  V30 31 1 2 28
M  V30 32 1 5 29
M  V30 33 1 6 30
M  V30 34 1 9 31
M  V30 35 1 13 32
M  V30 36 1 13 33
M  V30 37 1 15 34
M  V30 38 1 15 35
M  V30 39 1 16 36
M  V30 40 1 16 37
M  V30 41 1 17 38
M  V30 42 1 17 39
M  V30 43 1 18 40
M  V30 44 1 18 41
M  V30 45 1 19 42
M  V30 END BOND
M  V30 END CTAB
M  END
>  <Dataset>  (50) 
ChEMBL_Kinases

>  <Ligand_Instance>  (50) 
nan

>  <PDB_ID>  (50) 
nan

>  <Standardized_SMILES>  (50) 
CCc1n[nH]cc1-c1cc2nc(CN3CCCC3)[nH]c(=O)c2s1

>  <Name>  (50) 
nan

>  <Pocket>  (50) 
nan

>  <ATP_Site>  (50) 
nan

>  <Peripheral>  (50) 
nan

>  <Num_H_Atoms_ProtBoundConf>  (50) 
nan

>  <Num_Resolved_Atoms>  (50) 
nan

>  <Num_Not_Resolved_Atoms>  (50) 
nan

$$$$
CHEMBL4084905
     RDKit          3D

  0  0  0  0  0  0  0  0  0  0999 V3000
M  V30 BEGIN CTAB
M  V30 COUNTS 58 62 0 0 0
M  V30 BEGIN ATOM
M  V30 1 C 5.889402 -0.527766 7.105659 0
M  V30 2 O 5.297546 0.062880 5.984936 0
M  V30 3 C 5.905064 0.918021 5.090967 0
M  V30 4 O 7.099581 1.257650 5.210848 0
M  V30 5 C 5.124141 1.442725 3.967510 0
M  V30 6 C 5.682205 2.302239 3.043061 0
M  V30 7 C 4.995063 2.836958 1.952732 0
M  V30 8 C 3.656022 2.473822 1.793885 0
M  V30 9 C 3.106476 1.612282 2.725481 0
M  V30 10 C 3.798649 1.090630 3.800025 0
M  V30 11 C 1.738968 1.092186 2.771406 0
M  V30 12 O 1.383653 0.387403 3.753119 0
M  V30 13 C 0.720439 1.328178 1.744312 0
M  V30 14 C -0.353244 0.473077 1.865816 0
M  V30 15 C -1.387743 0.586751 0.960541 0
M  V30 16 C -1.435325 1.500075 -0.072192 0
M  V30 17 N -2.478861 1.616558 -1.023099 0
M  V30 18 C -3.444487 0.688707 -1.475492 0
M  V30 19 C -4.619921 1.103337 -2.066175 0
M  V30 20 C -5.567299 0.225673 -2.528038 0
M  V30 21 C -5.400774 -1.138498 -2.429276 0
M  V30 22 F -6.326784 -2.015988 -2.880091 0
M  V30 23 C -4.239768 -1.608596 -1.845412 0
M  V30 24 N -4.029619 -3.012750 -1.724196 0
M  V30 25 C -3.373780 -3.645749 -2.801612 0
M  V30 26 O -3.066348 -2.846535 -3.732842 0
M  V30 27 C -3.086584 -5.080962 -2.823304 0
M  V30 28 C -3.420112 -5.956119 -1.809293 0
M  V30 29 C -3.095158 -7.308686 -1.939364 0
M  V30 30 C -2.443237 -7.787319 -3.069815 0
M  V30 31 C -2.119614 -6.885377 -4.074108 0
M  V30 32 C -2.431771 -5.541680 -3.966398 0
M  V30 33 C -3.325536 -0.680489 -1.400897 0
M  V30 34 C -0.344279 2.338594 -0.161951 0
M  V30 35 C 0.709603 2.257435 0.722852 0
M  V30 36 O 1.726983 3.173744 0.492314 0
M  V30 37 C 3.113766 3.137930 0.593683 0
M  V30 38 H 6.307672 -1.534948 6.924716 0
M  V30 39 H 6.637939 0.126378 7.612811 0
M  V30 40 H 5.057426 -0.649384 7.858317 0
M  V30 41 H 6.737837 2.544738 3.229751 0
M  V30 42 H 5.526302 3.498740 1.291550 0
M  V30 43 H 3.321405 0.417697 4.503861 0
M  V30 44 H -0.368817 -0.264162 2.657786 0
M  V30 45 H -2.197431 -0.092537 1.110026 0
M  V30 46 H -2.561929 2.574031 -1.489322 0
M  V30 47 H -4.821569 2.175348 -2.179756 0
M  V30 48 H -6.482213 0.607191 -2.988464 0
M  V30 49 H -4.336581 -3.566781 -0.889348 0
M  V30 50 H -3.927065 -5.562765 -0.938749 0
M  V30 51 H -3.371266 -7.979893 -1.121328 0
M  V30 52 H -2.209196 -8.855259 -3.127502 0
M  V30 53 H -1.605856 -7.252927 -4.968329 0
M  V30 54 H -2.142222 -4.890380 -4.804312 0
M  V30 55 H -2.440850 -1.124454 -0.967921 0
M  V30 56 H -0.330223 3.072595 -0.952235 0
M  V30 57 H 3.543178 2.640127 -0.295948 0
M  V30 58 H 3.450747 4.208452 0.666071 0
M  V30 END ATOM
M  V30 BEGIN BOND
M  V30 1 1 1 2
M  V30 2 1 2 3
M  V30 3 2 3 4
M  V30 4 1 3 5
M  V30 5 2 5 6
M  V30 6 1 6 7
M  V30 7 2 7 8
M  V30 8 1 8 9
M  V30 9 2 9 10
M  V30 10 1 9 11
M  V30 11 2 11 12
M  V30 12 1 11 13
M  V30 13 2 13 14
M  V30 14 1 14 15
M  V30 15 2 15 16
M  V30 16 1 16 17
M  V30 17 1 17 18
M  V30 18 2 18 19
M  V30 19 1 19 20
M  V30 20 2 20 21
M  V30 21 1 21 22
M  V30 22 1 21 23
M  V30 23 1 23 24
M  V30 24 1 24 25
M  V30 25 2 25 26
M  V30 26 1 25 27
M  V30 27 2 27 28
M  V30 28 1 28 29
M  V30 29 2 29 30
M  V30 30 1 30 31
M  V30 31 2 31 32
M  V30 32 2 23 33
M  V30 33 1 16 34
M  V30 34 2 34 35
M  V30 35 1 35 36
M  V30 36 1 36 37
M  V30 37 1 10 5
M  V30 38 1 35 13
M  V30 39 1 37 8
M  V30 40 1 33 18
M  V30 41 1 32 27
M  V30 42 1 1 38
M  V30 43 1 1 39
M  V30 44 1 1 40
M  V30 45 1 6 41
M  V30 46 1 7 42
M  V30 47 1 10 43
M  V30 48 1 14 44
M  V30 49 1 15 45
M  V30 50 1 17 46
M  V30 51 1 19 47
M  V30 52 1 20 48
M  V30 53 1 24 49
M  V30 54 1 28 50
M  V30 55 1 29 51
M  V30 56 1 30 52
M  V30 57 1 31 53
M  V30 58 1 32 54
M  V30 59 1 33 55
M  V30 60 1 34 56
M  V30 61 1 37 57
M  V30 62 1 37 58
M  V30 END BOND
M  V30 END CTAB
M  END
>  <Dataset>  (51) 
ChEMBL_Kinases

>  <Ligand_Instance>  (51) 
nan

>  <PDB_ID>  (51) 
nan

>  <Standardized_SMILES>  (51) 
COC(=O)c1ccc2c(c1)C(=O)c1ccc(Nc3ccc(F)c(NC(=O)c4ccccc4)c3)cc1OC2

>  <Name>  (51) 
nan

>  <Pocket>  (51) 
nan

>  <ATP_Site>  (51) 
nan

>  <Peripheral>  (51) 
nan

>  <Num_H_Atoms_ProtBoundConf>  (51) 
nan

>  <Num_Resolved_Atoms>  (51) 
nan

>  <Num_Not_Resolved_Atoms>  (51) 
nan

$$$$
CHEMBL4084855
     RDKit          3D

  0  0  0  0  0  0  0  0  0  0999 V3000
M  V30 BEGIN CTAB
M  V30 COUNTS 53 56 0 0 0
M  V30 BEGIN ATOM
M  V30 1 C -0.417783 -4.103947 6.062173 0
M  V30 2 O 0.459482 -3.362549 5.276416 0
M  V30 3 C 0.434736 -3.200862 3.913325 0
M  V30 4 C 1.423603 -2.403371 3.323678 0
M  V30 5 C 1.447888 -2.206264 1.960552 0
M  V30 6 C 0.539577 -2.752280 1.084891 0
M  V30 7 N 0.550012 -2.582049 -0.325592 0
M  V30 8 C 1.674790 -2.058761 -1.059196 0
M  V30 9 C 1.296574 -0.907870 -1.960047 0
M  V30 10 N -0.155707 -0.658497 -1.856143 0
M  V30 11 C -0.467959 0.673993 -1.467671 0
M  V30 12 N 0.009412 0.940425 -0.243762 0
M  V30 13 C -0.117077 2.113939 0.398886 0
M  V30 14 C 0.425095 2.373083 1.732339 0
M  V30 15 C 0.289406 3.577038 2.371242 0
M  V30 16 C 0.879601 3.608456 3.619925 0
M  V30 17 N 1.527519 2.605583 4.198111 0
M  V30 18 C 1.634746 1.444345 3.532832 0
M  V30 19 N 1.087580 1.320265 2.302165 0
M  V30 20 C -0.806338 3.058538 -0.333295 0
M  V30 21 C -1.313651 2.838710 -1.583290 0
M  V30 22 O -1.941847 3.684877 -2.262794 0
M  V30 23 N -1.133064 1.632446 -2.135951 0
M  V30 24 C -1.605420 1.252979 -3.437440 0
M  V30 25 C -0.795398 -1.902765 -2.210975 0 CFG=2
M  V30 26 C -2.267451 -1.712669 -2.511519 0
M  V30 27 C -0.547454 -2.913081 -1.159193 0
M  V30 28 C -0.429213 -3.534916 1.675677 0
M  V30 29 C -0.489504 -3.760973 3.058740 0
M  V30 30 H -0.607788 -3.607190 7.058264 0
M  V30 31 H -0.027411 -5.134615 6.298625 0
M  V30 32 H -1.387944 -4.234750 5.543485 0
M  V30 33 H 2.165246 -1.951042 3.983075 0
M  V30 34 H 2.231166 -1.585066 1.612475 0
M  V30 35 H 2.481509 -1.807902 -0.350144 0
M  V30 36 H 2.087307 -2.859906 -1.710940 0
M  V30 37 H 1.897124 -0.034253 -1.652907 0
M  V30 38 H 1.527152 -1.093587 -3.032697 0
M  V30 39 H -0.225913 4.393103 1.923135 0
M  V30 40 H 0.825771 4.529176 4.208297 0
M  V30 41 H 2.162819 0.616737 3.996633 0
M  V30 42 H -0.975712 4.044242 0.072652 0
M  V30 43 H -2.708273 1.006455 -3.392753 0
M  V30 44 H -1.011574 0.489526 -3.950035 0
M  V30 45 H -1.593539 2.150979 -4.124626 0
M  V30 46 H -0.359946 -2.319474 -3.166498 0
M  V30 47 H -2.372361 -1.526523 -3.591499 0
M  V30 48 H -2.732973 -2.718988 -2.340167 0
M  V30 49 H -2.759690 -0.972594 -1.857950 0
M  V30 50 H -1.441465 -3.113462 -0.524901 0
M  V30 51 H -0.311238 -3.919559 -1.617727 0
M  V30 52 H -1.228588 -4.057749 1.181285 0
M  V30 53 H -1.239769 -4.371357 3.538435 0
M  V30 END ATOM
M  V30 BEGIN BOND
M  V30 1 1 1 2
M  V30 2 1 2 3
M  V30 3 2 3 4
M  V30 4 1 4 5
M  V30 5 2 5 6
M  V30 6 1 6 7
M  V30 7 1 7 8
M  V30 8 1 8 9
M  V30 9 1 9 10
M  V30 10 1 10 11
M  V30 11 2 11 12
M  V30 12 1 12 13
M  V30 13 1 13 14
M  V30 14 2 14 15
M  V30 15 1 15 16
M  V30 16 2 16 17
M  V30 17 1 17 18
M  V30 18 2 18 19
M  V30 19 2 13 20
M  V30 20 1 20 21
M  V30 21 2 21 22
M  V30 22 1 21 23
M  V30 23 1 23 24
M  V30 24 1 10 25
M  V30 25 1 25 26
M  V30 26 1 25 27
M  V30 27 1 6 28
M  V30 28 2 28 29
M  V30 29 1 29 3
M  V30 30 1 27 7
M  V30 31 1 23 11
M  V30 32 1 19 14
M  V30 33 1 1 30
M  V30 34 1 1 31
M  V30 35 1 1 32
M  V30 36 1 4 33
M  V30 37 1 5 34
M  V30 38 1 8 35
M  V30 39 1 8 36
M  V30 40 1 9 37
M  V30 41 1 9 38
M  V30 42 1 15 39
M  V30 43 1 16 40
M  V30 44 1 18 41
M  V30 45 1 20 42
M  V30 46 1 24 43
M  V30 47 1 24 44
M  V30 48 1 24 45
M  V30 49 1 25 46 CFG=3
M  V30 50 1 26 47
M  V30 51 1 26 48
M  V30 52 1 26 49
M  V30 53 1 27 50
M  V30 54 1 27 51
M  V30 55 1 28 52
M  V30 56 1 29 53
M  V30 END BOND
M  V30 END CTAB
M  END
>  <Dataset>  (52) 
ChEMBL_Kinases

>  <Ligand_Instance>  (52) 
nan

>  <PDB_ID>  (52) 
nan

>  <Standardized_SMILES>  (52) 
COc1ccc(N2CCN(c3nc(-c4ccncn4)cc(=O)n3C)[C@H](C)C2)cc1

>  <Name>  (52) 
nan

>  <Pocket>  (52) 
nan

>  <ATP_Site>  (52) 
nan

>  <Peripheral>  (52) 
nan

>  <Num_H_Atoms_ProtBoundConf>  (52) 
nan

>  <Num_Resolved_Atoms>  (52) 
nan

>  <Num_Not_Resolved_Atoms>  (52) 
nan

$$$$
CHEMBL4084771
     RDKit          3D

  0  0  0  0  0  0  0  0  0  0999 V3000
M  V30 BEGIN CTAB
M  V30 COUNTS 38 41 0 0 0
M  V30 BEGIN ATOM
M  V30 1 C 1.217064 -2.680601 2.609387 0
M  V30 2 C 1.401611 -1.679610 1.528900 0
M  V30 3 C 2.517081 -1.746566 0.721256 0
M  V30 4 N 2.748567 -0.866453 -0.274657 0
M  V30 5 C 1.920115 0.150548 -0.571009 0
M  V30 6 C 2.290069 1.023663 -1.668217 0
M  V30 7 C 3.466032 0.755406 -2.336539 0
M  V30 8 C 3.903392 1.527028 -3.392246 0
M  V30 9 Cl 5.401251 1.153349 -4.213897 0
M  V30 10 C 3.189388 2.611456 -3.840074 0
M  V30 11 C 2.009379 2.903807 -3.190917 0
M  V30 12 C 1.601167 2.112401 -2.139608 0
M  V30 13 F 0.447779 2.453611 -1.556463 0
M  V30 14 C 0.812633 0.212644 0.234738 0
M  V30 15 C 0.528854 -0.647506 1.252756 0
M  V30 16 N -0.639092 -0.515229 2.049579 0
M  V30 17 C -1.744201 -1.370607 2.272048 0
M  V30 18 C -1.895686 -2.603351 1.679204 0
M  V30 19 C -2.985743 -3.385823 1.938715 0
M  V30 20 N -3.942211 -2.946162 2.796392 0
M  V30 21 C -3.788539 -1.747965 3.368322 0
M  V30 22 C -4.626891 -1.113510 4.259322 0
M  V30 23 N -4.041175 0.068678 4.546001 0
M  V30 24 N -2.903519 0.183939 3.882943 0
M  V30 25 C -2.716554 -0.928889 3.140933 0
M  V30 26 H 0.473560 -2.279610 3.356140 0
M  V30 27 H 0.810342 -3.634452 2.240334 0
M  V30 28 H 2.157144 -2.781504 3.190298 0
M  V30 29 H 3.273090 -2.517810 0.846399 0
M  V30 30 H 4.119027 -0.083295 -2.068753 0
M  V30 31 H 3.554051 3.200300 -4.669811 0
M  V30 32 H 1.424496 3.748715 -3.517557 0
M  V30 33 H 0.110192 0.986925 0.065001 0
M  V30 34 H -0.546612 0.400508 2.489860 0
M  V30 35 H -1.147485 -2.969777 0.991368 0
M  V30 36 H -3.090825 -4.363580 1.459007 0
M  V30 37 H -5.583793 -1.460713 4.677058 0
M  V30 38 H -2.249240 1.008900 3.925967 0
M  V30 END ATOM
M  V30 BEGIN BOND
M  V30 1 1 1 2
M  V30 2 2 2 3
M  V30 3 1 3 4
M  V30 4 2 4 5
M  V30 5 1 5 6
M  V30 6 2 6 7
M  V30 7 1 7 8
M  V30 8 1 8 9
M  V30 9 2 8 10
M  V30 10 1 10 11
M  V30 11 2 11 12
M  V30 12 1 12 13
M  V30 13 1 5 14
M  V30 14 2 14 15
M  V30 15 1 15 16
M  V30 16 1 16 17
M  V30 17 2 17 18
M  V30 18 1 18 19
M  V30 19 2 19 20
M  V30 20 1 20 21
M  V30 21 1 21 22
M  V30 22 2 22 23
M  V30 23 1 23 24
M  V30 24 1 24 25
M  V30 25 1 15 2
M  V30 26 1 25 17
M  V30 27 1 12 6
M  V30 28 2 25 21
M  V30 29 1 1 26
M  V30 30 1 1 27
M  V30 31 1 1 28
M  V30 32 1 3 29
M  V30 33 1 7 30
M  V30 34 1 10 31
M  V30 35 1 11 32
M  V30 36 1 14 33
M  V30 37 1 16 34
M  V30 38 1 18 35
M  V30 39 1 19 36
M  V30 40 1 22 37
M  V30 41 1 24 38
M  V30 END BOND
M  V30 END CTAB
M  END
>  <Dataset>  (53) 
ChEMBL_Kinases

>  <Ligand_Instance>  (53) 
nan

>  <PDB_ID>  (53) 
nan

>  <Standardized_SMILES>  (53) 
Cc1cnc(-c2cc(Cl)ccc2F)cc1Nc1ccnc2cn[nH]c12

>  <Name>  (53) 
nan

>  <Pocket>  (53) 
nan

>  <ATP_Site>  (53) 
nan

>  <Peripheral>  (53) 
nan

>  <Num_H_Atoms_ProtBoundConf>  (53) 
nan

>  <Num_Resolved_Atoms>  (53) 
nan

>  <Num_Not_Resolved_Atoms>  (53) 
nan

$$$$
CHEMBL4084769
     RDKit          3D

  0  0  0  0  0  0  0  0  0  0999 V3000
M  V30 BEGIN CTAB
M  V30 COUNTS 40 43 0 0 0
M  V30 BEGIN ATOM
M  V30 1 C -0.722401 -4.968204 3.326503 0
M  V30 2 C -0.238525 -3.592764 3.027531 0
M  V30 3 C 0.584902 -2.975501 3.909475 0
M  V30 4 C 0.986643 -1.707700 3.556907 0
M  V30 5 C 0.533594 -1.181550 2.370449 0
M  V30 6 C -0.299968 -1.784443 1.459286 0
M  V30 7 C -0.668600 -1.026754 0.290581 0
M  V30 8 C 0.011461 0.130285 -0.034427 0
M  V30 9 C -0.300847 0.902099 -1.128083 0
M  V30 10 N 0.396014 2.091343 -1.465658 0
M  V30 11 C 1.483145 2.590677 -0.697419 0
M  V30 12 C 1.400116 3.480759 0.377870 0
M  V30 13 C 2.665360 3.731434 0.868285 0
M  V30 14 N 3.489968 2.995105 0.088780 0
M  V30 15 C 4.938380 2.964997 0.262843 0
M  V30 16 N 2.800016 2.340460 -0.811404 0
M  V30 17 N -1.317128 0.534166 -1.940490 0
M  V30 18 C -2.025569 -0.577430 -1.690126 0
M  V30 19 N -3.062057 -1.105865 -2.352222 0
M  V30 20 C -3.414222 -2.211977 -1.683491 0
M  V30 21 C -2.563272 -2.351611 -0.587125 0
M  V30 22 C -2.768560 -3.461635 0.281747 0
M  V30 23 N -2.955386 -4.381992 0.988087 0
M  V30 24 C -1.674998 -1.311547 -0.588254 0
M  V30 25 N -0.588523 -2.972144 1.937358 0
M  V30 26 H -1.702774 -4.955759 3.849164 0
M  V30 27 H -0.829298 -5.549931 2.382285 0
M  V30 28 H -0.003136 -5.444105 4.022606 0
M  V30 29 H 0.874302 -3.490134 4.811938 0
M  V30 30 H 1.656179 -1.198489 4.269505 0
M  V30 31 H 0.938538 -0.181782 2.262118 0
M  V30 32 H 0.830356 0.548328 0.492519 0
M  V30 33 H 0.156657 2.657892 -2.281069 0
M  V30 34 H 0.488779 3.913664 0.774082 0
M  V30 35 H 2.951737 4.374991 1.696180 0
M  V30 36 H 5.190141 3.118337 1.333992 0
M  V30 37 H 5.406092 3.758021 -0.372610 0
M  V30 38 H 5.272729 1.951382 -0.041352 0
M  V30 39 H -3.483577 -0.695858 -3.224224 0
M  V30 40 H -4.232789 -2.805212 -2.036309 0
M  V30 END ATOM
M  V30 BEGIN BOND
M  V30 1 1 1 2
M  V30 2 2 2 3
M  V30 3 1 3 4
M  V30 4 2 4 5
M  V30 5 1 5 6
M  V30 6 1 6 7
M  V30 7 2 7 8
M  V30 8 1 8 9
M  V30 9 1 9 10
M  V30 10 1 10 11
M  V30 11 1 11 12
M  V30 12 2 12 13
M  V30 13 1 13 14
M  V30 14 1 14 15
M  V30 15 1 14 16
M  V30 16 2 9 17
M  V30 17 1 17 18
M  V30 18 1 18 19
M  V30 19 1 19 20
M  V30 20 2 20 21
M  V30 21 1 21 22
M  V30 22 3 22 23
M  V30 23 1 21 24
M  V30 24 2 6 25
M  V30 25 1 25 2
M  V30 26 1 24 7
M  V30 27 2 16 11
M  V30 28 2 24 18
M  V30 29 1 1 26
M  V30 30 1 1 27
M  V30 31 1 1 28
M  V30 32 1 3 29
M  V30 33 1 4 30
M  V30 34 1 5 31
M  V30 35 1 8 32
M  V30 36 1 10 33
M  V30 37 1 12 34
M  V30 38 1 13 35
M  V30 39 1 15 36
M  V30 40 1 15 37
M  V30 41 1 15 38
M  V30 42 1 19 39
M  V30 43 1 20 40
M  V30 END BOND
M  V30 END CTAB
M  END
>  <Dataset>  (54) 
ChEMBL_Kinases

>  <Ligand_Instance>  (54) 
nan

>  <PDB_ID>  (54) 
nan

>  <Standardized_SMILES>  (54) 
Cc1cccc(-c2cc(Nc3ccn(C)n3)nc3[nH]cc(C#N)c23)n1

>  <Name>  (54) 
nan

>  <Pocket>  (54) 
nan

>  <ATP_Site>  (54) 
nan

>  <Peripheral>  (54) 
nan

>  <Num_H_Atoms_ProtBoundConf>  (54) 
nan

>  <Num_Resolved_Atoms>  (54) 
nan

>  <Num_Not_Resolved_Atoms>  (54) 
nan

$$$$
CHEMBL4084616
     RDKit          3D

  0  0  0  0  0  0  0  0  0  0999 V3000
M  V30 BEGIN CTAB
M  V30 COUNTS 68 72 0 0 0
M  V30 BEGIN ATOM
M  V30 1 C 4.166394 -0.344183 3.970674 0
M  V30 2 C 3.355294 -1.263800 3.077948 0
M  V30 3 O 2.718156 -2.292868 3.758457 0
M  V30 4 C 1.386894 -2.546274 3.880533 0
M  V30 5 C 0.326718 -1.848972 3.354665 0
M  V30 6 C -1.004697 -2.147379 3.507428 0
M  V30 7 C -2.064879 -1.350292 2.901019 0
M  V30 8 C -3.208350 -0.917749 3.542212 0
M  V30 9 N -3.915853 -0.214329 2.608469 0
M  V30 10 C -3.180349 -0.251502 1.459269 0
M  V30 11 C -3.571495 0.352411 0.284283 0
M  V30 12 C -2.786364 0.279593 -0.844345 0
M  V30 13 O -2.843687 0.735061 -2.137711 0
M  V30 14 C -3.911635 1.490205 -2.609647 0
M  V30 15 C -4.566220 0.785370 -3.775241 0
M  V30 16 C -3.813747 0.948676 -5.074122 0
M  V30 17 N -3.495801 2.340389 -5.332494 0
M  V30 18 C -3.870547 2.701558 -6.680432 0
M  V30 19 C -4.126098 3.203116 -4.347740 0
M  V30 20 C -3.558681 2.882734 -2.992976 0
M  V30 21 C -1.592770 -0.444272 -0.684528 0
M  V30 22 C -1.239818 -1.040917 0.534078 0
M  V30 23 N -2.043744 -0.938207 1.605079 0
M  V30 24 C -1.303121 -3.260065 4.266566 0
M  V30 25 C -0.300602 -4.012283 4.828484 0
M  V30 26 C 1.019989 -3.664214 4.640784 0
M  V30 27 C 1.935123 -4.575677 5.312307 0
M  V30 28 N 3.344759 -4.636034 5.416416 0
M  V30 29 O 1.691231 -5.598444 6.010040 0
M  V30 30 C 4.229045 -1.707474 1.958101 0
M  V30 31 C 5.032973 -2.825250 2.050624 0
M  V30 32 C 5.862711 -3.275985 1.042736 0
M  V30 33 C 5.904848 -2.585692 -0.127625 0
M  V30 34 C 5.123298 -1.477727 -0.250805 0
M  V30 35 C 4.279691 -1.015277 0.767014 0
M  V30 36 C 3.450370 0.211075 0.545742 0
M  V30 37 F 3.734295 1.204548 1.458782 0
M  V30 38 F 3.796955 0.754059 -0.696237 0
M  V30 39 F 2.111699 -0.095602 0.461360 0
M  V30 40 H 5.101122 -0.003458 3.471507 0
M  V30 41 H 3.566029 0.531130 4.302007 0
M  V30 42 H 4.448160 -0.880235 4.900216 0
M  V30 43 H 2.552567 -0.600091 2.643558 0
M  V30 44 H 0.576997 -0.981952 2.771206 0
M  V30 45 H -3.499389 -1.091906 4.573079 0
M  V30 46 H -4.467101 0.919846 0.090812 0
M  V30 47 H -4.659387 1.585930 -1.766494 0
M  V30 48 H -5.628304 1.050756 -3.912045 0
M  V30 49 H -4.554772 -0.323489 -3.581933 0
M  V30 50 H -2.911217 0.306645 -5.077127 0
M  V30 51 H -4.475581 0.581565 -5.884950 0
M  V30 52 H -4.664724 2.061232 -7.106939 0
M  V30 53 H -4.198130 3.764551 -6.690487 0
M  V30 54 H -2.981180 2.667771 -7.369126 0
M  V30 55 H -3.996178 4.276124 -4.611267 0
M  V30 56 H -5.207431 2.967659 -4.335419 0
M  V30 57 H -3.958192 3.654757 -2.300499 0
M  V30 58 H -2.458483 3.032437 -3.077353 0
M  V30 59 H -0.820456 -0.632655 -1.438005 0
M  V30 60 H -0.327920 -1.603740 0.671393 0
M  V30 61 H -2.360579 -3.529514 4.411150 0
M  V30 62 H -0.635516 -4.863363 5.404380 0
M  V30 63 H 4.199500 -4.618510 4.852882 0
M  V30 64 H 4.263952 -4.627134 4.929608 0
M  V30 65 H 5.044068 -3.418718 2.962132 0
M  V30 66 H 6.467756 -4.159878 1.177724 0
M  V30 67 H 6.537518 -2.883771 -0.969219 0
M  V30 68 H 5.157658 -0.921181 -1.195190 0
M  V30 END ATOM
M  V30 BEGIN BOND
M  V30 1 1 1 2
M  V30 2 1 2 3
M  V30 3 1 3 4
M  V30 4 2 4 5
M  V30 5 1 5 6
M  V30 6 1 6 7
M  V30 7 2 7 8
M  V30 8 1 8 9
M  V30 9 2 9 10
M  V30 10 1 10 11
M  V30 11 2 11 12
M  V30 12 1 12 13
M  V30 13 1 13 14
M  V30 14 1 14 15
M  V30 15 1 15 16
M  V30 16 1 16 17
M  V30 17 1 17 18
M  V30 18 1 17 19
M  V30 19 1 19 20
M  V30 20 1 12 21
M  V30 21 2 21 22
M  V30 22 1 22 23
M  V30 23 2 6 24
M  V30 24 1 24 25
M  V30 25 2 25 26
M  V30 26 1 26 27
M  V30 27 1 27 28
M  V30 28 2 27 29
M  V30 29 1 2 30
M  V30 30 2 30 31
M  V30 31 1 31 32
M  V30 32 2 32 33
M  V30 33 1 33 34
M  V30 34 2 34 35
M  V30 35 1 35 36
M  V30 36 1 36 37
M  V30 37 1 36 38
M  V30 38 1 36 39
M  V30 39 1 26 4
M  V30 40 1 35 30
M  V30 41 1 23 7
M  V30 42 1 23 10
M  V30 43 1 20 14
M  V30 44 1 1 40
M  V30 45 1 1 41
M  V30 46 1 1 42
M  V30 47 1 2 43
M  V30 48 1 5 44
M  V30 49 1 8 45
M  V30 50 1 11 46
M  V30 51 1 14 47
M  V30 52 1 15 48
M  V30 53 1 15 49
M  V30 54 1 16 50
M  V30 55 1 16 51
M  V30 56 1 18 52
M  V30 57 1 18 53
M  V30 58 1 18 54
M  V30 59 1 19 55
M  V30 60 1 19 56
M  V30 61 1 20 57
M  V30 62 1 20 58
M  V30 63 1 21 59
M  V30 64 1 22 60
M  V30 65 1 24 61
M  V30 66 1 25 62
M  V30 67 1 28 63
M  V30 68 1 28 64
M  V30 69 1 31 65
M  V30 70 1 32 66
M  V30 71 1 33 67
M  V30 72 1 34 68
M  V30 END BOND
M  V30 END CTAB
M  END
>  <Dataset>  (55) 
ChEMBL_Kinases

>  <Ligand_Instance>  (55) 
nan

>  <PDB_ID>  (55) 
nan

>  <Standardized_SMILES>  (55) 
CC(Oc1cc(-c2cnc3cc(OC4CCN(C)CC4)ccn23)ccc1C(N)=O)c1ccccc1C(F)(F)F

>  <Name>  (55) 
nan

>  <Pocket>  (55) 
nan

>  <ATP_Site>  (55) 
nan

>  <Peripheral>  (55) 
nan

>  <Num_H_Atoms_ProtBoundConf>  (55) 
nan

>  <Num_Resolved_Atoms>  (55) 
nan

>  <Num_Not_Resolved_Atoms>  (55) 
nan

$$$$
CHEMBL4851717
     RDKit          3D

  0  0  0  0  0  0  0  0  0  0999 V3000
M  V30 BEGIN CTAB
M  V30 COUNTS 33 35 0 0 0
M  V30 BEGIN ATOM
M  V30 1 C -3.607875 -4.435984 1.131913 0
M  V30 2 C -2.117233 -4.240454 1.066623 0
M  V30 3 C -1.192595 -5.237378 1.273768 0
M  V30 4 N 0.130500 -5.007648 1.210834 0
M  V30 5 N 0.551844 -3.787986 0.941514 0
M  V30 6 N 1.760484 -3.281636 0.832712 0
M  V30 7 C 1.688060 -1.970228 0.556463 0
M  V30 8 C 0.344781 -1.579965 0.475203 0
M  V30 9 C 0.010130 -0.207573 0.199695 0
M  V30 10 C -1.172065 0.377971 -0.141620 0
M  V30 11 C -1.400397 1.702968 -0.415186 0
M  V30 12 N -0.329368 2.512877 -0.336709 0
M  V30 13 C 0.863371 2.009407 -0.007713 0
M  V30 14 N 1.971734 2.893360 0.070226 0
M  V30 15 C 1.972057 3.475322 1.410748 0
M  V30 16 C 3.028757 3.302902 -0.840974 0
M  V30 17 N 0.996576 0.698904 0.244510 0
M  V30 18 C -0.287281 -2.768051 0.727767 0
M  V30 19 C -1.636663 -2.975300 0.786794 0
M  V30 20 H -3.903854 -3.871814 2.061676 0
M  V30 21 H -4.092732 -3.900295 0.282527 0
M  V30 22 H -3.891844 -5.488253 1.145143 0
M  V30 23 H -1.575131 -6.246820 1.498401 0
M  V30 24 H 2.638621 -1.431434 0.442923 0
M  V30 25 H -2.043093 -0.242306 -0.227391 0
M  V30 26 H -2.379042 2.062963 -0.676251 0
M  V30 27 H 2.270331 2.664532 2.105130 0
M  V30 28 H 2.764423 4.258337 1.518698 0
M  V30 29 H 0.976481 3.868667 1.710203 0
M  V30 30 H 3.955681 3.559106 -0.292569 0
M  V30 31 H 2.712050 4.120886 -1.506537 0
M  V30 32 H 3.296140 2.388745 -1.450973 0
M  V30 33 H -2.361869 -2.205894 0.637561 0
M  V30 END ATOM
M  V30 BEGIN BOND
M  V30 1 1 1 2
M  V30 2 1 2 3
M  V30 3 2 3 4
M  V30 4 1 4 5
M  V30 5 1 5 6
M  V30 6 2 6 7
M  V30 7 1 7 8
M  V30 8 1 8 9
M  V30 9 2 9 10
M  V30 10 1 10 11
M  V30 11 2 11 12
M  V30 12 1 12 13
M  V30 13 1 13 14
M  V30 14 1 14 15
M  V30 15 1 14 16
M  V30 16 2 13 17
M  V30 17 2 8 18
M  V30 18 1 18 19
M  V30 19 2 19 2
M  V30 20 1 18 5
M  V30 21 1 17 9
M  V30 22 1 1 20
M  V30 23 1 1 21
M  V30 24 1 1 22
M  V30 25 1 3 23
M  V30 26 1 7 24
M  V30 27 1 10 25
M  V30 28 1 11 26
M  V30 29 1 15 27
M  V30 30 1 15 28
M  V30 31 1 15 29
M  V30 32 1 16 30
M  V30 33 1 16 31
M  V30 34 1 16 32
M  V30 35 1 19 33
M  V30 END BOND
M  V30 END CTAB
M  END
>  <Dataset>  (56) 
ChEMBL_Kinases

>  <Ligand_Instance>  (56) 
nan

>  <PDB_ID>  (56) 
nan

>  <Standardized_SMILES>  (56) 
Cc1cnn2ncc(-c3ccnc(N(C)C)n3)c2c1

>  <Name>  (56) 
nan

>  <Pocket>  (56) 
nan

>  <ATP_Site>  (56) 
nan

>  <Peripheral>  (56) 
nan

>  <Num_H_Atoms_ProtBoundConf>  (56) 
nan

>  <Num_Resolved_Atoms>  (56) 
nan

>  <Num_Not_Resolved_Atoms>  (56) 
nan

$$$$
CHEMBL4084596
     RDKit          3D

  0  0  0  0  0  0  0  0  0  0999 V3000
M  V30 BEGIN CTAB
M  V30 COUNTS 40 42 0 0 0
M  V30 BEGIN ATOM
M  V30 1 C 2.455308 -6.545313 2.748426 0
M  V30 2 C 3.059920 -5.971896 1.487632 0
M  V30 3 N 2.210554 -4.914839 0.940915 0
M  V30 4 C 2.378617 -3.628551 1.311126 0
M  V30 5 C 1.441919 -2.857674 0.641100 0
M  V30 6 N 1.153668 -1.448121 0.640446 0
M  V30 7 C 1.883473 -0.729811 -0.344367 0
M  V30 8 O 2.667180 -1.357354 -1.079632 0
M  V30 9 C 1.677649 0.709728 -0.445180 0
M  V30 10 C 2.428810 1.342611 -1.441832 0
M  V30 11 S 1.928869 3.167108 -1.300565 0
M  V30 12 C 0.773990 2.671292 0.120898 0
M  V30 13 C -0.122494 3.627964 0.911175 0
M  V30 14 N 0.229841 4.748843 1.584878 0
M  V30 15 N -0.898632 5.238724 2.107835 0
M  V30 16 C -1.914518 4.411779 1.745574 0
M  V30 17 N -1.443359 3.397155 0.995026 0
M  V30 18 C -2.241337 2.325007 0.433667 0
M  V30 19 C -3.024223 2.819351 -0.749914 0
M  V30 20 C -3.262015 1.801887 1.452401 0
M  V30 21 N 0.906954 1.514105 0.239472 0
M  V30 22 C 0.744289 -3.800450 -0.124176 0
M  V30 23 N 1.223374 -5.043250 0.069567 0
M  V30 24 H 1.700731 -5.841233 3.166061 0
M  V30 25 H 3.268981 -6.744722 3.469730 0
M  V30 26 H 2.000431 -7.520455 2.499417 0
M  V30 27 H 3.151467 -6.759512 0.730580 0
M  V30 28 H 4.093209 -5.602471 1.669401 0
M  V30 29 H 3.083267 -3.178908 1.995788 0
M  V30 30 H 0.466917 -0.983429 1.304868 0
M  V30 31 H 3.175397 1.016649 -2.210715 0
M  V30 32 H -2.955975 4.530107 2.009064 0
M  V30 33 H -1.616876 1.432118 0.190593 0
M  V30 34 H -2.411687 2.783118 -1.678752 0
M  V30 35 H -3.386225 3.844640 -0.522520 0
M  V30 36 H -3.928790 2.191899 -0.946600 0
M  V30 37 H -3.942753 1.149251 0.845697 0
M  V30 38 H -3.867597 2.666540 1.770762 0
M  V30 39 H -2.797324 1.237741 2.263016 0
M  V30 40 H -0.087533 -3.548072 -0.795031 0
M  V30 END ATOM
M  V30 BEGIN BOND
M  V30 1 1 1 2
M  V30 2 1 2 3
M  V30 3 1 3 4
M  V30 4 2 4 5
M  V30 5 1 5 6
M  V30 6 1 6 7
M  V30 7 2 7 8
M  V30 8 1 7 9
M  V30 9 2 9 10
M  V30 10 1 10 11
M  V30 11 1 11 12
M  V30 12 1 12 13
M  V30 13 2 13 14
M  V30 14 1 14 15
M  V30 15 2 15 16
M  V30 16 1 16 17
M  V30 17 1 17 18
M  V30 18 1 18 19
M  V30 19 1 18 20
M  V30 20 2 12 21
M  V30 21 1 5 22
M  V30 22 2 22 23
M  V30 23 1 23 3
M  V30 24 1 21 9
M  V30 25 1 17 13
M  V30 26 1 1 24
M  V30 27 1 1 25
M  V30 28 1 1 26
M  V30 29 1 2 27
M  V30 30 1 2 28
M  V30 31 1 4 29
M  V30 32 1 6 30
M  V30 33 1 10 31
M  V30 34 1 16 32
M  V30 35 1 18 33
M  V30 36 1 19 34
M  V30 37 1 19 35
M  V30 38 1 19 36
M  V30 39 1 20 37
M  V30 40 1 20 38
M  V30 41 1 20 39
M  V30 42 1 22 40
M  V30 END BOND
M  V30 END CTAB
M  END
>  <Dataset>  (57) 
ChEMBL_Kinases

>  <Ligand_Instance>  (57) 
nan

>  <PDB_ID>  (57) 
nan

>  <Standardized_SMILES>  (57) 
CCn1cc(NC(=O)c2csc(-c3nncn3C(C)C)n2)cn1

>  <Name>  (57) 
nan

>  <Pocket>  (57) 
nan

>  <ATP_Site>  (57) 
nan

>  <Peripheral>  (57) 
nan

>  <Num_H_Atoms_ProtBoundConf>  (57) 
nan

>  <Num_Resolved_Atoms>  (57) 
nan

>  <Num_Not_Resolved_Atoms>  (57) 
nan

$$$$
CHEMBL4084589
     RDKit          3D

  0  0  0  0  0  0  0  0  0  0999 V3000
M  V30 BEGIN CTAB
M  V30 COUNTS 74 79 0 0 0
M  V30 BEGIN ATOM
M  V30 1 O 4.970364 -5.263261 0.020294 0
M  V30 2 C 4.589913 -4.045947 -0.114713 0
M  V30 3 N 4.889119 -3.455379 -1.348541 0
M  V30 4 C 5.580541 -4.185588 -2.397133 0
M  V30 5 C 4.790053 -5.405926 -2.829343 0
M  V30 6 N 3.489076 -5.034419 -3.347485 0
M  V30 7 C 2.672065 -6.168947 -3.712455 0
M  V30 8 C 1.347279 -5.591007 -4.202228 0
M  V30 9 O 1.550184 -5.109257 -5.476565 0
M  V30 10 C 2.831766 -4.681858 -5.718659 0
M  V30 11 C 3.592947 -4.195448 -4.520348 0
M  V30 12 C 3.932063 -3.572425 1.077475 0
M  V30 13 C 3.943298 -4.208640 2.294309 0
M  V30 14 C 3.245481 -3.625036 3.320800 0
M  V30 15 C 2.537099 -2.444056 3.206169 0
M  V30 16 C 2.554258 -1.831841 1.943388 0
M  V30 17 C 3.250028 -2.380549 0.858312 0
M  V30 18 C 1.864355 -0.591076 1.552913 0
M  V30 19 O 2.428598 0.073091 0.632316 0
M  V30 20 C 0.600339 -0.154212 2.191976 0
M  V30 21 C 0.100592 0.871335 1.375067 0
M  V30 22 C -1.085671 1.441891 1.780828 0
M  V30 23 C -1.683998 0.978228 2.934011 0
M  V30 24 N -2.930216 1.563179 3.324681 0
M  V30 25 C -4.069183 2.057906 2.597935 0
M  V30 26 C -4.608148 3.319249 2.525878 0
M  V30 27 C -5.733896 3.532080 1.793134 0
M  V30 28 N -6.271045 4.844586 1.709455 0
M  V30 29 C -5.834113 5.557112 0.536196 0
M  V30 30 O -5.063626 5.102607 -0.344749 0
M  V30 31 C -6.289308 6.961539 0.266140 0
M  V30 32 C -5.556845 7.863914 -0.624536 0
M  V30 33 C -6.781272 7.190375 -1.164547 0
M  V30 34 C -6.362212 2.515837 1.110556 0
M  V30 35 C -5.818849 1.252384 1.184407 0
M  V30 36 C -4.674503 0.985994 1.917350 0
M  V30 37 F -4.241720 -0.302516 1.905265 0
M  V30 38 C -1.199479 -0.027399 3.742504 0
M  V30 39 C 0.004458 -0.618970 3.342873 0
M  V30 40 C 0.397298 -1.698441 4.280641 0
M  V30 41 C 1.851556 -1.944130 4.424487 0
M  V30 42 H 4.562708 -2.463628 -1.408404 0
M  V30 43 H 6.574037 -4.507541 -2.028468 0
M  V30 44 H 5.754834 -3.561898 -3.280749 0
M  V30 45 H 4.764219 -6.213528 -2.102563 0
M  V30 46 H 5.347267 -5.811611 -3.726325 0
M  V30 47 H 3.129273 -6.872403 -4.413695 0
M  V30 48 H 2.482573 -6.755458 -2.767308 0
M  V30 49 H 1.014957 -4.856616 -3.466704 0
M  V30 50 H 0.567101 -6.376022 -4.249494 0
M  V30 51 H 3.443339 -5.418774 -6.287531 0
M  V30 52 H 2.741454 -3.776021 -6.395918 0
M  V30 53 H 4.650792 -4.076814 -4.861883 0
M  V30 54 H 3.207334 -3.182872 -4.264201 0
M  V30 55 H 4.494329 -5.130649 2.401887 0
M  V30 56 H 3.236773 -4.099660 4.288848 0
M  V30 57 H 3.201185 -1.829772 -0.064480 0
M  V30 58 H 0.604860 1.197372 0.487637 0
M  V30 59 H -1.542862 2.237568 1.210955 0
M  V30 60 H -3.265603 1.753937 4.308006 0
M  V30 61 H -4.060410 4.041087 3.081452 0
M  V30 62 H -6.926206 5.347850 2.377500 0
M  V30 63 H -6.933086 7.374635 1.073328 0
M  V30 64 H -4.608743 7.566866 -1.119297 0
M  V30 65 H -5.616103 8.957364 -0.410365 0
M  V30 66 H -7.697030 7.785715 -1.292592 0
M  V30 67 H -6.672276 6.336210 -1.875625 0
M  V30 68 H -7.276848 2.652265 0.512155 0
M  V30 69 H -6.336710 0.455383 0.631859 0
M  V30 70 H -1.707313 -0.351650 4.635183 0
M  V30 71 H -0.026332 -1.517758 5.294631 0
M  V30 72 H -0.046002 -2.638511 3.835388 0
M  V30 73 H 2.355670 -0.994231 4.774071 0
M  V30 74 H 2.010382 -2.661018 5.246110 0
M  V30 END ATOM
M  V30 BEGIN BOND
M  V30 1 2 1 2
M  V30 2 1 2 3
M  V30 3 1 3 4
M  V30 4 1 4 5
M  V30 5 1 5 6
M  V30 6 1 6 7
M  V30 7 1 7 8
M  V30 8 1 8 9
M  V30 9 1 9 10
M  V30 10 1 10 11
M  V30 11 1 2 12
M  V30 12 2 12 13
M  V30 13 1 13 14
M  V30 14 2 14 15
M  V30 15 1 15 16
M  V30 16 2 16 17
M  V30 17 1 16 18
M  V30 18 2 18 19
M  V30 19 1 18 20
M  V30 20 2 20 21
M  V30 21 1 21 22
M  V30 22 2 22 23
M  V30 23 1 23 24
M  V30 24 1 24 25
M  V30 25 2 25 26
M  V30 26 1 26 27
M  V30 27 1 27 28
M  V30 28 1 28 29
M  V30 29 2 29 30
M  V30 30 1 29 31
M  V30 31 1 31 32
M  V30 32 1 32 33
M  V30 33 2 27 34
M  V30 34 1 34 35
M  V30 35 2 35 36
M  V30 36 1 36 37
M  V30 37 1 23 38
M  V30 38 2 38 39
M  V30 39 1 39 40
M  V30 40 1 40 41
M  V30 41 1 11 6
M  V30 42 1 17 12
M  V30 43 1 39 20
M  V30 44 1 41 15
M  V30 45 1 36 25
M  V30 46 1 33 31
M  V30 47 1 3 42
M  V30 48 1 4 43
M  V30 49 1 4 44
M  V30 50 1 5 45
M  V30 51 1 5 46
M  V30 52 1 7 47
M  V30 53 1 7 48
M  V30 54 1 8 49
M  V30 55 1 8 50
M  V30 56 1 10 51
M  V30 57 1 10 52
M  V30 58 1 11 53
M  V30 59 1 11 54
M  V30 60 1 13 55
M  V30 61 1 14 56
M  V30 62 1 17 57
M  V30 63 1 21 58
M  V30 64 1 22 59
M  V30 65 1 24 60
M  V30 66 1 26 61
M  V30 67 1 28 62
M  V30 68 1 31 63
M  V30 69 1 32 64
M  V30 70 1 32 65
M  V30 71 1 33 66
M  V30 72 1 33 67
M  V30 73 1 34 68
M  V30 74 1 35 69
M  V30 75 1 38 70
M  V30 76 1 40 71
M  V30 77 1 40 72
M  V30 78 1 41 73
M  V30 79 1 41 74
M  V30 END BOND
M  V30 END CTAB
M  END
>  <Dataset>  (58) 
ChEMBL_Kinases

>  <Ligand_Instance>  (58) 
nan

>  <PDB_ID>  (58) 
nan

>  <Standardized_SMILES>  (58) 
O=C(NCCN1CCOCC1)c1ccc2c(c1)C(=O)c1ccc(Nc3cc(NC(=O)C4CC4)ccc3F)cc1CC2

>  <Name>  (58) 
nan

>  <Pocket>  (58) 
nan

>  <ATP_Site>  (58) 
nan

>  <Peripheral>  (58) 
nan

>  <Num_H_Atoms_ProtBoundConf>  (58) 
nan

>  <Num_Resolved_Atoms>  (58) 
nan

>  <Num_Not_Resolved_Atoms>  (58) 
nan

$$$$
CHEMBL4084470
     RDKit          3D

  0  0  0  0  0  0  0  0  0  0999 V3000
M  V30 BEGIN CTAB
M  V30 COUNTS 39 41 0 0 0
M  V30 BEGIN ATOM
M  V30 1 O 2.541397 -0.456025 -1.641841 0
M  V30 2 C 1.496411 -0.498112 -0.931626 0
M  V30 3 N 1.343418 -1.808127 -0.451274 0
M  V30 4 C 2.302016 -2.799605 -0.805437 0
M  V30 5 C 2.273493 -3.650700 -1.915674 0
M  V30 6 C 3.308047 -4.551757 -2.082844 0
M  V30 7 C 4.352761 -4.626116 -1.188216 0
M  V30 8 N 4.390543 -3.806264 -0.108978 0
M  V30 9 C 3.383557 -2.921290 0.063827 0
M  V30 10 C 0.646823 0.661398 -0.698799 0
M  V30 11 C 1.110343 1.814005 -1.341087 0
M  V30 12 C 0.462771 3.022365 -1.257276 0
M  V30 13 Br 1.126723 4.569627 -2.147211 0
M  V30 14 C -0.694029 3.148662 -0.521103 0
M  V30 15 C -1.133409 2.012557 0.100205 0
M  V30 16 C -0.527210 0.776404 0.052248 0
M  V30 17 O -0.910913 -0.376747 0.640871 0
M  V30 18 C -1.944391 -0.762375 1.446524 0
M  V30 19 C -2.089417 -0.112436 2.749630 0
M  V30 20 C -1.299660 -0.711710 3.743550 0
M  V30 21 C -1.275394 -0.286121 5.052227 0
M  V30 22 C -2.049654 0.779171 5.453192 0
M  V30 23 C -2.829925 1.378133 4.492059 0
M  V30 24 C -2.849140 0.948528 3.190107 0
M  V30 25 H 0.538486 -2.013987 0.145864 0
M  V30 26 H 1.423299 -3.515665 -2.548876 0
M  V30 27 H 3.242107 -5.190023 -2.957635 0
M  V30 28 H 5.162192 -5.348998 -1.341793 0
M  V30 29 H 3.478431 -2.300379 0.943928 0
M  V30 30 H 2.023310 1.837373 -1.957677 0
M  V30 31 H -1.238441 4.075862 -0.425057 0
M  V30 32 H -2.027363 2.087880 0.670775 0
M  V30 33 H -1.862458 -1.887747 1.573069 0
M  V30 34 H -2.909602 -0.644629 0.860408 0
M  V30 35 H -0.633575 -1.569315 3.568020 0
M  V30 36 H -0.669896 -0.744574 5.817129 0
M  V30 37 H -2.131210 1.216227 6.429878 0
M  V30 38 H -3.494390 2.236479 4.675477 0
M  V30 39 H -3.449088 1.377226 2.399527 0
M  V30 END ATOM
M  V30 BEGIN BOND
M  V30 1 2 1 2
M  V30 2 1 2 3
M  V30 3 1 3 4
M  V30 4 2 4 5
M  V30 5 1 5 6
M  V30 6 2 6 7
M  V30 7 1 7 8
M  V30 8 2 8 9
M  V30 9 1 2 10
M  V30 10 2 10 11
M  V30 11 1 11 12
M  V30 12 1 12 13
M  V30 13 2 12 14
M  V30 14 1 14 15
M  V30 15 2 15 16
M  V30 16 1 16 17
M  V30 17 1 17 18
M  V30 18 1 18 19
M  V30 19 2 19 20
M  V30 20 1 20 21
M  V30 21 2 21 22
M  V30 22 1 22 23
M  V30 23 2 23 24
M  V30 24 1 9 4
M  V30 25 1 16 10
M  V30 26 1 24 19
M  V30 27 1 3 25
M  V30 28 1 5 26
M  V30 29 1 6 27
M  V30 30 1 7 28
M  V30 31 1 9 29
M  V30 32 1 11 30
M  V30 33 1 14 31
M  V30 34 1 15 32
M  V30 35 1 18 33
M  V30 36 1 18 34
M  V30 37 1 20 35
M  V30 38 1 21 36
M  V30 39 1 22 37
M  V30 40 1 23 38
M  V30 41 1 24 39
M  V30 END BOND
M  V30 END CTAB
M  END
>  <Dataset>  (59) 
ChEMBL_Kinases

>  <Ligand_Instance>  (59) 
nan

>  <PDB_ID>  (59) 
nan

>  <Standardized_SMILES>  (59) 
O=C(Nc1cccnc1)c1cc(Br)ccc1OCc1ccccc1

>  <Name>  (59) 
nan

>  <Pocket>  (59) 
nan

>  <ATP_Site>  (59) 
nan

>  <Peripheral>  (59) 
nan

>  <Num_H_Atoms_ProtBoundConf>  (59) 
nan

>  <Num_Resolved_Atoms>  (59) 
nan

>  <Num_Not_Resolved_Atoms>  (59) 
nan

$$$$
CHEMBL4851639
     RDKit          3D

  0  0  0  0  0  0  0  0  0  0999 V3000
M  V30 BEGIN CTAB
M  V30 COUNTS 54 55 0 0 0
M  V30 BEGIN ATOM
M  V30 1 C 1.675911 -5.788754 3.424725 0
M  V30 2 O 1.356320 -4.453576 3.242971 0
M  V30 3 C 1.541994 -4.007574 1.961524 0 CFG=1
M  V30 4 C 0.308520 -3.411176 1.315991 0
M  V30 5 C -0.307720 -2.331917 2.143364 0
M  V30 6 C 0.742164 -1.647265 3.018827 0 CFG=2
M  V30 7 N 0.248216 -0.356505 3.370971 0
M  V30 8 C -0.040839 0.706896 2.464246 0
M  V30 9 N -0.515253 1.869207 2.997790 0
M  V30 10 C -0.806385 2.929361 2.238078 0
M  V30 11 C -0.592962 2.756882 0.900685 0
M  V30 12 C -0.913176 3.922411 0.088883 0
M  V30 13 N -1.416298 5.150637 0.595506 0
M  V30 14 O -0.958900 4.431340 -1.041846 0
M  V30 15 C -0.117478 1.613461 0.297388 0
M  V30 16 N 0.075941 1.547636 -1.098771 0
M  V30 17 C 0.558475 0.414671 -1.828855 0
M  V30 18 C -0.344787 -0.798892 -1.756026 0
M  V30 19 C -1.716523 -0.466092 -2.324977 0
M  V30 20 C -2.621989 -1.687494 -2.250190 0
M  V30 21 C -1.535123 -0.091701 -3.769542 0
M  V30 22 O -2.319313 0.576726 -1.661074 0
M  V30 23 N 0.142891 0.609501 1.148763 0
M  V30 24 C 1.990400 -1.551729 2.165091 0
M  V30 25 C 2.614502 -2.918376 2.007397 0
M  V30 26 H 1.098290 -6.480394 2.813558 0
M  V30 27 H 2.753189 -5.985943 3.254558 0
M  V30 28 H 1.494841 -6.036895 4.490639 0
M  V30 29 H 1.919117 -4.794528 1.272052 0
M  V30 30 H 0.662924 -2.966778 0.363348 0
M  V30 31 H -0.412126 -4.213038 1.039949 0
M  V30 32 H -1.101928 -2.727171 2.838087 0
M  V30 33 H -0.810828 -1.527632 1.575392 0
M  V30 34 H 0.924595 -2.251323 3.925437 0
M  V30 35 H 0.083471 -0.181230 4.409940 0
M  V30 36 H -1.181888 3.841863 2.680612 0
M  V30 37 H -1.009003 6.034652 0.983273 0
M  V30 38 H -2.305543 5.631594 0.772959 0
M  V30 39 H -0.145064 2.386027 -1.675112 0
M  V30 40 H 0.726484 0.633791 -2.890807 0
M  V30 41 H 1.564901 0.101704 -1.428006 0
M  V30 42 H 0.102271 -1.591165 -2.390015 0
M  V30 43 H -0.489207 -1.201561 -0.756074 0
M  V30 44 H -3.418002 -1.636962 -3.030254 0
M  V30 45 H -3.085179 -1.717736 -1.254302 0
M  V30 46 H -1.990908 -2.579757 -2.407232 0
M  V30 47 H -2.463377 -0.320415 -4.349812 0
M  V30 48 H -1.261074 0.973546 -3.826982 0
M  V30 49 H -0.675275 -0.685251 -4.165342 0
M  V30 50 H -3.054262 0.932577 -2.211172 0
M  V30 51 H 1.650641 -1.236373 1.156387 0
M  V30 52 H 2.752379 -0.864493 2.566873 0
M  V30 53 H 3.258717 -3.091751 2.892652 0
M  V30 54 H 3.254215 -2.986489 1.107178 0
M  V30 END ATOM
M  V30 BEGIN BOND
M  V30 1 1 1 2
M  V30 2 1 2 3
M  V30 3 1 3 4
M  V30 4 1 4 5
M  V30 5 1 5 6
M  V30 6 1 6 7
M  V30 7 1 7 8
M  V30 8 2 8 9
M  V30 9 1 9 10
M  V30 10 2 10 11
M  V30 11 1 11 12
M  V30 12 1 12 13
M  V30 13 2 12 14
M  V30 14 1 11 15
M  V30 15 1 15 16
M  V30 16 1 16 17
M  V30 17 1 17 18
M  V30 18 1 18 19
M  V30 19 1 19 20
M  V30 20 1 19 21
M  V30 21 1 19 22
M  V30 22 2 15 23
M  V30 23 1 6 24
M  V30 24 1 24 25
M  V30 25 1 25 3
M  V30 26 1 23 8
M  V30 27 1 1 26
M  V30 28 1 1 27
M  V30 29 1 1 28
M  V30 30 1 3 29 CFG=3
M  V30 31 1 4 30
M  V30 32 1 4 31
M  V30 33 1 5 32
M  V30 34 1 5 33
M  V30 35 1 6 34 CFG=1
M  V30 36 1 7 35
M  V30 37 1 10 36
M  V30 38 1 13 37
M  V30 39 1 13 38
M  V30 40 1 16 39
M  V30 41 1 17 40
M  V30 42 1 17 41
M  V30 43 1 18 42
M  V30 44 1 18 43
M  V30 45 1 20 44
M  V30 46 1 20 45
M  V30 47 1 20 46
M  V30 48 1 21 47
M  V30 49 1 21 48
M  V30 50 1 21 49
M  V30 51 1 22 50
M  V30 52 1 24 51
M  V30 53 1 24 52
M  V30 54 1 25 53
M  V30 55 1 25 54
M  V30 END BOND
M  V30 END CTAB
M  END
>  <Dataset>  (60) 
ChEMBL_Kinases

>  <Ligand_Instance>  (60) 
nan

>  <PDB_ID>  (60) 
nan

>  <Standardized_SMILES>  (60) 
CO[C@H]1CC[C@H](Nc2ncc(C(N)=O)c(NCCC(C)(C)O)n2)CC1

>  <Name>  (60) 
nan

>  <Pocket>  (60) 
nan

>  <ATP_Site>  (60) 
nan

>  <Peripheral>  (60) 
nan

>  <Num_H_Atoms_ProtBoundConf>  (60) 
nan

>  <Num_Resolved_Atoms>  (60) 
nan

>  <Num_Not_Resolved_Atoms>  (60) 
nan

$$$$
CHEMBL4086300
     RDKit          3D

  0  0  0  0  0  0  0  0  0  0999 V3000
M  V30 BEGIN CTAB
M  V30 COUNTS 47 50 0 0 0
M  V30 BEGIN ATOM
M  V30 1 O -0.462415 -5.921641 1.926529 0
M  V30 2 C 0.207624 -4.932886 1.532899 0
M  V30 3 N 1.544664 -4.807952 1.123255 0
M  V30 4 C 1.886760 -3.488047 0.751475 0
M  V30 5 C 3.013464 -2.818702 0.289425 0
M  V30 6 C 3.020957 -1.460809 0.005075 0
M  V30 7 Br 4.550086 -0.554949 -0.619828 0
M  V30 8 C 1.895437 -0.700439 0.170114 0
M  V30 9 C 1.710339 0.719488 -0.070095 0
M  V30 10 O 1.298202 1.220774 1.033596 0
M  V30 11 N 1.922823 1.479389 -1.270085 0
M  V30 12 C 1.612217 2.881742 -1.223927 0 CFG=2
M  V30 13 C 2.708118 3.848276 -1.347484 0
M  V30 14 O 3.691835 3.755037 -0.369699 0
M  V30 15 C 0.660348 3.170818 -0.069741 0
M  V30 16 C 0.857217 3.984480 1.000408 0
M  V30 17 C -0.131227 4.153477 1.929649 0
M  V30 18 C -1.363591 3.516192 1.834854 0
M  V30 19 C -1.628077 2.670194 0.767530 0
M  V30 20 C -0.599835 2.536625 -0.139756 0
M  V30 21 C 0.790579 -1.427690 0.638180 0
M  V30 22 C 0.724128 -2.763989 0.935711 0
M  V30 23 C -0.342639 -3.611468 1.419177 0
M  V30 24 C -1.557117 -3.204936 1.717618 0
M  V30 25 C -2.656725 -3.984583 2.243623 0
M  V30 26 C -3.979414 -3.940565 1.771368 0
M  V30 27 C -4.776965 -4.791894 2.522943 0
M  V30 28 C -3.938263 -5.356892 3.456853 0
M  V30 29 N -2.694943 -4.848440 3.252804 0
M  V30 30 H 2.199800 -5.622314 1.102189 0
M  V30 31 H 3.927807 -3.405472 0.150761 0
M  V30 32 H 2.282223 0.884669 -2.049305 0
M  V30 33 H 0.879051 3.076011 -2.081822 0
M  V30 34 H 2.252783 4.881793 -1.207879 0
M  V30 35 H 3.087419 3.864551 -2.373627 0
M  V30 36 H 4.117268 4.644888 -0.274556 0
M  V30 37 H 1.818833 4.454010 1.022327 0
M  V30 38 H 0.044348 4.809733 2.778191 0
M  V30 39 H -2.168757 3.623495 2.545029 0
M  V30 40 H -2.554147 2.139666 0.613402 0
M  V30 41 H -0.795547 1.863805 -0.991577 0
M  V30 42 H -0.141380 -0.853866 0.786223 0
M  V30 43 H -1.829871 -2.147837 1.568009 0
M  V30 44 H -4.310716 -3.325758 0.940256 0
M  V30 45 H -5.843731 -4.900383 2.310992 0
M  V30 46 H -4.354455 -6.057252 4.154411 0
M  V30 47 H -1.984428 -5.194617 3.916101 0
M  V30 END ATOM
M  V30 BEGIN BOND
M  V30 1 2 1 2
M  V30 2 1 2 3
M  V30 3 1 3 4
M  V30 4 2 4 5
M  V30 5 1 5 6
M  V30 6 1 6 7
M  V30 7 2 6 8
M  V30 8 1 8 9
M  V30 9 2 9 10
M  V30 10 1 9 11
M  V30 11 1 11 12
M  V30 12 1 12 13
M  V30 13 1 13 14
M  V30 14 1 12 15
M  V30 15 2 15 16
M  V30 16 1 16 17
M  V30 17 2 17 18
M  V30 18 1 18 19
M  V30 19 2 19 20
M  V30 20 1 8 21
M  V30 21 2 21 22
M  V30 22 1 22 23
M  V30 23 2 23 24
M  V30 24 1 24 25
M  V30 25 2 25 26
M  V30 26 1 26 27
M  V30 27 2 27 28
M  V30 28 1 28 29
M  V30 29 1 23 2
M  V30 30 1 29 25
M  V30 31 1 22 4
M  V30 32 1 20 15
M  V30 33 1 3 30
M  V30 34 1 5 31
M  V30 35 1 11 32
M  V30 36 1 12 33 CFG=3
M  V30 37 1 13 34
M  V30 38 1 13 35
M  V30 39 1 14 36
M  V30 40 1 16 37
M  V30 41 1 17 38
M  V30 42 1 18 39
M  V30 43 1 19 40
M  V30 44 1 20 41
M  V30 45 1 21 42
M  V30 46 1 24 43
M  V30 47 1 26 44
M  V30 48 1 27 45
M  V30 49 1 28 46
M  V30 50 1 29 47
M  V30 END BOND
M  V30 END CTAB
M  END
>  <Dataset>  (61) 
ChEMBL_Kinases

>  <Ligand_Instance>  (61) 
nan

>  <PDB_ID>  (61) 
nan

>  <Standardized_SMILES>  (61) 
O=C1Nc2cc(Br)c(C(=O)N[C@H](CO)c3ccccc3)cc2/C1=C/c1ccc[nH]1

>  <Name>  (61) 
nan

>  <Pocket>  (61) 
nan

>  <ATP_Site>  (61) 
nan

>  <Peripheral>  (61) 
nan

>  <Num_H_Atoms_ProtBoundConf>  (61) 
nan

>  <Num_Resolved_Atoms>  (61) 
nan

>  <Num_Not_Resolved_Atoms>  (61) 
nan

$$$$
CHEMBL4850866
     RDKit          3D

  0  0  0  0  0  0  0  0  0  0999 V3000
M  V30 BEGIN CTAB
M  V30 COUNTS 46 49 0 0 0
M  V30 BEGIN ATOM
M  V30 1 N 3.361137 -6.153972 4.326745 0
M  V30 2 C 3.335728 -5.454744 3.412466 0
M  V30 3 C 3.312321 -4.571423 2.285691 0
M  V30 4 C 2.486059 -3.468233 2.333276 0
M  V30 5 C 2.459238 -2.614568 1.251984 0
M  V30 6 C 3.199278 -2.767802 0.103543 0
M  V30 7 N 3.186130 -1.907884 -1.023764 0
M  V30 8 C 2.371248 -0.770443 -1.250927 0
M  V30 9 N 2.590907 -0.100123 -2.391474 0
M  V30 10 C 1.924311 0.989973 -2.778943 0
M  V30 11 C 0.945859 1.440971 -1.932519 0
M  V30 12 C 0.177844 2.649990 -2.318760 0
M  V30 13 F 0.614983 3.141888 -3.553362 0
M  V30 14 F 0.395307 3.640856 -1.357558 0
M  V30 15 F -1.152944 2.366320 -2.462912 0
M  V30 16 C 0.712577 0.756821 -0.756043 0
M  V30 17 N -0.313843 1.242136 0.124322 0
M  V30 18 C -0.676377 0.612776 1.385994 0
M  V30 19 C -1.187846 -0.790972 1.221874 0
M  V30 20 N -2.502249 -0.967978 1.818544 0
M  V30 21 C -2.334137 -0.669054 3.232993 0
M  V30 22 C -2.118741 0.803181 3.364921 0
M  V30 23 C -1.773576 1.420482 2.031666 0
M  V30 24 C -3.000244 1.322010 1.155774 0
M  V30 25 C -3.509125 -0.100563 1.268771 0
M  V30 26 N 1.423247 -0.324916 -0.441780 0
M  V30 27 C 3.989713 -3.896769 0.155707 0
M  V30 28 N 4.038649 -4.738142 1.180566 0
M  V30 29 H 1.869695 -3.280003 3.209602 0
M  V30 30 H 1.799946 -1.768503 1.344410 0
M  V30 31 H 3.893219 -2.190691 -1.765920 0
M  V30 32 H 2.179971 1.461687 -3.726346 0
M  V30 33 H -0.838626 2.116334 -0.167029 0
M  V30 34 H 0.218892 0.659163 2.042845 0
M  V30 35 H -0.518761 -1.473042 1.788683 0
M  V30 36 H -1.228645 -1.065980 0.162558 0
M  V30 37 H -1.418687 -1.226131 3.567003 0
M  V30 38 H -3.213437 -0.991852 3.840897 0
M  V30 39 H -1.290821 1.005454 4.074226 0
M  V30 40 H -3.003456 1.342442 3.766969 0
M  V30 41 H -1.417821 2.465506 2.142410 0
M  V30 42 H -2.759749 1.502372 0.089922 0
M  V30 43 H -3.733305 2.056695 1.545357 0
M  V30 44 H -4.375760 -0.138974 1.990173 0
M  V30 45 H -3.873385 -0.444353 0.275712 0
M  V30 46 H 4.643572 -4.166411 -0.680367 0
M  V30 END ATOM
M  V30 BEGIN BOND
M  V30 1 3 1 2
M  V30 2 1 2 3
M  V30 3 2 3 4
M  V30 4 1 4 5
M  V30 5 2 5 6
M  V30 6 1 6 7
M  V30 7 1 7 8
M  V30 8 2 8 9
M  V30 9 1 9 10
M  V30 10 2 10 11
M  V30 11 1 11 12
M  V30 12 1 12 13
M  V30 13 1 12 14
M  V30 14 1 12 15
M  V30 15 1 11 16
M  V30 16 1 16 17
M  V30 17 1 17 18
M  V30 18 1 18 19
M  V30 19 1 19 20
M  V30 20 1 20 21
M  V30 21 1 21 22
M  V30 22 1 22 23
M  V30 23 1 23 24
M  V30 24 1 24 25
M  V30 25 2 16 26
M  V30 26 1 6 27
M  V30 27 2 27 28
M  V30 28 1 28 3
M  V30 29 1 26 8
M  V30 30 1 23 18
M  V30 31 1 25 20
M  V30 32 1 4 29
M  V30 33 1 5 30
M  V30 34 1 7 31
M  V30 35 1 10 32
M  V30 36 1 17 33
M  V30 37 1 18 34
M  V30 38 1 19 35
M  V30 39 1 19 36
M  V30 40 1 21 37
M  V30 41 1 21 38
M  V30 42 1 22 39
M  V30 43 1 22 40
M  V30 44 1 23 41
M  V30 45 1 24 42
M  V30 46 1 24 43
M  V30 47 1 25 44
M  V30 48 1 25 45
M  V30 49 1 27 46
M  V30 END BOND
M  V30 END CTAB
M  END
>  <Dataset>  (62) 
ChEMBL_Kinases

>  <Ligand_Instance>  (62) 
nan

>  <PDB_ID>  (62) 
nan

>  <Standardized_SMILES>  (62) 
N#Cc1ccc(Nc2ncc(C(F)(F)F)c(NC3CN4CCC3CC4)n2)cn1

>  <Name>  (62) 
nan

>  <Pocket>  (62) 
nan

>  <ATP_Site>  (62) 
nan

>  <Peripheral>  (62) 
nan

>  <Num_H_Atoms_ProtBoundConf>  (62) 
nan

>  <Num_Resolved_Atoms>  (62) 
nan

>  <Num_Not_Resolved_Atoms>  (62) 
nan

$$$$
CHEMBL4850890
     RDKit          3D

  0  0  0  0  0  0  0  0  0  0999 V3000
M  V30 BEGIN CTAB
M  V30 COUNTS 49 52 0 0 0
M  V30 BEGIN ATOM
M  V30 1 C 3.001780 -3.067029 -0.658714 0
M  V30 2 C 3.577807 -3.012527 0.715042 0
M  V30 3 C 3.340245 -4.301289 1.444469 0
M  V30 4 C 3.163953 -1.789247 1.513323 0
M  V30 5 O 3.619329 -0.617780 0.809313 0
M  V30 6 C 2.774964 0.286154 0.209363 0
M  V30 7 O 3.504908 1.086081 -0.447695 0
M  V30 8 N 1.366624 0.245789 0.359581 0
M  V30 9 C 0.663281 1.265094 -0.331619 0
M  V30 10 C 1.051484 2.663398 -0.093430 0
M  V30 11 C 1.363794 3.248584 -1.435701 0
M  V30 12 O 0.743776 2.427425 -2.329533 0
M  V30 13 C 0.864669 1.122675 -1.849109 0
M  V30 14 C 0.831566 -0.797115 1.174504 0
M  V30 15 N -0.473856 -0.790449 1.384966 0
M  V30 16 C -1.047801 -1.683423 2.201234 0
M  V30 17 N -2.436772 -1.791189 2.516874 0
M  V30 18 C -3.485559 -0.993874 2.039164 0
M  V30 19 C -3.405194 0.053941 1.153289 0
M  V30 20 C -4.456283 0.816746 0.706390 0
M  V30 21 F -4.269486 1.833318 -0.172477 0
M  V30 22 C -5.717512 0.526373 1.172917 0
M  V30 23 O -6.811799 1.263942 0.754704 0
M  V30 24 C -5.864649 -0.509799 2.060959 0
M  V30 25 F -7.104938 -0.783095 2.509662 0
M  V30 26 C -4.764682 -1.230953 2.464548 0
M  V30 27 N -0.200194 -2.557011 2.767399 0
M  V30 28 C 1.118938 -2.591959 2.576287 0
M  V30 29 C 1.719405 -1.685245 1.741560 0
M  V30 30 H 1.911942 -2.846783 -0.695039 0
M  V30 31 H 3.579057 -2.417694 -1.371483 0
M  V30 32 H 3.107934 -4.105479 -1.035295 0
M  V30 33 H 4.695440 -2.868548 0.565418 0
M  V30 34 H 4.004492 -5.084972 0.958621 0
M  V30 35 H 3.641766 -4.277345 2.498697 0
M  V30 36 H 2.284328 -4.633115 1.295083 0
M  V30 37 H 3.700970 -1.834251 2.479181 0
M  V30 38 H -0.426186 1.121190 -0.135873 0
M  V30 39 H 1.958531 2.809226 0.526603 0
M  V30 40 H 0.190862 3.200964 0.378423 0
M  V30 41 H 0.900486 4.266290 -1.453263 0
M  V30 42 H 2.461094 3.336506 -1.588049 0
M  V30 43 H 0.024756 0.549090 -2.290890 0
M  V30 44 H 1.864196 0.787658 -2.119777 0
M  V30 45 H -2.701467 -2.555803 3.182848 0
M  V30 46 H -2.445274 0.317215 0.762270 0
M  V30 47 H -7.421928 0.883501 0.022723 0
M  V30 48 H -4.985518 -2.026988 3.165931 0
M  V30 49 H 1.579621 -3.365646 3.142201 0
M  V30 END ATOM
M  V30 BEGIN BOND
M  V30 1 1 1 2
M  V30 2 1 2 3
M  V30 3 1 2 4
M  V30 4 1 4 5
M  V30 5 1 5 6
M  V30 6 2 6 7
M  V30 7 1 6 8
M  V30 8 1 8 9
M  V30 9 1 9 10
M  V30 10 1 10 11
M  V30 11 1 11 12
M  V30 12 1 12 13
M  V30 13 1 8 14
M  V30 14 2 14 15
M  V30 15 1 15 16
M  V30 16 1 16 17
M  V30 17 1 17 18
M  V30 18 2 18 19
M  V30 19 1 19 20
M  V30 20 1 20 21
M  V30 21 2 20 22
M  V30 22 1 22 23
M  V30 23 1 22 24
M  V30 24 1 24 25
M  V30 25 2 24 26
M  V30 26 2 16 27
M  V30 27 1 27 28
M  V30 28 2 28 29
M  V30 29 1 29 4
M  V30 30 1 13 9
M  V30 31 1 29 14
M  V30 32 1 26 18
M  V30 33 1 1 30
M  V30 34 1 1 31
M  V30 35 1 1 32
M  V30 36 1 2 33
M  V30 37 1 3 34
M  V30 38 1 3 35
M  V30 39 1 3 36
M  V30 40 1 4 37
M  V30 41 1 9 38
M  V30 42 1 10 39
M  V30 43 1 10 40
M  V30 44 1 11 41
M  V30 45 1 11 42
M  V30 46 1 13 43
M  V30 47 1 13 44
M  V30 48 1 17 45
M  V30 49 1 19 46
M  V30 50 1 23 47
M  V30 51 1 26 48
M  V30 52 1 28 49
M  V30 END BOND
M  V30 END CTAB
M  END
>  <Dataset>  (63) 
ChEMBL_Kinases

>  <Ligand_Instance>  (63) 
nan

>  <PDB_ID>  (63) 
nan

>  <Standardized_SMILES>  (63) 
CC(C)C1OC(=O)N(C2CCOC2)c2nc(Nc3cc(F)c(O)c(F)c3)ncc21

>  <Name>  (63) 
nan

>  <Pocket>  (63) 
nan

>  <ATP_Site>  (63) 
nan

>  <Peripheral>  (63) 
nan

>  <Num_H_Atoms_ProtBoundConf>  (63) 
nan

>  <Num_Resolved_Atoms>  (63) 
nan

>  <Num_Not_Resolved_Atoms>  (63) 
nan

$$$$
CHEMBL4850891
     RDKit          3D

  0  0  0  0  0  0  0  0  0  0999 V3000
M  V30 BEGIN CTAB
M  V30 COUNTS 51 53 0 0 0
M  V30 BEGIN ATOM
M  V30 1 C -0.621765 -3.215601 -0.404019 0
M  V30 2 C 0.701986 -3.453510 0.261375 0
M  V30 3 C 1.874974 -2.714858 -0.343516 0
M  V30 4 C 0.598567 -3.495637 1.745575 0 CFG=1
M  V30 5 N -0.416465 -2.738771 2.399569 0
M  V30 6 C -0.658515 -1.348099 2.478160 0
M  V30 7 C 0.115593 -0.360492 1.908326 0
M  V30 8 C -0.156618 0.986453 2.001217 0
M  V30 9 N 0.677486 1.939486 1.375917 0
M  V30 10 C 1.042146 2.748311 0.241144 0
M  V30 11 C 0.021780 3.687804 -0.219748 0
M  V30 12 C 0.130662 5.014306 0.219590 0
M  V30 13 N -0.714210 6.044382 -0.072798 0
M  V30 14 C -1.791670 5.812103 -0.871315 0
M  V30 15 C -1.922336 4.516187 -1.317404 0
M  V30 16 C -1.067561 3.449603 -1.028448 0
M  V30 17 C -1.256630 2.093673 -1.550310 0
M  V30 18 F -0.182871 1.643369 -2.294731 0
M  V30 19 F -1.757957 1.176281 -0.667066 0
M  V30 20 F -2.280761 2.221965 -2.519512 0
M  V30 21 N -1.242889 1.372603 2.689240 0
M  V30 22 C -2.066026 0.484195 3.285071 0
M  V30 23 C -1.734509 -0.837385 3.151252 0
M  V30 24 C -2.641133 -1.758059 3.801063 0
M  V30 25 N -3.376859 -2.503111 4.304950 0
M  V30 26 C 0.208721 -4.974263 1.593235 0
M  V30 27 C 0.983101 -4.969055 0.295286 0 CFG=2
M  V30 28 C 2.418599 -5.258435 0.626174 0
M  V30 29 N 3.685210 -4.953400 0.061756 0
M  V30 30 O 2.780720 -5.940646 1.642284 0
M  V30 31 H -1.146663 -4.155805 -0.671712 0
M  V30 32 H -0.555774 -2.624833 -1.345973 0
M  V30 33 H -1.314586 -2.652719 0.256690 0
M  V30 34 H 2.305651 -3.388366 -1.126048 0
M  V30 35 H 1.426991 -1.872654 -0.929940 0
M  V30 36 H 2.602520 -2.371297 0.402919 0
M  V30 37 H 1.575878 -3.460431 2.295310 0
M  V30 38 H -1.122505 -3.331312 2.930832 0
M  V30 39 H 0.988527 -0.626098 1.358286 0
M  V30 40 H 1.291675 2.034609 2.245524 0
M  V30 41 H 1.965548 3.325269 0.507588 0
M  V30 42 H 1.389850 2.056815 -0.565775 0
M  V30 43 H 0.936093 5.383988 0.871501 0
M  V30 44 H -2.541951 6.518123 -1.188193 0
M  V30 45 H -2.773873 4.262683 -1.966409 0
M  V30 46 H -2.934935 0.815851 3.832799 0
M  V30 47 H 0.614430 -5.632213 2.379482 0
M  V30 48 H -0.887770 -5.106719 1.404137 0
M  V30 49 H 0.562865 -5.517272 -0.545842 0
M  V30 50 H 4.289092 -5.308446 -0.700525 0
M  V30 51 H 4.225871 -4.145278 0.487692 0
M  V30 END ATOM
M  V30 BEGIN BOND
M  V30 1 1 1 2
M  V30 2 1 2 3
M  V30 3 1 2 4
M  V30 4 1 4 5
M  V30 5 1 5 6
M  V30 6 2 6 7
M  V30 7 1 7 8
M  V30 8 1 8 9
M  V30 9 1 9 10
M  V30 10 1 10 11
M  V30 11 2 11 12
M  V30 12 1 12 13
M  V30 13 2 13 14
M  V30 14 1 14 15
M  V30 15 2 15 16
M  V30 16 1 16 17
M  V30 17 1 17 18
M  V30 18 1 17 19
M  V30 19 1 17 20
M  V30 20 2 8 21
M  V30 21 1 21 22
M  V30 22 2 22 23
M  V30 23 1 23 24
M  V30 24 3 24 25
M  V30 25 1 4 26
M  V30 26 1 26 27
M  V30 27 1 27 28
M  V30 28 1 28 29
M  V30 29 2 28 30
M  V30 30 1 27 2
M  V30 31 1 23 6
M  V30 32 1 16 11
M  V30 33 1 1 31
M  V30 34 1 1 32
M  V30 35 1 1 33
M  V30 36 1 3 34
M  V30 37 1 3 35
M  V30 38 1 3 36
M  V30 39 1 4 37 CFG=1
M  V30 40 1 5 38
M  V30 41 1 7 39
M  V30 42 1 9 40
M  V30 43 1 10 41
M  V30 44 1 10 42
M  V30 45 1 12 43
M  V30 46 1 14 44
M  V30 47 1 15 45
M  V30 48 1 22 46
M  V30 49 1 26 47
M  V30 50 1 26 48
M  V30 51 1 27 49 CFG=3
M  V30 52 1 29 50
M  V30 53 1 29 51
M  V30 END BOND
M  V30 END CTAB
M  END
>  <Dataset>  (64) 
ChEMBL_Kinases

>  <Ligand_Instance>  (64) 
nan

>  <PDB_ID>  (64) 
nan

>  <Standardized_SMILES>  (64) 
CC1(C)[C@@H](Nc2cc(NCc3cnccc3C(F)(F)F)ncc2C#N)C[C@@H]1C(N)=O

>  <Name>  (64) 
nan

>  <Pocket>  (64) 
nan

>  <ATP_Site>  (64) 
nan

>  <Peripheral>  (64) 
nan

>  <Num_H_Atoms_ProtBoundConf>  (64) 
nan

>  <Num_Resolved_Atoms>  (64) 
nan

>  <Num_Not_Resolved_Atoms>  (64) 
nan

$$$$
CHEMBL4850936
     RDKit          3D

  0  0  0  0  0  0  0  0  0  0999 V3000
M  V30 BEGIN CTAB
M  V30 COUNTS 27 29 0 0 0
M  V30 BEGIN ATOM
M  V30 1 N -0.055020 -5.143031 2.143682 0
M  V30 2 C -0.068878 -4.020834 1.814581 0
M  V30 3 C -0.070710 -2.640154 1.429560 0
M  V30 4 C 0.976638 -2.167486 0.668564 0
M  V30 5 C 0.928003 -0.830548 0.323869 0
M  V30 6 C 2.014195 -0.403777 -0.447594 0
M  V30 7 C 2.022760 0.924399 -0.824163 0
M  V30 8 C 3.142189 1.432824 -1.638362 0
M  V30 9 O 3.247033 2.631180 -2.036433 0
M  V30 10 O 4.170194 0.581241 -2.017344 0
M  V30 11 C 1.018881 1.798061 -0.465784 0
M  V30 12 C -0.049135 1.365771 0.296312 0
M  V30 13 C -0.073492 0.044629 0.680393 0
M  V30 14 C -1.109329 -0.443665 1.438855 0
M  V30 15 C -2.129765 0.401698 1.815129 0
M  V30 16 N -3.138897 -0.129610 2.569626 0
M  V30 17 C -3.107550 -1.441515 2.917697 0
M  V30 18 C -2.106707 -2.326146 2.564166 0
M  V30 19 C -1.081723 -1.776652 1.795069 0
M  V30 20 H 1.776418 -2.820377 0.370964 0
M  V30 21 H 2.825020 -1.025267 -0.760602 0
M  V30 22 H 4.699345 0.678988 -2.871249 0
M  V30 23 H 1.100290 2.824720 -0.801772 0
M  V30 24 H -0.763459 2.091016 0.522349 0
M  V30 25 H -2.232632 1.422541 1.591379 0
M  V30 26 H -3.938168 -1.812350 3.520139 0
M  V30 27 H -2.149841 -3.360019 2.879201 0
M  V30 END ATOM
M  V30 BEGIN BOND
M  V30 1 3 1 2
M  V30 2 1 2 3
M  V30 3 2 3 4
M  V30 4 1 4 5
M  V30 5 2 5 6
M  V30 6 1 6 7
M  V30 7 1 7 8
M  V30 8 2 8 9
M  V30 9 1 8 10
M  V30 10 2 7 11
M  V30 11 1 11 12
M  V30 12 2 12 13
M  V30 13 1 13 14
M  V30 14 2 14 15
M  V30 15 1 15 16
M  V30 16 2 16 17
M  V30 17 1 17 18
M  V30 18 2 18 19
M  V30 19 1 19 3
M  V30 20 1 13 5
M  V30 21 1 19 14
M  V30 22 1 4 20
M  V30 23 1 6 21
M  V30 24 1 10 22
M  V30 25 1 11 23
M  V30 26 1 12 24
M  V30 27 1 15 25
M  V30 28 1 17 26
M  V30 29 1 18 27
M  V30 END BOND
M  V30 END CTAB
M  END
>  <Dataset>  (65) 
ChEMBL_Kinases

>  <Ligand_Instance>  (65) 
nan

>  <PDB_ID>  (65) 
nan

>  <Standardized_SMILES>  (65) 
N#Cc1cc2cc(C(=O)O)ccc2c2cnccc12

>  <Name>  (65) 
nan

>  <Pocket>  (65) 
nan

>  <ATP_Site>  (65) 
nan

>  <Peripheral>  (65) 
nan

>  <Num_H_Atoms_ProtBoundConf>  (65) 
nan

>  <Num_Resolved_Atoms>  (65) 
nan

>  <Num_Not_Resolved_Atoms>  (65) 
nan

$$$$
CHEMBL4850937
     RDKit          3D

  0  0  0  0  0  0  0  0  0  0999 V3000
M  V30 BEGIN CTAB
M  V30 COUNTS 49 52 0 0 0
M  V30 BEGIN ATOM
M  V30 1 C -0.809824 -1.607437 4.007350 0
M  V30 2 C -0.083161 -2.927927 4.307814 0
M  V30 3 C 0.474792 -3.392124 3.008738 0
M  V30 4 C 0.378511 -2.808620 1.757185 0
M  V30 5 C 1.033289 -3.558194 0.789003 0
M  V30 6 N 1.135294 -3.267213 -0.598348 0
M  V30 7 C 0.483136 -2.075397 -1.010721 0
M  V30 8 N 0.935496 -0.850826 -1.314393 0
M  V30 9 C 0.186071 0.197585 -1.673149 0
M  V30 10 N 1.055313 1.312949 -1.879336 0
M  V30 11 C 1.337074 2.589881 -1.214196 0 CFG=1
M  V30 12 C 0.160379 3.525981 -1.442574 0
M  V30 13 C 1.490895 2.390019 0.262027 0
M  V30 14 C 2.630941 2.645930 1.020516 0
M  V30 15 C 2.561330 2.442044 2.372459 0
M  V30 16 C 1.392989 1.991474 2.964647 0
M  V30 17 Cl 1.390596 1.763903 4.715067 0
M  V30 18 C 0.250363 1.730481 2.223465 0
M  V30 19 C 0.325313 1.940855 0.848780 0
M  V30 20 N -1.172679 0.073888 -1.759104 0
M  V30 21 C -1.676226 -1.129639 -1.467841 0
M  V30 22 C -3.041202 -1.278508 -1.530414 0
M  V30 23 C -3.682055 -2.468158 -1.237711 0
M  V30 24 C -2.921336 -3.567807 -0.864973 0
M  V30 25 C -1.546063 -3.382399 -0.810596 0
M  V30 26 C -0.879969 -2.206716 -1.095079 0
M  V30 27 N 1.518147 -4.593288 1.497026 0
M  V30 28 N 1.201374 -4.507348 2.785237 0
M  V30 29 H 0.012266 -0.926642 3.611310 0
M  V30 30 H -1.264521 -1.172596 4.901293 0
M  V30 31 H -1.484107 -1.780066 3.155834 0
M  V30 32 H -0.874544 -3.651287 4.634725 0
M  V30 33 H 0.663529 -2.832321 5.101902 0
M  V30 34 H -0.159568 -1.879775 1.570369 0
M  V30 35 H 1.668459 -3.928590 -1.204834 0
M  V30 36 H 1.633398 1.148516 -2.754898 0
M  V30 37 H 2.226907 3.022355 -1.660203 0
M  V30 38 H -0.095220 3.503834 -2.528678 0
M  V30 39 H -0.757468 3.221568 -0.901956 0
M  V30 40 H 0.440301 4.554466 -1.137603 0
M  V30 41 H 3.491026 2.992354 0.436379 0
M  V30 42 H 3.481517 2.658410 2.890084 0
M  V30 43 H -0.626430 1.375115 2.786088 0
M  V30 44 H -0.638238 1.705009 0.405229 0
M  V30 45 H -3.699704 -0.469595 -1.811667 0
M  V30 46 H -4.730442 -2.647656 -1.270151 0
M  V30 47 H -3.347193 -4.535241 -0.614904 0
M  V30 48 H -0.956309 -4.247682 -0.520668 0
M  V30 49 H 1.480455 -5.201013 3.497066 0
M  V30 END ATOM
M  V30 BEGIN BOND
M  V30 1 1 1 2
M  V30 2 1 2 3
M  V30 3 2 3 4
M  V30 4 1 4 5
M  V30 5 1 5 6
M  V30 6 1 6 7
M  V30 7 2 7 8
M  V30 8 1 8 9
M  V30 9 1 9 10
M  V30 10 1 10 11
M  V30 11 1 11 12
M  V30 12 1 11 13
M  V30 13 2 13 14
M  V30 14 1 14 15
M  V30 15 2 15 16
M  V30 16 1 16 17
M  V30 17 1 16 18
M  V30 18 2 18 19
M  V30 19 2 9 20
M  V30 20 1 20 21
M  V30 21 2 21 22
M  V30 22 1 22 23
M  V30 23 2 23 24
M  V30 24 1 24 25
M  V30 25 2 25 26
M  V30 26 2 5 27
M  V30 27 1 27 28
M  V30 28 1 28 3
M  V30 29 1 26 7
M  V30 30 1 19 13
M  V30 31 1 26 21
M  V30 32 1 1 29
M  V30 33 1 1 30
M  V30 34 1 1 31
M  V30 35 1 2 32
M  V30 36 1 2 33
M  V30 37 1 4 34
M  V30 38 1 6 35
M  V30 39 1 10 36
M  V30 40 1 11 37 CFG=3
M  V30 41 1 12 38
M  V30 42 1 12 39
M  V30 43 1 12 40
M  V30 44 1 14 41
M  V30 45 1 15 42
M  V30 46 1 18 43
M  V30 47 1 19 44
M  V30 48 1 22 45
M  V30 49 1 23 46
M  V30 50 1 24 47
M  V30 51 1 25 48
M  V30 52 1 28 49
M  V30 END BOND
M  V30 END CTAB
M  END
>  <Dataset>  (66) 
ChEMBL_Kinases

>  <Ligand_Instance>  (66) 
nan

>  <PDB_ID>  (66) 
nan

>  <Standardized_SMILES>  (66) 
CCc1cc(Nc2nc(N[C@@H](C)c3ccc(Cl)cc3)nc3ccccc23)n[nH]1

>  <Name>  (66) 
nan

>  <Pocket>  (66) 
nan

>  <ATP_Site>  (66) 
nan

>  <Peripheral>  (66) 
nan

>  <Num_H_Atoms_ProtBoundConf>  (66) 
nan

>  <Num_Resolved_Atoms>  (66) 
nan

>  <Num_Not_Resolved_Atoms>  (66) 
nan

$$$$
CHEMBL4850964
     RDKit          3D

  0  0  0  0  0  0  0  0  0  0999 V3000
M  V30 BEGIN CTAB
M  V30 COUNTS 48 50 0 0 0
M  V30 BEGIN ATOM
M  V30 1 C -1.535675 -4.650546 1.779825 0
M  V30 2 N -0.128629 -4.833731 2.127347 0
M  V30 3 C 0.896241 -5.352843 1.288859 0
M  V30 4 C 1.645734 -4.523477 0.484682 0
M  V30 5 C 2.664821 -4.883853 -0.373705 0
M  V30 6 O 3.325301 -3.939659 -1.116078 0
M  V30 7 C 3.009935 -2.569763 -1.049179 0
M  V30 8 C 3.649272 -1.751407 -0.130557 0
M  V30 9 C 3.311652 -0.415254 -0.097179 0
M  V30 10 C 2.357825 0.073526 -0.966375 0
M  V30 11 N 2.116235 1.488988 -0.807823 0
M  V30 12 C 1.105381 1.871524 0.113660 0
M  V30 13 O 0.513560 0.921439 0.707848 0
M  V30 14 N 0.666881 3.185920 0.459892 0
M  V30 15 C -0.392305 3.257103 1.440788 0
M  V30 16 C -0.212580 3.334830 2.806840 0
M  V30 17 C -1.309427 3.397617 3.636269 0
M  V30 18 C -2.593404 3.385268 3.142232 0
M  V30 19 C -2.797419 3.307939 1.777635 0
M  V30 20 C -4.171283 3.290729 1.181470 0
M  V30 21 C -4.405000 2.028078 0.412832 0
M  V30 22 F -4.362014 4.420671 0.412575 0
M  V30 23 C -1.691752 3.244433 0.937869 0
M  V30 24 C 1.700529 -0.709313 -1.893647 0
M  V30 25 C 2.058083 -2.056718 -1.909166 0
M  V30 26 N 2.909987 -6.223258 -0.382331 0
M  V30 27 C 2.216861 -7.083027 0.376023 0
M  V30 28 N 1.237327 -6.664714 1.189730 0
M  V30 29 H -1.795733 -3.641526 2.185611 0
M  V30 30 H -2.193233 -5.375458 2.266146 0
M  V30 31 H -1.657572 -4.721228 0.688073 0
M  V30 32 H 0.168319 -4.555901 3.096461 0
M  V30 33 H 1.399689 -3.455452 0.536971 0
M  V30 34 H 4.384477 -2.186305 0.522369 0
M  V30 35 H 3.834021 0.191619 0.635263 0
M  V30 36 H 2.586307 2.315907 -1.283149 0
M  V30 37 H 1.186994 3.949279 -0.058970 0
M  V30 38 H 0.818730 3.340029 3.123208 0
M  V30 39 H -1.139251 3.458028 4.704720 0
M  V30 40 H -3.461002 3.434168 3.785205 0
M  V30 41 H -4.905904 3.347901 1.996890 0
M  V30 42 H -5.255520 1.464198 0.809083 0
M  V30 43 H -3.518309 1.373288 0.541494 0
M  V30 44 H -4.585024 2.240677 -0.679547 0
M  V30 45 H -1.878552 3.184675 -0.123240 0
M  V30 46 H 0.973439 -0.245498 -2.529479 0
M  V30 47 H 1.562076 -2.690707 -2.621576 0
M  V30 48 H 2.433939 -8.145408 0.348858 0
M  V30 END ATOM
M  V30 BEGIN BOND
M  V30 1 1 1 2
M  V30 2 1 2 3
M  V30 3 2 3 4
M  V30 4 1 4 5
M  V30 5 1 5 6
M  V30 6 1 6 7
M  V30 7 2 7 8
M  V30 8 1 8 9
M  V30 9 2 9 10
M  V30 10 1 10 11
M  V30 11 1 11 12
M  V30 12 2 12 13
M  V30 13 1 12 14
M  V30 14 1 14 15
M  V30 15 2 15 16
M  V30 16 1 16 17
M  V30 17 2 17 18
M  V30 18 1 18 19
M  V30 19 1 19 20
M  V30 20 1 20 21
M  V30 21 1 20 22
M  V30 22 2 19 23
M  V30 23 1 10 24
M  V30 24 2 24 25
M  V30 25 2 5 26
M  V30 26 1 26 27
M  V30 27 2 27 28
M  V30 28 1 28 3
M  V30 29 1 25 7
M  V30 30 1 23 15
M  V30 31 1 1 29
M  V30 32 1 1 30
M  V30 33 1 1 31
M  V30 34 1 2 32
M  V30 35 1 4 33
M  V30 36 1 8 34
M  V30 37 1 9 35
M  V30 38 1 11 36
M  V30 39 1 14 37
M  V30 40 1 16 38
M  V30 41 1 17 39
M  V30 42 1 18 40
M  V30 43 1 20 41
M  V30 44 1 21 42
M  V30 45 1 21 43
M  V30 46 1 21 44
M  V30 47 1 23 45
M  V30 48 1 24 46
M  V30 49 1 25 47
M  V30 50 1 27 48
M  V30 END BOND
M  V30 END CTAB
M  END
>  <Dataset>  (67) 
ChEMBL_Kinases

>  <Ligand_Instance>  (67) 
nan

>  <PDB_ID>  (67) 
nan

>  <Standardized_SMILES>  (67) 
CNc1cc(Oc2ccc(NC(=O)Nc3cccc(C(C)F)c3)cc2)ncn1

>  <Name>  (67) 
nan

>  <Pocket>  (67) 
nan

>  <ATP_Site>  (67) 
nan

>  <Peripheral>  (67) 
nan

>  <Num_H_Atoms_ProtBoundConf>  (67) 
nan

>  <Num_Resolved_Atoms>  (67) 
nan

>  <Num_Not_Resolved_Atoms>  (67) 
nan

$$$$
CHEMBL4086137
     RDKit          3D

  0  0  0  0  0  0  0  0  0  0999 V3000
M  V30 BEGIN CTAB
M  V30 COUNTS 27 29 0 0 0
M  V30 BEGIN ATOM
M  V30 1 N 3.429477 -3.462014 0.810866 0
M  V30 2 C 3.155753 -2.777615 2.015271 0
M  V30 3 O 3.816730 -3.013956 3.050076 0
M  V30 4 C 2.081024 -1.795516 1.997085 0
M  V30 5 C 1.774525 -1.100564 3.147828 0
M  V30 6 C 0.765867 -0.141876 3.232914 0
M  V30 7 C 0.032690 0.126125 2.099749 0
M  V30 8 C 0.389907 -0.602716 0.984653 0
M  V30 9 N 1.358161 -1.531849 0.878298 0
M  V30 10 C -0.257128 -0.477741 -0.323709 0
M  V30 11 S 0.039588 -1.742904 -1.661141 0
M  V30 12 C -1.098450 -0.853642 -2.887621 0
M  V30 13 C -1.557641 0.258851 -2.173640 0
M  V30 14 C -1.156681 0.474832 -0.892267 0
M  V30 15 C -1.594629 1.607716 -0.073558 0
M  V30 16 C -2.045744 1.211384 1.303918 0
M  V30 17 O -0.958998 1.087820 2.236604 0
M  V30 18 H 3.631758 -3.971625 -0.065615 0
M  V30 19 H 3.409673 -3.107689 -0.177428 0
M  V30 20 H 2.388821 -1.360779 3.998033 0
M  V30 21 H 0.552129 0.377772 4.133040 0
M  V30 22 H -1.355828 -1.124285 -3.921602 0
M  V30 23 H -2.234647 0.932472 -2.671576 0
M  V30 24 H -2.521084 2.064296 -0.537288 0
M  V30 25 H -0.870448 2.443941 0.002215 0
M  V30 26 H -2.669311 0.299573 1.262854 0
M  V30 27 H -2.659855 2.035626 1.710275 0
M  V30 END ATOM
M  V30 BEGIN BOND
M  V30 1 1 1 2
M  V30 2 2 2 3
M  V30 3 1 2 4
M  V30 4 2 4 5
M  V30 5 1 5 6
M  V30 6 2 6 7
M  V30 7 1 7 8
M  V30 8 2 8 9
M  V30 9 1 8 10
M  V30 10 1 10 11
M  V30 11 1 11 12
M  V30 12 2 12 13
M  V30 13 1 13 14
M  V30 14 1 14 15
M  V30 15 1 15 16
M  V30 16 1 16 17
M  V30 17 1 9 4
M  V30 18 2 14 10
M  V30 19 1 17 7
M  V30 20 1 1 18
M  V30 21 1 1 19
M  V30 22 1 5 20
M  V30 23 1 6 21
M  V30 24 1 12 22
M  V30 25 1 13 23
M  V30 26 1 15 24
M  V30 27 1 15 25
M  V30 28 1 16 26
M  V30 29 1 16 27
M  V30 END BOND
M  V30 END CTAB
M  END
>  <Dataset>  (68) 
ChEMBL_Kinases

>  <Ligand_Instance>  (68) 
nan

>  <PDB_ID>  (68) 
nan

>  <Standardized_SMILES>  (68) 
NC(=O)c1ccc2c(n1)-c1sccc1CCO2

>  <Name>  (68) 
nan

>  <Pocket>  (68) 
nan

>  <ATP_Site>  (68) 
nan

>  <Peripheral>  (68) 
nan

>  <Num_H_Atoms_ProtBoundConf>  (68) 
nan

>  <Num_Resolved_Atoms>  (68) 
nan

>  <Num_Not_Resolved_Atoms>  (68) 
nan

$$$$
CHEMBL4851020
     RDKit          3D

  0  0  0  0  0  0  0  0  0  0999 V3000
M  V30 BEGIN CTAB
M  V30 COUNTS 47 50 0 0 0
M  V30 BEGIN ATOM
M  V30 1 N 1.435119 -6.519879 3.847954 0
M  V30 2 C 0.611804 -5.872947 2.898176 0
M  V30 3 O -0.404443 -6.488916 2.512180 0
M  V30 4 C 0.970479 -4.546308 2.417765 0
M  V30 5 C 2.116463 -3.897771 2.880939 0
M  V30 6 C 2.402529 -2.651750 2.390794 0
M  V30 7 C 1.575438 -2.074199 1.473037 0
M  V30 8 C 0.441892 -2.622204 0.963582 0
M  V30 9 C -0.420432 -2.082798 0.031400 0
M  V30 10 N -0.117888 -0.769454 -0.441490 0
M  V30 11 C 0.178509 0.528758 -0.911003 0 CFG=2
M  V30 12 C 1.308499 1.250499 -0.229195 0
M  V30 13 N 1.216513 1.518668 1.142747 0
M  V30 14 C 0.275071 2.471357 1.644241 0
M  V30 15 C 1.331108 3.144986 2.506644 0
M  V30 16 C 2.272455 2.419349 1.566632 0
M  V30 17 C -0.986645 1.422726 -1.158349 0
M  V30 18 C -1.174592 2.302739 -2.218818 0
M  V30 19 C -2.331441 3.044075 -2.293729 0
M  V30 20 C -3.294703 2.924579 -1.339494 0
M  V30 21 C -3.182275 2.071076 -0.254038 0
M  V30 22 F -4.132485 1.941723 0.702499 0
M  V30 23 C -1.999391 1.326895 -0.196377 0
M  V30 24 N -1.461101 -2.834176 -0.311348 0
M  V30 25 C -1.733305 -4.040116 0.163407 0
M  V30 26 N -0.882695 -4.527219 1.059458 0
M  V30 27 C 0.201653 -3.873198 1.488251 0
M  V30 28 H 1.377727 -6.766793 4.861313 0
M  V30 29 H 1.201207 -6.683447 4.862390 0
M  V30 30 H 2.761806 -4.354505 3.601655 0
M  V30 31 H 3.295165 -2.139249 2.746877 0
M  V30 32 H 1.853223 -1.116454 1.122645 0
M  V30 33 H -0.933224 -0.723787 -1.130006 0
M  V30 34 H 0.619385 0.406290 -1.971011 0
M  V30 35 H 1.528307 2.210213 -0.755723 0
M  V30 36 H 2.237494 0.639232 -0.422954 0
M  V30 37 H -0.552010 2.022526 2.204420 0
M  V30 38 H -0.050175 3.163621 0.827186 0
M  V30 39 H 1.376302 2.834302 3.560176 0
M  V30 40 H 1.376043 4.250900 2.434852 0
M  V30 41 H 3.134848 1.974839 2.061121 0
M  V30 42 H 2.617034 3.129410 0.777228 0
M  V30 43 H -0.324063 2.297409 -2.908143 0
M  V30 44 H -2.403828 3.705155 -3.146926 0
M  V30 45 H -4.201928 3.500239 -1.389850 0
M  V30 46 H -1.923738 0.653446 0.669706 0
M  V30 47 H -2.615627 -4.514113 -0.219226 0
M  V30 END ATOM
M  V30 BEGIN BOND
M  V30 1 1 1 2
M  V30 2 2 2 3
M  V30 3 1 2 4
M  V30 4 2 4 5
M  V30 5 1 5 6
M  V30 6 2 6 7
M  V30 7 1 7 8
M  V30 8 2 8 9
M  V30 9 1 9 10
M  V30 10 1 10 11
M  V30 11 1 11 12
M  V30 12 1 12 13
M  V30 13 1 13 14
M  V30 14 1 14 15
M  V30 15 1 15 16
M  V30 16 1 11 17
M  V30 17 2 17 18
M  V30 18 1 18 19
M  V30 19 2 19 20
M  V30 20 1 20 21
M  V30 21 1 21 22
M  V30 22 2 21 23
M  V30 23 1 9 24
M  V30 24 2 24 25
M  V30 25 1 25 26
M  V30 26 2 26 27
M  V30 27 1 27 4
M  V30 28 1 27 8
M  V30 29 1 16 13
M  V30 30 1 23 17
M  V30 31 1 1 28
M  V30 32 1 1 29
M  V30 33 1 5 30
M  V30 34 1 6 31
M  V30 35 1 7 32
M  V30 36 1 10 33
M  V30 37 1 11 34 CFG=3
M  V30 38 1 12 35
M  V30 39 1 12 36
M  V30 40 1 14 37
M  V30 41 1 14 38
M  V30 42 1 15 39
M  V30 43 1 15 40
M  V30 44 1 16 41
M  V30 45 1 16 42
M  V30 46 1 18 43
M  V30 47 1 19 44
M  V30 48 1 20 45
M  V30 49 1 23 46
M  V30 50 1 25 47
M  V30 END BOND
M  V30 END CTAB
M  END
>  <Dataset>  (69) 
ChEMBL_Kinases

>  <Ligand_Instance>  (69) 
nan

>  <PDB_ID>  (69) 
nan

>  <Standardized_SMILES>  (69) 
NC(=O)c1cccc2c(N[C@H](CN3CCC3)c3cccc(F)c3)ncnc12

>  <Name>  (69) 
nan

>  <Pocket>  (69) 
nan

>  <ATP_Site>  (69) 
nan

>  <Peripheral>  (69) 
nan

>  <Num_H_Atoms_ProtBoundConf>  (69) 
nan

>  <Num_Resolved_Atoms>  (69) 
nan

>  <Num_Not_Resolved_Atoms>  (69) 
nan

$$$$
CHEMBL4086119
     RDKit          3D

  0  0  0  0  0  0  0  0  0  0999 V3000
M  V30 BEGIN CTAB
M  V30 COUNTS 48 50 0 0 0
M  V30 BEGIN ATOM
M  V30 1 C 4.384663 -4.563689 1.171450 0
M  V30 2 O 4.739433 -4.616793 -0.158861 0
M  V30 3 C 4.601041 -3.393672 -0.793728 0
M  V30 4 C 5.443287 -2.341938 -0.179342 0
M  V30 5 N 5.341564 -1.025399 -0.824169 0
M  V30 6 C 4.255803 -0.116471 -0.893069 0
M  V30 7 C 4.401221 1.079932 -1.606771 0
M  V30 8 C 3.347871 1.961678 -1.660160 0
M  V30 9 N 2.185353 1.726791 -1.058075 0
M  V30 10 C 1.959401 0.584470 -0.341000 0
M  V30 11 N 0.724164 0.304276 0.316300 0
M  V30 12 C 0.554539 0.731099 1.661771 0
M  V30 13 O 1.434168 1.347182 2.315929 0
M  V30 14 C -0.728491 0.414637 2.278246 0
M  V30 15 C -0.825257 0.863617 3.634192 0
M  V30 16 S -2.551385 0.327581 4.161485 0
M  V30 17 C -2.812273 -0.408307 2.428056 0
M  V30 18 C -4.036059 -1.129366 1.873696 0
M  V30 19 N -4.288277 -2.426605 1.974434 0
M  V30 20 N -5.434599 -2.730324 1.388125 0
M  V30 21 C -5.917899 -1.564141 0.899250 0
M  V30 22 N -5.040831 -0.591823 1.209552 0
M  V30 23 C -5.298670 0.745744 0.816138 0
M  V30 24 C -4.470700 1.808860 1.438814 0
M  V30 25 C -6.750569 1.054166 1.226195 0
M  V30 26 N -1.826537 -0.182920 1.903080 0
M  V30 27 C 3.039435 -0.285411 -0.305016 0
M  V30 28 H 4.490238 -5.597940 1.616550 0
M  V30 29 H 5.170400 -3.985260 1.713243 0
M  V30 30 H 3.362020 -4.212101 1.328639 0
M  V30 31 H 3.503369 -3.158479 -0.773719 0
M  V30 32 H 4.933689 -3.497708 -1.872106 0
M  V30 33 H 5.066758 -2.211323 0.885868 0
M  V30 34 H 6.484115 -2.658318 -0.076541 0
M  V30 35 H 6.229851 -0.737276 -1.304609 0
M  V30 36 H 5.342992 1.282731 -2.101355 0
M  V30 37 H 3.509606 2.870150 -2.222992 0
M  V30 38 H -0.008477 -0.208597 -0.230445 0
M  V30 39 H -0.227997 1.398519 4.419917 0
M  V30 40 H -6.857419 -1.524918 0.364573 0
M  V30 41 H -5.252184 0.918799 -0.298082 0
M  V30 42 H -4.602602 1.751159 2.534414 0
M  V30 43 H -3.452271 1.927602 1.077533 0
M  V30 44 H -4.978383 2.786561 1.166504 0
M  V30 45 H -6.804464 0.685107 2.293491 0
M  V30 46 H -6.961043 2.141159 1.172672 0
M  V30 47 H -7.481578 0.452646 0.660808 0
M  V30 48 H 2.847008 -1.162902 0.263840 0
M  V30 END ATOM
M  V30 BEGIN BOND
M  V30 1 1 1 2
M  V30 2 1 2 3
M  V30 3 1 3 4
M  V30 4 1 4 5
M  V30 5 1 5 6
M  V30 6 2 6 7
M  V30 7 1 7 8
M  V30 8 2 8 9
M  V30 9 1 9 10
M  V30 10 1 10 11
M  V30 11 1 11 12
M  V30 12 2 12 13
M  V30 13 1 12 14
M  V30 14 2 14 15
M  V30 15 1 15 16
M  V30 16 1 16 17
M  V30 17 1 17 18
M  V30 18 2 18 19
M  V30 19 1 19 20
M  V30 20 2 20 21
M  V30 21 1 21 22
M  V30 22 1 22 23
M  V30 23 1 23 24
M  V30 24 1 23 25
M  V30 25 2 17 26
M  V30 26 2 10 27
M  V30 27 1 27 6
M  V30 28 1 26 14
M  V30 29 1 22 18
M  V30 30 1 1 28
M  V30 31 1 1 29
M  V30 32 1 1 30
M  V30 33 1 3 31
M  V30 34 1 3 32
M  V30 35 1 4 33
M  V30 36 1 4 34
M  V30 37 1 5 35
M  V30 38 1 7 36
M  V30 39 1 8 37
M  V30 40 1 11 38
M  V30 41 1 15 39
M  V30 42 1 21 40
M  V30 43 1 23 41
M  V30 44 1 24 42
M  V30 45 1 24 43
M  V30 46 1 24 44
M  V30 47 1 25 45
M  V30 48 1 25 46
M  V30 49 1 25 47
M  V30 50 1 27 48
M  V30 END BOND
M  V30 END CTAB
M  END
>  <Dataset>  (70) 
ChEMBL_Kinases

>  <Ligand_Instance>  (70) 
nan

>  <PDB_ID>  (70) 
nan

>  <Standardized_SMILES>  (70) 
COCCNc1ccnc(NC(=O)c2csc(-c3nncn3C(C)C)n2)c1

>  <Name>  (70) 
nan

>  <Pocket>  (70) 
nan

>  <ATP_Site>  (70) 
nan

>  <Peripheral>  (70) 
nan

>  <Num_H_Atoms_ProtBoundConf>  (70) 
nan

>  <Num_Resolved_Atoms>  (70) 
nan

>  <Num_Not_Resolved_Atoms>  (70) 
nan

$$$$
CHEMBL4851116
     RDKit          3D

  0  0  0  0  0  0  0  0  0  0999 V3000
M  V30 BEGIN CTAB
M  V30 COUNTS 49 53 0 0 0
M  V30 BEGIN ATOM
M  V30 1 C 2.272468 -2.590230 0.241408 0
M  V30 2 C 3.707884 -2.173873 0.262813 0
M  V30 3 C 4.061893 -1.330238 -0.962612 0
M  V30 4 N 4.155604 -1.571400 1.479391 0
M  V30 5 C 4.971341 -2.133405 2.419999 0
M  V30 6 N 5.207421 -1.307626 3.451869 0
M  V30 7 N 4.538079 -0.175639 3.195550 0
M  V30 8 C 3.907356 -0.354418 1.996911 0
M  V30 9 C 3.054049 0.646377 1.330337 0
M  V30 10 C 3.584387 1.752968 0.664416 0
M  V30 11 C 2.711233 2.642189 0.066089 0
M  V30 12 C 1.346916 2.446205 0.122205 0
M  V30 13 N 0.286964 3.126844 -0.355500 0
M  V30 14 N -0.843530 2.502715 -0.020692 0
M  V30 15 C -0.576347 1.383412 0.692477 0
M  V30 16 C -1.549226 0.439684 1.234235 0
M  V30 17 C -1.363089 0.021188 2.535787 0
M  V30 18 C -2.222611 -0.869675 3.145173 0
M  V30 19 C -3.311372 -1.374048 2.453834 0
M  V30 20 C -3.498851 -0.953843 1.146043 0
M  V30 21 C -4.653675 -1.491397 0.418582 0
M  V30 22 C -4.592597 -1.671080 -0.945183 0
M  V30 23 C -5.716685 -2.186900 -1.600171 0
M  V30 24 C -6.831564 -2.490512 -0.848444 0
M  V30 25 N -6.862764 -2.304509 0.482985 0
M  V30 26 C -5.795228 -1.806809 1.157778 0
M  V30 27 C -2.641593 -0.066470 0.540988 0
M  V30 28 C 0.800724 1.360206 0.774558 0
M  V30 29 C 1.672550 0.476100 1.369598 0
M  V30 30 H 1.810968 -2.741386 1.221402 0
M  V30 31 H 1.667232 -1.851308 -0.359132 0
M  V30 32 H 2.101666 -3.554493 -0.312214 0
M  V30 33 H 4.300544 -3.118154 0.097117 0
M  V30 34 H 4.045990 -1.989235 -1.873910 0
M  V30 35 H 3.367441 -0.505958 -1.139143 0
M  V30 36 H 5.125706 -1.036315 -0.829218 0
M  V30 37 H 5.359368 -3.152216 2.289808 0
M  V30 38 H 4.668790 1.850585 0.656273 0
M  V30 39 H 3.143656 3.491057 -0.443546 0
M  V30 40 H 0.344793 4.002049 -0.900114 0
M  V30 41 H -0.570424 0.317671 3.207891 0
M  V30 42 H -2.136484 -1.240572 4.163039 0
M  V30 43 H -4.003476 -2.073228 2.901659 0
M  V30 44 H -3.711711 -1.423852 -1.489745 0
M  V30 45 H -5.676093 -2.331993 -2.678329 0
M  V30 46 H -7.696776 -2.888643 -1.360564 0
M  V30 47 H -5.895919 -1.685790 2.226305 0
M  V30 48 H -2.772879 0.270787 -0.475958 0
M  V30 49 H 1.300769 -0.392270 1.893552 0
M  V30 END ATOM
M  V30 BEGIN BOND
M  V30 1 1 1 2
M  V30 2 1 2 3
M  V30 3 1 2 4
M  V30 4 1 4 5
M  V30 5 2 5 6
M  V30 6 1 6 7
M  V30 7 2 7 8
M  V30 8 1 8 9
M  V30 9 2 9 10
M  V30 10 1 10 11
M  V30 11 2 11 12
M  V30 12 1 12 13
M  V30 13 1 13 14
M  V30 14 2 14 15
M  V30 15 1 15 16
M  V30 16 2 16 17
M  V30 17 1 17 18
M  V30 18 2 18 19
M  V30 19 1 19 20
M  V30 20 1 20 21
M  V30 21 2 21 22
M  V30 22 1 22 23
M  V30 23 2 23 24
M  V30 24 1 24 25
M  V30 25 2 25 26
M  V30 26 2 20 27
M  V30 27 1 15 28
M  V30 28 2 28 29
M  V30 29 1 8 4
M  V30 30 1 29 9
M  V30 31 1 28 12
M  V30 32 1 27 16
M  V30 33 1 26 21
M  V30 34 1 1 30
M  V30 35 1 1 31
M  V30 36 1 1 32
M  V30 37 1 2 33
M  V30 38 1 3 34
M  V30 39 1 3 35
M  V30 40 1 3 36
M  V30 41 1 5 37
M  V30 42 1 10 38
M  V30 43 1 11 39
M  V30 44 1 13 40
M  V30 45 1 17 41
M  V30 46 1 18 42
M  V30 47 1 19 43
M  V30 48 1 22 44
M  V30 49 1 23 45
M  V30 50 1 24 46
M  V30 51 1 26 47
M  V30 52 1 27 48
M  V30 53 1 29 49
M  V30 END BOND
M  V30 END CTAB
M  END
>  <Dataset>  (71) 
ChEMBL_Kinases

>  <Ligand_Instance>  (71) 
nan

>  <PDB_ID>  (71) 
nan

>  <Standardized_SMILES>  (71) 
CC(C)n1cnnc1-c1ccc2[nH]nc(-c3cccc(-c4cccnc4)c3)c2c1

>  <Name>  (71) 
nan

>  <Pocket>  (71) 
nan

>  <ATP_Site>  (71) 
nan

>  <Peripheral>  (71) 
nan

>  <Num_H_Atoms_ProtBoundConf>  (71) 
nan

>  <Num_Resolved_Atoms>  (71) 
nan

>  <Num_Not_Resolved_Atoms>  (71) 
nan

$$$$
CHEMBL4851478
     RDKit          3D

  0  0  0  0  0  0  0  0  0  0999 V3000
M  V30 BEGIN CTAB
M  V30 COUNTS 46 51 0 0 0
M  V30 BEGIN ATOM
M  V30 1 C 1.173641 -2.542045 2.051667 0
M  V30 2 C 1.088399 -1.192373 2.396730 0
M  V30 3 C -0.068418 -0.427959 2.216303 0
M  V30 4 C -0.097878 0.982770 2.595549 0
M  V30 5 N -1.021474 1.689788 3.267708 0
M  V30 6 N -0.683190 2.942761 3.409786 0
M  V30 7 C 0.523450 3.171139 2.827411 0
M  V30 8 C 1.346180 4.263679 2.670243 0
M  V30 9 C 2.562412 4.194569 2.005540 0
M  V30 10 C 2.935732 2.958365 1.488851 0
M  V30 11 C 4.208118 2.830057 0.777572 0
M  V30 12 C 4.914815 3.717959 -0.003803 0
M  V30 13 N 6.030508 3.058150 -0.406248 0
M  V30 14 N 6.018419 1.829159 0.096191 0
M  V30 15 C 4.916285 1.628177 0.837511 0
M  V30 16 C 2.088381 1.885859 1.664375 0
M  V30 17 C 0.875965 1.916187 2.317457 0
M  V30 18 C -1.168961 -1.076987 1.663381 0
M  V30 19 C -1.084375 -2.429910 1.317174 0
M  V30 20 N -2.319903 -2.886873 0.770895 0
M  V30 21 C -3.602485 -2.779188 1.196376 0
M  V30 22 N -4.370238 -3.399018 0.281729 0
M  V30 23 C -3.595506 -3.895049 -0.711098 0
M  V30 24 C -4.035055 -4.652529 -1.925951 0
M  V30 25 C -3.272508 -4.279726 -3.153404 0
M  V30 26 C -3.151995 -5.659983 -2.557811 0
M  V30 27 C -2.295828 -3.570327 -0.400670 0
M  V30 28 C 0.058720 -3.154164 1.504054 0
M  V30 29 H 2.076289 -3.104442 2.201481 0
M  V30 30 H 1.976713 -0.780268 2.813650 0
M  V30 31 H -1.252069 3.669752 3.898507 0
M  V30 32 H 1.025279 5.206690 3.083377 0
M  V30 33 H 3.165309 5.066484 1.908388 0
M  V30 34 H 4.473491 4.693267 -0.132901 0
M  V30 35 H 6.805255 1.166421 -0.107308 0
M  V30 36 H 4.650074 0.704530 1.368967 0
M  V30 37 H 2.452180 0.955520 1.231021 0
M  V30 38 H -2.020088 -0.439351 1.552935 0
M  V30 39 H -3.855861 -2.268654 2.116339 0
M  V30 40 H -5.122370 -4.823350 -2.054097 0
M  V30 41 H -2.373092 -3.602140 -3.086202 0
M  V30 42 H -3.809394 -4.158903 -4.126206 0
M  V30 43 H -2.241681 -5.963384 -2.010796 0
M  V30 44 H -3.613585 -6.468665 -3.139701 0
M  V30 45 H -1.442122 -3.846879 -1.034711 0
M  V30 46 H 0.020755 -4.175586 1.207640 0
M  V30 END ATOM
M  V30 BEGIN BOND
M  V30 1 2 1 2
M  V30 2 1 2 3
M  V30 3 1 3 4
M  V30 4 2 4 5
M  V30 5 1 5 6
M  V30 6 1 6 7
M  V30 7 2 7 8
M  V30 8 1 8 9
M  V30 9 2 9 10
M  V30 10 1 10 11
M  V30 11 1 11 12
M  V30 12 2 12 13
M  V30 13 1 13 14
M  V30 14 1 14 15
M  V30 15 1 10 16
M  V30 16 2 16 17
M  V30 17 2 3 18
M  V30 18 1 18 19
M  V30 19 1 19 20
M  V30 20 1 20 21
M  V30 21 2 21 22
M  V30 22 1 22 23
M  V30 23 1 23 24
M  V30 24 1 24 25
M  V30 25 1 25 26
M  V30 26 2 23 27
M  V30 27 2 19 28
M  V30 28 1 28 1
M  V30 29 1 17 4
M  V30 30 1 27 20
M  V30 31 1 17 7
M  V30 32 1 26 24
M  V30 33 2 15 11
M  V30 34 1 1 29
M  V30 35 1 2 30
M  V30 36 1 6 31
M  V30 37 1 8 32
M  V30 38 1 9 33
M  V30 39 1 12 34
M  V30 40 1 14 35
M  V30 41 1 15 36
M  V30 42 1 16 37
M  V30 43 1 18 38
M  V30 44 1 21 39
M  V30 45 1 24 40
M  V30 46 1 25 41
M  V30 47 1 25 42
M  V30 48 1 26 43
M  V30 49 1 26 44
M  V30 50 1 27 45
M  V30 51 1 28 46
M  V30 END BOND
M  V30 END CTAB
M  END
>  <Dataset>  (72) 
ChEMBL_Kinases

>  <Ligand_Instance>  (72) 
nan

>  <PDB_ID>  (72) 
nan

>  <Standardized_SMILES>  (72) 
c1cc(-c2n[nH]c3ccc(-c4cn[nH]c4)cc23)cc(-n2cnc(C3CC3)c2)c1

>  <Name>  (72) 
nan

>  <Pocket>  (72) 
nan

>  <ATP_Site>  (72) 
nan

>  <Peripheral>  (72) 
nan

>  <Num_H_Atoms_ProtBoundConf>  (72) 
nan

>  <Num_Resolved_Atoms>  (72) 
nan

>  <Num_Not_Resolved_Atoms>  (72) 
nan

$$$$
CHEMBL4851229
     RDKit          3D

  0  0  0  0  0  0  0  0  0  0999 V3000
M  V30 BEGIN CTAB
M  V30 COUNTS 61 65 0 0 0
M  V30 BEGIN ATOM
M  V30 1 C 1.769122 0.904589 5.848864 0
M  V30 2 O 1.989282 1.585127 4.606378 0
M  V30 3 C 3.156879 1.253760 3.928680 0
M  V30 4 C 4.076997 0.321809 4.401010 0
M  V30 5 C 5.228680 0.009549 3.710665 0
M  V30 6 C 5.506048 0.632820 2.496536 0
M  V30 7 F 6.606409 0.379689 1.769122 0
M  V30 8 C 4.617057 1.566606 1.990137 0
M  V30 9 C 3.457756 1.860646 2.715478 0
M  V30 10 C 2.493059 2.841774 2.214214 0
M  V30 11 C 2.604474 4.185775 2.547707 0
M  V30 12 F 3.601501 4.621346 3.339913 0
M  V30 13 C 1.659722 5.052968 2.039078 0
M  V30 14 N 0.624531 4.686984 1.232845 0
M  V30 15 C 0.505287 3.378048 0.900406 0
M  V30 16 N -0.360994 2.672756 0.150244 0
M  V30 17 C -0.037621 1.367225 0.133569 0
M  V30 18 C -0.760949 0.301289 -0.583037 0
M  V30 19 C -1.813336 0.655448 -1.265400 0
M  V30 20 C -2.548802 -0.414582 -1.991427 0
M  V30 21 N -2.348575 -1.662783 -1.238598 0
M  V30 22 C -3.332603 -2.647762 -1.586802 0 CFG=1
M  V30 23 C -3.382057 -3.073732 -2.998540 0
M  V30 24 C -2.866959 -4.440082 -3.312306 0
M  V30 25 C -3.063023 -5.470021 -2.259322 0 CFG=1
M  V30 26 C -1.755083 -5.975321 -1.744327 0
M  V30 27 O -0.662195 -5.540157 -2.190366 0
M  V30 28 O -1.659011 -6.929479 -0.769159 0
M  V30 29 C -3.876036 -5.035371 -1.076675 0
M  V30 30 C -3.253027 -3.756476 -0.563486 0
M  V30 31 C -0.987450 -2.014305 -1.380233 0
M  V30 32 C -0.206962 -1.082733 -0.450292 0
M  V30 33 C 1.107471 1.256604 0.927928 0
M  V30 34 C 1.433171 2.500329 1.395038 0
M  V30 35 H 0.843032 1.214754 6.340767 0
M  V30 36 H 1.795439 -0.198554 5.619480 0
M  V30 37 H 2.672255 1.071745 6.475866 0
M  V30 38 H 3.853261 -0.153958 5.339892 0
M  V30 39 H 5.951582 -0.706827 4.058019 0
M  V30 40 H 4.721546 2.109842 1.070045 0
M  V30 41 H 1.689205 6.129537 2.263671 0
M  V30 42 H -1.155769 3.157819 -0.323882 0
M  V30 43 H -2.153369 1.677815 -1.314186 0
M  V30 44 H -3.615861 -0.158946 -2.089035 0
M  V30 45 H -2.031157 -0.550259 -2.957312 0
M  V30 46 H -4.316851 -2.142882 -1.344959 0
M  V30 47 H -2.779764 -2.337736 -3.607342 0
M  V30 48 H -4.399977 -2.983031 -3.435031 0
M  V30 49 H -1.780822 -4.439791 -3.597370 0
M  V30 50 H -3.361814 -4.812456 -4.246501 0
M  V30 51 H -3.575488 -6.396273 -2.653055 0
M  V30 52 H -0.844789 -6.942964 -0.147034 0
M  V30 53 H -3.746971 -5.785696 -0.274937 0
M  V30 54 H -4.930645 -4.916988 -1.394484 0
M  V30 55 H -3.829739 -3.515157 0.376607 0
M  V30 56 H -2.241537 -3.997989 -0.230615 0
M  V30 57 H -0.636728 -1.727861 -2.414463 0
M  V30 58 H -0.678515 -3.016056 -1.098165 0
M  V30 59 H -0.465337 -1.400465 0.594957 0
M  V30 60 H 0.872800 -1.135834 -0.608774 0
M  V30 61 H 1.595436 0.305263 1.095425 0
M  V30 END ATOM
M  V30 BEGIN BOND
M  V30 1 1 1 2
M  V30 2 1 2 3
M  V30 3 2 3 4
M  V30 4 1 4 5
M  V30 5 2 5 6
M  V30 6 1 6 7
M  V30 7 1 6 8
M  V30 8 2 8 9
M  V30 9 1 9 10
M  V30 10 2 10 11
M  V30 11 1 11 12
M  V30 12 1 11 13
M  V30 13 2 13 14
M  V30 14 1 14 15
M  V30 15 1 15 16
M  V30 16 1 16 17
M  V30 17 1 17 18
M  V30 18 2 18 19
M  V30 19 1 19 20
M  V30 20 1 20 21
M  V30 21 1 21 22
M  V30 22 1 22 23
M  V30 23 1 23 24
M  V30 24 1 24 25
M  V30 25 1 25 26
M  V30 26 2 26 27
M  V30 27 1 26 28
M  V30 28 1 25 29
M  V30 29 1 29 30
M  V30 30 1 21 31
M  V30 31 1 31 32
M  V30 32 2 17 33
M  V30 33 1 33 34
M  V30 34 1 9 3
M  V30 35 1 34 10
M  V30 36 2 34 15
M  V30 37 1 32 18
M  V30 38 1 30 22
M  V30 39 1 1 35
M  V30 40 1 1 36
M  V30 41 1 1 37
M  V30 42 1 4 38
M  V30 43 1 5 39
M  V30 44 1 8 40
M  V30 45 1 13 41
M  V30 46 1 16 42
M  V30 47 1 19 43
M  V30 48 1 20 44
M  V30 49 1 20 45
M  V30 50 1 22 46 CFG=1
M  V30 51 1 23 47
M  V30 52 1 23 48
M  V30 53 1 24 49
M  V30 54 1 24 50
M  V30 55 1 25 51 CFG=3
M  V30 56 1 28 52
M  V30 57 1 29 53
M  V30 58 1 29 54
M  V30 59 1 30 55
M  V30 60 1 30 56
M  V30 61 1 31 57
M  V30 62 1 31 58
M  V30 63 1 32 59
M  V30 64 1 32 60
M  V30 65 1 33 61
M  V30 END BOND
M  V30 END CTAB
M  END
>  <Dataset>  (73) 
ChEMBL_Kinases

>  <Ligand_Instance>  (73) 
nan

>  <PDB_ID>  (73) 
nan

>  <Standardized_SMILES>  (73) 
COc1ccc(F)cc1-c1c(F)cnc2[nH]c(C3=CCN([C@H]4CC[C@@H](C(=O)O)CC4)CC3)cc12

>  <Name>  (73) 
nan

>  <Pocket>  (73) 
nan

>  <ATP_Site>  (73) 
nan

>  <Peripheral>  (73) 
nan

>  <Num_H_Atoms_ProtBoundConf>  (73) 
nan

>  <Num_Resolved_Atoms>  (73) 
nan

>  <Num_Not_Resolved_Atoms>  (73) 
nan

$$$$
CHEMBL4085987
     RDKit          3D

  0  0  0  0  0  0  0  0  0  0999 V3000
M  V30 BEGIN CTAB
M  V30 COUNTS 74 78 0 0 0
M  V30 BEGIN ATOM
M  V30 1 C 6.614220 0.479738 -1.419965 0
M  V30 2 C 6.294261 0.274483 0.030627 0
M  V30 3 C 5.184880 1.032533 0.585144 0 CFG=2
M  V30 4 C 5.016823 0.759949 2.075856 0
M  V30 5 C 5.966750 0.213505 2.948657 0
M  V30 6 C 7.255140 -0.380066 2.753701 0
M  V30 7 N 8.280959 -0.862047 2.581771 0
M  V30 8 N 5.482754 0.294197 4.225004 0
M  V30 9 C 4.274690 0.869756 4.129827 0
M  V30 10 N 3.999859 1.141629 2.841532 0
M  V30 11 C 2.816029 1.596053 2.202399 0
M  V30 12 C 1.808739 2.017846 3.031468 0
M  V30 13 N 0.691240 2.457601 2.371130 0
M  V30 14 C 0.656033 2.448254 1.026091 0
M  V30 15 N -0.601559 2.938567 0.583692 0
M  V30 16 C -1.650355 1.971150 0.398745 0
M  V30 17 C -1.399949 0.605920 0.589442 0
M  V30 18 C -2.326691 -0.401741 0.436642 0
M  V30 19 C -3.605258 -0.048732 0.066038 0
M  V30 20 C -4.680557 -1.006348 -0.152648 0
M  V30 21 O -5.847702 -0.680817 -0.417033 0
M  V30 22 N -4.473638 -2.413363 -0.080846 0
M  V30 23 C -5.506661 -3.407187 -0.291286 0
M  V30 24 C -5.254921 -4.115051 -1.590342 0
M  V30 25 C -4.889462 -5.570661 -1.381102 0
M  V30 26 N -3.947689 -5.636922 -0.287626 0
M  V30 27 C -3.327369 -6.931751 -0.312960 0
M  V30 28 C -4.694573 -5.457191 0.932710 0
M  V30 29 C -5.668773 -4.326111 0.868682 0
M  V30 30 C -3.887785 1.284747 -0.130097 0
M  V30 31 C -2.945138 2.307063 0.026094 0
M  V30 32 O -3.242914 3.645690 -0.173204 0
M  V30 33 C -4.585370 3.981349 -0.558030 0
M  V30 34 N 1.678966 2.022849 0.295333 0
M  V30 35 C 2.816710 1.571825 0.814941 0
M  V30 36 N 3.913131 1.107354 -0.010744 0
M  V30 37 C 3.531372 0.727126 -1.316236 0
M  V30 38 C 3.511261 -0.801237 -1.509137 0
M  V30 39 C 2.229227 1.211047 -1.870968 0
M  V30 40 H 6.479170 1.506891 -1.766627 0
M  V30 41 H 7.760480 0.338197 -1.564201 0
M  V30 42 H 6.202675 -0.290210 -2.076248 0
M  V30 43 H 6.330081 -0.806676 0.315364 0
M  V30 44 H 7.235073 0.670195 0.561119 0
M  V30 45 H 5.549483 2.131296 0.623486 0
M  V30 46 H 3.638411 1.074619 4.973512 0
M  V30 47 H 1.905950 1.995044 4.096239 0
M  V30 48 H -0.854012 3.913394 0.377060 0
M  V30 49 H -0.387851 0.325272 0.880960 0
M  V30 50 H -2.079863 -1.437580 0.594979 0
M  V30 51 H -3.529121 -2.802929 0.132802 0
M  V30 52 H -6.452486 -2.812081 -0.419599 0
M  V30 53 H -6.148691 -4.087036 -2.212570 0
M  V30 54 H -4.396870 -3.644816 -2.107308 0
M  V30 55 H -5.808653 -6.131169 -1.062914 0
M  V30 56 H -4.524566 -6.031051 -2.305615 0
M  V30 57 H -2.816010 -7.065103 -1.311692 0
M  V30 58 H -2.541774 -7.023495 0.446908 0
M  V30 59 H -4.071740 -7.773018 -0.260660 0
M  V30 60 H -5.260245 -6.406032 1.116743 0
M  V30 61 H -3.990451 -5.345741 1.795276 0
M  V30 62 H -6.736446 -4.697111 0.888531 0
M  V30 63 H -5.574851 -3.741859 1.813139 0
M  V30 64 H -4.888559 1.588697 -0.422351 0
M  V30 65 H -4.874454 3.362929 -1.442180 0
M  V30 66 H -4.642340 5.055443 -0.845003 0
M  V30 67 H -5.280229 3.868358 0.298673 0
M  V30 68 H 4.290943 1.047960 -2.103923 0
M  V30 69 H 2.501488 -1.220436 -1.336108 0
M  V30 70 H 3.788612 -1.086784 -2.542315 0
M  V30 71 H 4.282931 -1.219209 -0.839277 0
M  V30 72 H 1.328342 0.717001 -1.520076 0
M  V30 73 H 2.206069 0.976710 -3.009232 0
M  V30 74 H 2.109031 2.314123 -1.888730 0
M  V30 END ATOM
M  V30 BEGIN BOND
M  V30 1 1 1 2
M  V30 2 1 2 3
M  V30 3 1 3 4
M  V30 4 2 4 5
M  V30 5 1 5 6
M  V30 6 3 6 7
M  V30 7 1 5 8
M  V30 8 2 8 9
M  V30 9 1 9 10
M  V30 10 1 10 11
M  V30 11 2 11 12
M  V30 12 1 12 13
M  V30 13 2 13 14
M  V30 14 1 14 15
M  V30 15 1 15 16
M  V30 16 2 16 17
M  V30 17 1 17 18
M  V30 18 2 18 19
M  V30 19 1 19 20
M  V30 20 2 20 21
M  V30 21 1 20 22
M  V30 22 1 22 23
M  V30 23 1 23 24
M  V30 24 1 24 25
M  V30 25 1 25 26
M  V30 26 1 26 27
M  V30 27 1 26 28
M  V30 28 1 28 29
M  V30 29 1 19 30
M  V30 30 2 30 31
M  V30 31 1 31 32
M  V30 32 1 32 33
M  V30 33 1 14 34
M  V30 34 2 34 35
M  V30 35 1 35 36
M  V30 36 1 36 37
M  V30 37 1 37 38
M  V30 38 1 37 39
M  V30 39 1 36 3
M  V30 40 1 10 4
M  V30 41 1 35 11
M  V30 42 1 31 16
M  V30 43 1 29 23
M  V30 44 1 1 40
M  V30 45 1 1 41
M  V30 46 1 1 42
M  V30 47 1 2 43
M  V30 48 1 2 44
M  V30 49 1 3 45 CFG=1
M  V30 50 1 9 46
M  V30 51 1 12 47
M  V30 52 1 15 48
M  V30 53 1 17 49
M  V30 54 1 18 50
M  V30 55 1 22 51
M  V30 56 1 23 52
M  V30 57 1 24 53
M  V30 58 1 24 54
M  V30 59 1 25 55
M  V30 60 1 25 56
M  V30 61 1 27 57
M  V30 62 1 27 58
M  V30 63 1 27 59
M  V30 64 1 28 60
M  V30 65 1 28 61
M  V30 66 1 29 62
M  V30 67 1 29 63
M  V30 68 1 30 64
M  V30 69 1 33 65
M  V30 70 1 33 66
M  V30 71 1 33 67
M  V30 72 1 37 68
M  V30 73 1 38 69
M  V30 74 1 38 70
M  V30 75 1 38 71
M  V30 76 1 39 72
M  V30 77 1 39 73
M  V30 78 1 39 74
M  V30 END BOND
M  V30 END CTAB
M  END
>  <Dataset>  (74) 
ChEMBL_Kinases

>  <Ligand_Instance>  (74) 
nan

>  <PDB_ID>  (74) 
nan

>  <Standardized_SMILES>  (74) 
CC[C@@H]1c2c(C#N)ncn2-c2cnc(Nc3ccc(C(=O)NC4CCN(C)CC4)cc3OC)nc2N1C(C)C

>  <Name>  (74) 
nan

>  <Pocket>  (74) 
nan

>  <ATP_Site>  (74) 
nan

>  <Peripheral>  (74) 
nan

>  <Num_H_Atoms_ProtBoundConf>  (74) 
nan

>  <Num_Resolved_Atoms>  (74) 
nan

>  <Num_Not_Resolved_Atoms>  (74) 
nan

$$$$
CHEMBL4851277
     RDKit          3D

  0  0  0  0  0  0  0  0  0  0999 V3000
M  V30 BEGIN CTAB
M  V30 COUNTS 54 57 0 0 0
M  V30 BEGIN ATOM
M  V30 1 C 2.307106 -3.339001 5.014087 0
M  V30 2 O 2.055695 -2.337136 4.046778 0
M  V30 3 C 1.819712 -2.604340 2.698935 0
M  V30 4 C 1.830229 -3.915516 2.271105 0
M  V30 5 C 1.596666 -4.192315 0.934598 0
M  V30 6 C 1.350053 -3.205399 -0.008970 0
M  V30 7 C 1.356635 -1.927321 0.496040 0
M  V30 8 C 1.580600 -1.581106 1.809734 0
M  V30 9 N 1.575989 -0.230215 2.251372 0
M  V30 10 C 1.333304 0.992906 1.575927 0
M  V30 11 N 2.184139 1.786420 0.857944 0
M  V30 12 C 1.681501 2.933051 0.315131 0
M  V30 13 C 0.356444 3.249824 0.504476 0
M  V30 14 C -0.187178 4.470870 -0.073140 0
M  V30 15 N 0.315425 5.538009 -0.857982 0
M  V30 16 O -1.383909 4.827487 0.055267 0
M  V30 17 C -0.511753 2.465163 1.222724 0
M  V30 18 N -1.862355 2.865231 1.377334 0
M  V30 19 C -2.948838 2.605339 0.534950 0
M  V30 20 C -2.820249 1.880095 -0.626395 0
M  V30 21 C -3.904351 1.642404 -1.434158 0
M  V30 22 C -5.155698 2.140053 -1.077932 0
M  V30 23 C -5.275438 2.877190 0.106839 0
M  V30 24 C -4.177437 3.105472 0.903586 0
M  V30 25 F -4.301450 3.825696 2.057657 0
M  V30 26 N 0.042252 1.348645 1.732309 0
M  V30 27 C 1.121529 -3.600837 -1.392663 0
M  V30 28 N 0.751220 -4.929269 -1.613425 0
M  V30 29 C -0.193876 -5.220331 -2.626140 0
M  V30 30 C 1.156843 -5.961555 -0.764563 0
M  V30 31 C 1.628341 -5.643699 0.597451 0
M  V30 32 H 1.484454 -4.090897 4.945846 0
M  V30 33 H 3.319563 -3.766677 4.890608 0
M  V30 34 H 2.236960 -2.888105 6.005286 0
M  V30 35 H 2.022495 -4.682370 3.006688 0
M  V30 36 H 1.168271 -1.122669 -0.201667 0
M  V30 37 H 1.781401 -0.022207 3.248743 0
M  V30 38 H 2.374117 3.536615 -0.244484 0
M  V30 39 H 0.569583 6.508615 -0.574464 0
M  V30 40 H 0.558028 5.640726 -1.886932 0
M  V30 41 H -1.928204 3.412110 2.260202 0
M  V30 42 H -1.847644 1.481083 -0.923323 0
M  V30 43 H -3.872635 1.079089 -2.363214 0
M  V30 44 H -6.075025 2.015858 -1.632319 0
M  V30 45 H -6.250220 3.283787 0.415696 0
M  V30 46 H 2.055577 -3.352568 -1.980110 0
M  V30 47 H 0.347255 -2.931587 -1.825762 0
M  V30 48 H -0.433674 -6.303495 -2.589359 0
M  V30 49 H -1.129193 -4.627227 -2.584401 0
M  V30 50 H 0.239017 -5.050277 -3.642162 0
M  V30 51 H 1.935776 -6.605696 -1.273584 0
M  V30 52 H 0.285120 -6.678740 -0.672889 0
M  V30 53 H 2.682603 -6.018055 0.759776 0
M  V30 54 H 1.046180 -6.206583 1.381649 0
M  V30 END ATOM
M  V30 BEGIN BOND
M  V30 1 1 1 2
M  V30 2 1 2 3
M  V30 3 2 3 4
M  V30 4 1 4 5
M  V30 5 2 5 6
M  V30 6 1 6 7
M  V30 7 2 7 8
M  V30 8 1 8 9
M  V30 9 1 9 10
M  V30 10 2 10 11
M  V30 11 1 11 12
M  V30 12 2 12 13
M  V30 13 1 13 14
M  V30 14 1 14 15
M  V30 15 2 14 16
M  V30 16 1 13 17
M  V30 17 1 17 18
M  V30 18 1 18 19
M  V30 19 2 19 20
M  V30 20 1 20 21
M  V30 21 2 21 22
M  V30 22 1 22 23
M  V30 23 2 23 24
M  V30 24 1 24 25
M  V30 25 2 17 26
M  V30 26 1 6 27
M  V30 27 1 27 28
M  V30 28 1 28 29
M  V30 29 1 28 30
M  V30 30 1 30 31
M  V30 31 1 8 3
M  V30 32 1 26 10
M  V30 33 1 31 5
M  V30 34 1 24 19
M  V30 35 1 1 32
M  V30 36 1 1 33
M  V30 37 1 1 34
M  V30 38 1 4 35
M  V30 39 1 7 36
M  V30 40 1 9 37
M  V30 41 1 12 38
M  V30 42 1 15 39
M  V30 43 1 15 40
M  V30 44 1 18 41
M  V30 45 1 20 42
M  V30 46 1 21 43
M  V30 47 1 22 44
M  V30 48 1 23 45
M  V30 49 1 27 46
M  V30 50 1 27 47
M  V30 51 1 29 48
M  V30 52 1 29 49
M  V30 53 1 29 50
M  V30 54 1 30 51
M  V30 55 1 30 52
M  V30 56 1 31 53
M  V30 57 1 31 54
M  V30 END BOND
M  V30 END CTAB
M  END
>  <Dataset>  (75) 
ChEMBL_Kinases

>  <Ligand_Instance>  (75) 
nan

>  <PDB_ID>  (75) 
nan

>  <Standardized_SMILES>  (75) 
COc1cc2c(cc1Nc1ncc(C(N)=O)c(Nc3ccccc3F)n1)CN(C)CC2

>  <Name>  (75) 
nan

>  <Pocket>  (75) 
nan

>  <ATP_Site>  (75) 
nan

>  <Peripheral>  (75) 
nan

>  <Num_H_Atoms_ProtBoundConf>  (75) 
nan

>  <Num_Resolved_Atoms>  (75) 
nan

>  <Num_Not_Resolved_Atoms>  (75) 
nan

$$$$
CHEMBL4851372
     RDKit          3D

  0  0  0  0  0  0  0  0  0  0999 V3000
M  V30 BEGIN CTAB
M  V30 COUNTS 57 61 0 0 0
M  V30 BEGIN ATOM
M  V30 1 C 3.643341 2.168341 5.630309 0
M  V30 2 C 3.280656 1.624025 4.263151 0
M  V30 3 C 2.405826 0.405257 4.469819 0
M  V30 4 N 4.462351 1.270948 3.488671 0
M  V30 5 C 5.625432 0.721422 3.891875 0
M  V30 6 N 6.450344 0.564113 2.838810 0
M  V30 7 N 5.777294 1.023744 1.789278 0
M  V30 8 C 4.556877 1.464510 2.148935 0
M  V30 9 C 3.599695 2.025617 1.189396 0
M  V30 10 C 3.906659 3.178051 0.484737 0
M  V30 11 C 2.982534 3.664413 -0.400468 0
M  V30 12 C 1.743950 3.057725 -0.630365 0
M  V30 13 N 0.665765 3.285251 -1.405085 0
M  V30 14 N -0.231243 2.349457 -1.194309 0
M  V30 15 C 0.174934 1.450491 -0.284226 0
M  V30 16 C -0.510811 0.270240 0.229919 0
M  V30 17 C -0.574019 -0.072811 1.559810 0
M  V30 18 C -1.224202 -1.189288 2.026606 0
M  V30 19 C -1.849626 -2.013006 1.104035 0
M  V30 20 C -1.805516 -1.694353 -0.258970 0
M  V30 21 N -2.491413 -2.635213 -1.074788 0
M  V30 22 C -3.833338 -2.694183 -1.507497 0
M  V30 23 O -4.663469 -1.832182 -1.188197 0
M  V30 24 C -4.279321 -3.793949 -2.357001 0
M  V30 25 C -5.602999 -3.791978 -2.746670 0
M  V30 26 C -6.149362 -4.791365 -3.560841 0
M  V30 27 C -5.311642 -5.805610 -3.975928 0
M  V30 28 C -5.764923 -6.925794 -4.842070 0
M  V30 29 F -6.158680 -7.953246 -4.011846 0
M  V30 30 F -6.718702 -6.557129 -5.757649 0
M  V30 31 F -4.688495 -7.433460 -5.582049 0
M  V30 32 C -3.962911 -5.844225 -3.602690 0
M  V30 33 C -3.482660 -4.829596 -2.798112 0
M  V30 34 C -1.132756 -0.555336 -0.651979 0
M  V30 35 C 1.425879 1.904735 0.068577 0
M  V30 36 C 2.372013 1.427972 0.958745 0
M  V30 37 H 2.758496 1.958861 6.293758 0
M  V30 38 H 3.884092 3.243811 5.617392 0
M  V30 39 H 4.513297 1.574162 5.998058 0
M  V30 40 H 2.720912 2.418912 3.740769 0
M  V30 41 H 2.652952 -0.030576 5.449241 0
M  V30 42 H 2.726425 -0.358755 3.705502 0
M  V30 43 H 1.317438 0.633344 4.367498 0
M  V30 44 H 5.835501 0.456668 4.918205 0
M  V30 45 H 4.850617 3.680957 0.629131 0
M  V30 46 H 3.192827 4.568358 -0.970404 0
M  V30 47 H 0.642814 4.113757 -2.047741 0
M  V30 48 H -0.083189 0.573200 2.287492 0
M  V30 49 H -1.240215 -1.410682 3.101015 0
M  V30 50 H -2.351042 -2.887639 1.537819 0
M  V30 51 H -1.758853 -3.337248 -1.317982 0
M  V30 52 H -6.339681 -3.028700 -2.465688 0
M  V30 53 H -7.186628 -4.787194 -3.864547 0
M  V30 54 H -3.284105 -6.620972 -3.909332 0
M  V30 55 H -2.453647 -4.837964 -2.499726 0
M  V30 56 H -1.169158 -0.416638 -1.728626 0
M  V30 57 H 2.195698 0.537002 1.537323 0
M  V30 END ATOM
M  V30 BEGIN BOND
M  V30 1 1 1 2
M  V30 2 1 2 3
M  V30 3 1 2 4
M  V30 4 1 4 5
M  V30 5 2 5 6
M  V30 6 1 6 7
M  V30 7 2 7 8
M  V30 8 1 8 9
M  V30 9 2 9 10
M  V30 10 1 10 11
M  V30 11 2 11 12
M  V30 12 1 12 13
M  V30 13 1 13 14
M  V30 14 2 14 15
M  V30 15 1 15 16
M  V30 16 2 16 17
M  V30 17 1 17 18
M  V30 18 2 18 19
M  V30 19 1 19 20
M  V30 20 1 20 21
M  V30 21 1 21 22
M  V30 22 2 22 23
M  V30 23 1 22 24
M  V30 24 2 24 25
M  V30 25 1 25 26
M  V30 26 2 26 27
M  V30 27 1 27 28
M  V30 28 1 28 29
M  V30 29 1 28 30
M  V30 30 1 28 31
M  V30 31 1 27 32
M  V30 32 2 32 33
M  V30 33 2 20 34
M  V30 34 1 15 35
M  V30 35 2 35 36
M  V30 36 1 8 4
M  V30 37 1 36 9
M  V30 38 1 35 12
M  V30 39 1 34 16
M  V30 40 1 33 24
M  V30 41 1 1 37
M  V30 42 1 1 38
M  V30 43 1 1 39
M  V30 44 1 2 40
M  V30 45 1 3 41
M  V30 46 1 3 42
M  V30 47 1 3 43
M  V30 48 1 5 44
M  V30 49 1 10 45
M  V30 50 1 11 46
M  V30 51 1 13 47
M  V30 52 1 17 48
M  V30 53 1 18 49
M  V30 54 1 19 50
M  V30 55 1 21 51
M  V30 56 1 25 52
M  V30 57 1 26 53
M  V30 58 1 32 54
M  V30 59 1 33 55
M  V30 60 1 34 56
M  V30 61 1 36 57
M  V30 END BOND
M  V30 END CTAB
M  END
>  <Dataset>  (76) 
ChEMBL_Kinases

>  <Ligand_Instance>  (76) 
nan

>  <PDB_ID>  (76) 
nan

>  <Standardized_SMILES>  (76) 
CC(C)n1cnnc1-c1ccc2[nH]nc(-c3cccc(NC(=O)c4ccc(C(F)(F)F)cc4)c3)c2c1

>  <Name>  (76) 
nan

>  <Pocket>  (76) 
nan

>  <ATP_Site>  (76) 
nan

>  <Peripheral>  (76) 
nan

>  <Num_H_Atoms_ProtBoundConf>  (76) 
nan

>  <Num_Resolved_Atoms>  (76) 
nan

>  <Num_Not_Resolved_Atoms>  (76) 
nan

$$$$
CHEMBL4085821
     RDKit          3D

  0  0  0  0  0  0  0  0  0  0999 V3000
M  V30 BEGIN CTAB
M  V30 COUNTS 51 54 0 0 0
M  V30 BEGIN ATOM
M  V30 1 C -0.784420 -2.129108 3.472144 0
M  V30 2 O -0.112020 -2.357092 2.271302 0
M  V30 3 C 1.153411 -1.927780 1.989542 0
M  V30 4 C 1.799754 -1.216848 2.977535 0
M  V30 5 C 3.071924 -0.758920 2.753264 0
M  V30 6 C 3.685243 -1.015599 1.545284 0
M  V30 7 C 2.996899 -1.725650 0.601667 0
M  V30 8 C 1.694892 -2.226745 0.756533 0
M  V30 9 C 1.050857 -2.975882 -0.315524 0
M  V30 10 C 0.252794 -1.998665 -1.146610 0
M  V30 11 N -1.091027 -1.824154 -0.633738 0
M  V30 12 C -1.469709 -0.568178 -0.099660 0
M  V30 13 N -0.500208 0.335477 -0.119339 0
M  V30 14 C -0.634134 1.604590 0.339692 0
M  V30 15 C 0.493354 2.527247 0.275666 0
M  V30 16 C 0.462926 3.831255 0.712436 0
M  V30 17 C 1.540453 4.689142 0.644193 0
M  V30 18 N 2.710858 4.256392 0.123434 0
M  V30 19 C 2.762635 2.981695 -0.310629 0
M  V30 20 C 1.690306 2.093183 -0.254154 0
M  V30 21 C -1.862188 1.948649 0.851869 0
M  V30 22 C -2.890232 1.036065 0.887621 0
M  V30 23 O -4.036584 1.292951 1.344727 0
M  V30 24 N -2.653171 -0.197011 0.406803 0
M  V30 25 C -3.710015 -1.185733 0.425168 0
M  V30 26 C -1.742046 -3.094416 -0.816724 0
M  V30 27 C -0.737513 -4.217731 -1.013384 0
M  V30 28 N 0.307021 -4.131062 -0.006174 0
M  V30 29 H -0.876418 -1.031079 3.614581 0
M  V30 30 H -0.265826 -2.531055 4.360532 0
M  V30 31 H -1.807114 -2.581798 3.344447 0
M  V30 32 H 1.308230 -1.015067 3.936565 0
M  V30 33 H 3.569849 -0.202334 3.534838 0
M  V30 34 H 4.688338 -0.661172 1.352752 0
M  V30 35 H 3.527030 -1.904596 -0.343657 0
M  V30 36 H 1.868565 -3.325289 -1.018720 0
M  V30 37 H 0.185024 -2.264175 -2.215410 0
M  V30 38 H 0.763665 -0.989888 -1.131202 0
M  V30 39 H -0.466971 4.188323 1.130391 0
M  V30 40 H 1.432512 5.688566 1.006248 0
M  V30 41 H 3.717744 2.685975 -0.716774 0
M  V30 42 H 1.868331 1.115181 -0.631863 0
M  V30 43 H -2.049570 2.939350 1.237188 0
M  V30 44 H -4.682363 -0.629225 0.617237 0
M  V30 45 H -3.850411 -1.638416 -0.559131 0
M  V30 46 H -3.632284 -1.878104 1.279082 0
M  V30 47 H -2.386148 -3.419032 0.007873 0
M  V30 48 H -2.396689 -3.081245 -1.740584 0
M  V30 49 H -0.287546 -4.221471 -2.020335 0
M  V30 50 H -1.275265 -5.200348 -0.878063 0
M  V30 51 H -0.155039 -4.215880 0.895724 0
M  V30 END ATOM
M  V30 BEGIN BOND
M  V30 1 1 1 2
M  V30 2 1 2 3
M  V30 3 2 3 4
M  V30 4 1 4 5
M  V30 5 2 5 6
M  V30 6 1 6 7
M  V30 7 2 7 8
M  V30 8 1 8 9
M  V30 9 1 9 10
M  V30 10 1 10 11
M  V30 11 1 11 12
M  V30 12 2 12 13
M  V30 13 1 13 14
M  V30 14 1 14 15
M  V30 15 2 15 16
M  V30 16 1 16 17
M  V30 17 2 17 18
M  V30 18 1 18 19
M  V30 19 2 19 20
M  V30 20 2 14 21
M  V30 21 1 21 22
M  V30 22 2 22 23
M  V30 23 1 22 24
M  V30 24 1 24 25
M  V30 25 1 11 26
M  V30 26 1 26 27
M  V30 27 1 27 28
M  V30 28 1 8 3
M  V30 29 1 28 9
M  V30 30 1 24 12
M  V30 31 1 20 15
M  V30 32 1 1 29
M  V30 33 1 1 30
M  V30 34 1 1 31
M  V30 35 1 4 32
M  V30 36 1 5 33
M  V30 37 1 6 34
M  V30 38 1 7 35
M  V30 39 1 9 36
M  V30 40 1 10 37
M  V30 41 1 10 38
M  V30 42 1 16 39
M  V30 43 1 17 40
M  V30 44 1 19 41
M  V30 45 1 20 42
M  V30 46 1 21 43
M  V30 47 1 25 44
M  V30 48 1 25 45
M  V30 49 1 25 46
M  V30 50 1 26 47
M  V30 51 1 26 48
M  V30 52 1 27 49
M  V30 53 1 27 50
M  V30 54 1 28 51
M  V30 END BOND
M  V30 END CTAB
M  END
>  <Dataset>  (77) 
ChEMBL_Kinases

>  <Ligand_Instance>  (77) 
nan

>  <PDB_ID>  (77) 
nan

>  <Standardized_SMILES>  (77) 
COc1ccccc1C1CN(c2nc(-c3ccncc3)cc(=O)n2C)CCN1

>  <Name>  (77) 
nan

>  <Pocket>  (77) 
nan

>  <ATP_Site>  (77) 
nan

>  <Peripheral>  (77) 
nan

>  <Num_H_Atoms_ProtBoundConf>  (77) 
nan

>  <Num_Resolved_Atoms>  (77) 
nan

>  <Num_Not_Resolved_Atoms>  (77) 
nan

$$$$
CHEMBL4085799
     RDKit          3D

  0  0  0  0  0  0  0  0  0  0999 V3000
M  V30 BEGIN CTAB
M  V30 COUNTS 72 76 0 0 0
M  V30 BEGIN ATOM
M  V30 1 O 5.622585 -1.516695 1.588600 0
M  V30 2 C 6.415419 -0.521077 1.705162 0
M  V30 3 C 6.359460 0.923683 2.134863 0
M  V30 4 N 4.969123 1.154675 2.500138 0
M  V30 5 C 4.131529 0.916044 1.359513 0
M  V30 6 O 4.690238 0.571731 0.297164 0
M  V30 7 C 2.676958 1.053825 1.378573 0
M  V30 8 C 2.026460 0.808323 0.193262 0
M  V30 9 C 0.632732 0.912681 0.119932 0
M  V30 10 C -0.044597 1.263204 1.257181 0
M  V30 11 C -1.518426 1.348788 1.110348 0
M  V30 12 C -1.960242 2.527485 1.729360 0
M  V30 13 N -3.262201 2.816423 1.723321 0
M  V30 14 C -4.132551 1.986556 1.131273 0
M  V30 15 N -5.500415 2.324101 1.149055 0
M  V30 16 C -6.643314 1.677425 0.611171 0
M  V30 17 C -6.627684 0.523403 -0.128022 0
M  V30 18 C -7.701707 -0.136574 -0.661864 0
M  V30 19 C -8.942090 0.419488 -0.432169 0
M  V30 20 C -9.045592 1.578771 0.301327 0
M  V30 21 C -7.906316 2.168072 0.796453 0
M  V30 22 N -3.695988 0.866558 0.545251 0
M  V30 23 C -2.420733 0.470470 0.486333 0
M  V30 24 O -1.648813 -0.508014 0.026375 0
M  V30 25 C -1.663306 -1.669289 -0.643465 0
M  V30 26 C -2.191909 -1.638521 -2.049073 0
M  V30 27 C -2.111266 -3.040570 -2.685129 0
M  V30 28 C -2.763191 -4.023433 -1.802462 0
M  V30 29 N -4.011954 -3.670581 -1.248484 0
M  V30 30 C -4.432049 -2.343769 -1.269095 0
M  V30 31 C -3.702259 -1.374153 -2.101644 0
M  V30 32 C 0.569317 1.518148 2.466190 0
M  V30 33 C 1.958890 1.400667 2.486796 0
M  V30 34 N 7.706709 -1.008116 1.285057 0
M  V30 35 C 7.600765 -2.396926 0.905999 0
M  V30 36 C 7.304146 -2.498910 -0.437671 0
M  V30 37 C 7.152349 -3.755887 -1.033673 0
M  V30 38 C 7.308090 -4.890231 -0.236367 0
M  V30 39 C 7.606422 -4.753364 1.112618 0
M  V30 40 C 7.756021 -3.513416 1.699336 0
M  V30 41 H 6.645242 1.574976 1.275443 0
M  V30 42 H 6.968845 1.066038 3.032030 0
M  V30 43 H 4.518268 1.444759 3.394756 0
M  V30 44 H 2.535922 0.529243 -0.722517 0
M  V30 45 H 0.149146 0.716135 -0.819877 0
M  V30 46 H -1.353373 3.283998 2.244117 0
M  V30 47 H -5.748313 3.225223 1.651855 0
M  V30 48 H -5.682690 0.048674 -0.338240 0
M  V30 49 H -7.623594 -1.039132 -1.232885 0
M  V30 50 H -9.834453 -0.043494 -0.820867 0
M  V30 51 H -10.014408 2.018286 0.484207 0
M  V30 52 H -8.068511 3.089393 1.370843 0
M  V30 53 H -2.193578 -2.456814 -0.042093 0
M  V30 54 H -0.589562 -2.035112 -0.754028 0
M  V30 55 H -1.641406 -0.934177 -2.665460 0
M  V30 56 H -2.690059 -2.953330 -3.629813 0
M  V30 57 H -1.073769 -3.314962 -2.899218 0
M  V30 58 H -2.914832 -4.971086 -2.392682 0
M  V30 59 H -2.065805 -4.299866 -0.977958 0
M  V30 60 H -4.240231 -4.215887 -0.386480 0
M  V30 61 H -4.393593 -1.957338 -0.206783 0
M  V30 62 H -5.512238 -2.283317 -1.528402 0
M  V30 63 H -3.948025 -0.326647 -1.940536 0
M  V30 64 H -3.966245 -1.589132 -3.181627 0
M  V30 65 H -0.008489 1.793147 3.341941 0
M  V30 66 H 2.465415 1.591551 3.408105 0
M  V30 67 H 8.605603 -0.441746 1.254878 0
M  V30 68 H 7.160533 -1.707376 -1.155084 0
M  V30 69 H 6.918537 -3.924720 -2.086949 0
M  V30 70 H 7.196519 -5.884185 -0.670650 0
M  V30 71 H 7.737752 -5.605955 1.774666 0
M  V30 72 H 7.983054 -3.286275 2.718407 0
M  V30 END ATOM
M  V30 BEGIN BOND
M  V30 1 2 1 2
M  V30 2 1 2 3
M  V30 3 1 3 4
M  V30 4 1 4 5
M  V30 5 2 5 6
M  V30 6 1 5 7
M  V30 7 2 7 8
M  V30 8 1 8 9
M  V30 9 2 9 10
M  V30 10 1 10 11
M  V30 11 2 11 12
M  V30 12 1 12 13
M  V30 13 2 13 14
M  V30 14 1 14 15
M  V30 15 1 15 16
M  V30 16 2 16 17
M  V30 17 1 17 18
M  V30 18 2 18 19
M  V30 19 1 19 20
M  V30 20 2 20 21
M  V30 21 1 14 22
M  V30 22 2 22 23
M  V30 23 1 23 24
M  V30 24 1 24 25
M  V30 25 1 25 26
M  V30 26 1 26 27
M  V30 27 1 27 28
M  V30 28 1 28 29
M  V30 29 1 29 30
M  V30 30 1 30 31
M  V30 31 1 10 32
M  V30 32 2 32 33
M  V30 33 1 2 34
M  V30 34 1 34 35
M  V30 35 2 35 36
M  V30 36 1 36 37
M  V30 37 2 37 38
M  V30 38 1 38 39
M  V30 39 2 39 40
M  V30 40 1 33 7
M  V30 41 1 40 35
M  V30 42 1 23 11
M  V30 43 1 31 26
M  V30 44 1 21 16
M  V30 45 1 3 41
M  V30 46 1 3 42
M  V30 47 1 4 43
M  V30 48 1 8 44
M  V30 49 1 9 45
M  V30 50 1 12 46
M  V30 51 1 15 47
M  V30 52 1 17 48
M  V30 53 1 18 49
M  V30 54 1 19 50
M  V30 55 1 20 51
M  V30 56 1 21 52
M  V30 57 1 25 53
M  V30 58 1 25 54
M  V30 59 1 26 55
M  V30 60 1 27 56
M  V30 61 1 27 57
M  V30 62 1 28 58
M  V30 63 1 28 59
M  V30 64 1 29 60
M  V30 65 1 30 61
M  V30 66 1 30 62
M  V30 67 1 31 63
M  V30 68 1 31 64
M  V30 69 1 32 65
M  V30 70 1 33 66
M  V30 71 1 34 67
M  V30 72 1 36 68
M  V30 73 1 37 69
M  V30 74 1 38 70
M  V30 75 1 39 71
M  V30 76 1 40 72
M  V30 END BOND
M  V30 END CTAB
M  END
>  <Dataset>  (78) 
ChEMBL_Kinases

>  <Ligand_Instance>  (78) 
nan

>  <PDB_ID>  (78) 
nan

>  <Standardized_SMILES>  (78) 
O=C(CNC(=O)c1ccc(-c2cnc(Nc3ccccc3)nc2OCC2CCNCC2)cc1)Nc1ccccc1

>  <Name>  (78) 
nan

>  <Pocket>  (78) 
nan

>  <ATP_Site>  (78) 
nan

>  <Peripheral>  (78) 
nan

>  <Num_H_Atoms_ProtBoundConf>  (78) 
nan

>  <Num_Resolved_Atoms>  (78) 
nan

>  <Num_Not_Resolved_Atoms>  (78) 
nan

$$$$
CHEMBL4851433
     RDKit          3D

  0  0  0  0  0  0  0  0  0  0999 V3000
M  V30 BEGIN CTAB
M  V30 COUNTS 55 60 0 0 0
M  V30 BEGIN ATOM
M  V30 1 C 4.465764 2.930679 4.264411 0
M  V30 2 O 3.282658 3.000583 3.463173 0
M  V30 3 C 2.991508 2.037293 2.510980 0
M  V30 4 N 3.874287 1.017771 2.364040 0
M  V30 5 C 3.614457 0.052987 1.433362 0
M  V30 6 C 2.454066 0.149579 0.669280 0
M  V30 7 C 1.558152 1.184841 0.818692 0
M  V30 8 C 1.828523 2.139491 1.749098 0
M  V30 9 N 0.983997 3.256230 2.000888 0
M  V30 10 S -0.624595 3.341806 1.362321 0
M  V30 11 O -0.639201 3.270381 -0.129555 0
M  V30 12 O -1.232548 4.659198 1.750163 0
M  V30 13 C -1.513930 1.997977 2.032145 0
M  V30 14 C -1.740934 1.834216 3.371324 0
M  V30 15 C -2.447334 0.751623 3.848366 0
M  V30 16 C -2.974555 -0.240356 3.019784 0
M  V30 17 C -2.727513 -0.043763 1.677466 0
M  V30 18 C -2.023220 1.033602 1.188934 0
M  V30 19 C -3.264881 -1.063580 0.803297 0
M  V30 20 O -3.426687 -2.271557 1.087747 0
M  V30 21 N -3.783279 -1.314515 -0.483712 0
M  V30 22 C -4.259027 -2.563079 -1.045282 0
M  V30 23 C -3.162835 -3.465060 -1.421579 0
M  V30 24 C -3.519153 -4.794796 -1.493020 0
M  V30 25 N -2.575875 -5.714197 -1.836133 0
M  V30 26 C -1.314991 -5.256166 -2.092625 0
M  V30 27 C -0.953776 -3.941526 -2.024114 0
M  V30 28 C -1.894644 -2.999346 -1.678745 0
M  V30 29 C 0.443310 -3.770252 -2.350386 0
M  V30 30 N 1.133847 -4.454839 -3.238456 0
M  V30 31 C 2.442180 -4.254114 -3.502273 0
M  V30 32 N 3.149065 -3.314637 -2.857701 0
M  V30 33 C 2.571879 -2.545686 -1.928998 0
M  V30 34 C 3.118797 -1.555916 -1.180272 0
M  V30 35 C 2.277315 -0.891290 -0.257976 0
M  V30 36 S 0.596578 -1.671862 -0.414883 0
M  V30 37 C 1.202704 -2.810230 -1.704614 0
M  V30 38 H 5.344317 2.686759 3.632082 0
M  V30 39 H 4.610194 3.834881 4.857558 0
M  V30 40 H 4.379953 2.064623 4.983037 0
M  V30 41 H 4.325836 -0.779453 1.304315 0
M  V30 42 H 0.683454 1.193206 0.190646 0
M  V30 43 H 1.354721 4.042723 2.589406 0
M  V30 44 H -1.347914 2.586236 4.074454 0
M  V30 45 H -2.609294 0.654224 4.929010 0
M  V30 46 H -3.532256 -1.100305 3.375478 0
M  V30 47 H -1.878781 1.104281 0.119840 0
M  V30 48 H -3.678516 -0.328418 -0.791173 0
M  V30 49 H -4.913794 -2.334149 -1.916061 0
M  V30 50 H -4.958837 -3.008814 -0.293294 0
M  V30 51 H -4.524117 -5.166292 -1.289160 0
M  V30 52 H -0.654462 -6.097969 -2.358237 0
M  V30 53 H -1.698970 -1.941545 -1.599875 0
M  V30 54 H 2.987556 -4.836732 -4.243160 0
M  V30 55 H 4.145881 -1.235682 -1.232762 0
M  V30 END ATOM
M  V30 BEGIN BOND
M  V30 1 1 1 2
M  V30 2 1 2 3
M  V30 3 2 3 4
M  V30 4 1 4 5
M  V30 5 2 5 6
M  V30 6 1 6 7
M  V30 7 2 7 8
M  V30 8 1 8 9
M  V30 9 1 9 10
M  V30 10 2 10 11
M  V30 11 2 10 12
M  V30 12 1 10 13
M  V30 13 2 13 14
M  V30 14 1 14 15
M  V30 15 2 15 16
M  V30 16 1 16 17
M  V30 17 2 17 18
M  V30 18 1 17 19
M  V30 19 2 19 20
M  V30 20 1 19 21
M  V30 21 1 21 22
M  V30 22 1 22 23
M  V30 23 1 23 24
M  V30 24 2 24 25
M  V30 25 1 25 26
M  V30 26 2 26 27
M  V30 27 1 27 28
M  V30 28 1 27 29
M  V30 29 1 29 30
M  V30 30 2 30 31
M  V30 31 1 31 32
M  V30 32 2 32 33
M  V30 33 1 33 34
M  V30 34 2 34 35
M  V30 35 1 35 36
M  V30 36 1 36 37
M  V30 37 1 8 3
M  V30 38 1 18 13
M  V30 39 2 28 23
M  V30 40 2 37 29
M  V30 41 1 35 6
M  V30 42 1 37 33
M  V30 43 1 1 38
M  V30 44 1 1 39
M  V30 45 1 1 40
M  V30 46 1 5 41
M  V30 47 1 7 42
M  V30 48 1 9 43
M  V30 49 1 14 44
M  V30 50 1 15 45
M  V30 51 1 16 46
M  V30 52 1 18 47
M  V30 53 1 21 48
M  V30 54 1 22 49
M  V30 55 1 22 50
M  V30 56 1 24 51
M  V30 57 1 26 52
M  V30 58 1 28 53
M  V30 59 1 31 54
M  V30 60 1 34 55
M  V30 END BOND
M  V30 END CTAB
M  END
>  <Dataset>  (79) 
ChEMBL_Kinases

>  <Ligand_Instance>  (79) 
nan

>  <PDB_ID>  (79) 
nan

>  <Standardized_SMILES>  (79) 
COc1ncc2cc1NS(=O)(=O)c1cccc(c1)C(=O)NCc1cncc(c1)-c1ncnc3cc-2sc13

>  <Name>  (79) 
nan

>  <Pocket>  (79) 
nan

>  <ATP_Site>  (79) 
nan

>  <Peripheral>  (79) 
nan

>  <Num_H_Atoms_ProtBoundConf>  (79) 
nan

>  <Num_Resolved_Atoms>  (79) 
nan

>  <Num_Not_Resolved_Atoms>  (79) 
nan

$$$$
CHEMBL4851452
     RDKit          3D

  0  0  0  0  0  0  0  0  0  0999 V3000
M  V30 BEGIN CTAB
M  V30 COUNTS 51 54 0 0 0
M  V30 BEGIN ATOM
M  V30 1 C 1.664888 0.014934 3.713139 0
M  V30 2 O 3.034339 -0.204748 3.611254 0
M  V30 3 C 3.656520 -1.116967 2.822280 0
M  V30 4 O 2.660683 -1.639479 2.267969 0
M  V30 5 C 4.690809 -1.918196 2.166435 0
M  V30 6 C 4.303452 -2.473359 0.851372 0
M  V30 7 C 4.078732 -1.533110 -0.281077 0
M  V30 8 C 3.043597 -0.506455 -0.169223 0
M  V30 9 C 3.221560 0.790557 0.333950 0
M  V30 10 C 2.215684 1.718771 0.387633 0
M  V30 11 C 0.952107 1.418479 -0.059179 0
M  V30 12 N -0.205427 2.244693 -0.085952 0
M  V30 13 C -0.407025 3.495773 -0.523676 0
M  V30 14 N -1.688586 3.861054 -0.349280 0
M  V30 15 C -2.341170 2.828056 0.214865 0
M  V30 16 C -3.656478 2.644308 0.608506 0
M  V30 17 N -4.024850 1.469232 1.154938 0
M  V30 18 C -3.151465 0.488905 1.322071 0
M  V30 19 N -3.267365 -0.836580 1.851565 0
M  V30 20 C -3.428392 -1.868272 0.885321 0
M  V30 21 C -3.468989 -1.564241 -0.446064 0
M  V30 22 C -3.614861 -2.577462 -1.388341 0
M  V30 23 F -3.660902 -2.333003 -2.719981 0
M  V30 24 C -3.713932 -3.867340 -0.928807 0
M  V30 25 O -3.857936 -4.877903 -1.852423 0
M  V30 26 C -3.676526 -4.194570 0.393749 0
M  V30 27 F -3.773008 -5.463499 0.849735 0
M  V30 28 C -3.531309 -3.178915 1.319439 0
M  V30 29 N -1.865894 0.684635 0.931237 0
M  V30 30 C -1.410713 1.812337 0.381157 0
M  V30 31 C 0.743848 0.144295 -0.562289 0
M  V30 32 C 1.748538 -0.795189 -0.620163 0
M  V30 33 H 1.375898 0.083108 4.792732 0
M  V30 34 H 1.456806 0.990481 3.202102 0
M  V30 35 H 1.008549 -0.732842 3.247370 0
M  V30 36 H 5.590626 -1.251662 2.065954 0
M  V30 37 H 5.028655 -2.775628 2.804968 0
M  V30 38 H 3.302360 -3.012129 0.982929 0
M  V30 39 H 4.966881 -3.314244 0.522340 0
M  V30 40 H 5.049054 -1.067173 -0.626319 0
M  V30 41 H 3.807916 -2.190697 -1.181155 0
M  V30 42 H 4.203454 1.032090 0.683847 0
M  V30 43 H 2.332718 2.713571 0.768973 0
M  V30 44 H 0.437798 4.014687 -0.934767 0
M  V30 45 H -4.403572 3.393561 0.500254 0
M  V30 46 H -3.238190 -1.039626 2.874651 0
M  V30 47 H -3.390230 -0.535800 -0.803198 0
M  V30 48 H -4.387589 -4.753432 -2.686244 0
M  V30 49 H -3.493664 -3.362409 2.393271 0
M  V30 50 H -0.230520 -0.194389 -0.943495 0
M  V30 51 H 1.560823 -1.790918 -1.019713 0
M  V30 END ATOM
M  V30 BEGIN BOND
M  V30 1 1 1 2
M  V30 2 1 2 3
M  V30 3 2 3 4
M  V30 4 1 3 5
M  V30 5 1 5 6
M  V30 6 1 6 7
M  V30 7 1 7 8
M  V30 8 2 8 9
M  V30 9 1 9 10
M  V30 10 2 10 11
M  V30 11 1 11 12
M  V30 12 1 12 13
M  V30 13 2 13 14
M  V30 14 1 14 15
M  V30 15 2 15 16
M  V30 16 1 16 17
M  V30 17 2 17 18
M  V30 18 1 18 19
M  V30 19 1 19 20
M  V30 20 2 20 21
M  V30 21 1 21 22
M  V30 22 1 22 23
M  V30 23 2 22 24
M  V30 24 1 24 25
M  V30 25 1 24 26
M  V30 26 1 26 27
M  V30 27 2 26 28
M  V30 28 1 18 29
M  V30 29 2 29 30
M  V30 30 1 11 31
M  V30 31 2 31 32
M  V30 32 1 32 8
M  V30 33 1 30 12
M  V30 34 1 30 15
M  V30 35 1 28 20
M  V30 36 1 1 33
M  V30 37 1 1 34
M  V30 38 1 1 35
M  V30 39 1 5 36
M  V30 40 1 5 37
M  V30 41 1 6 38
M  V30 42 1 6 39
M  V30 43 1 7 40
M  V30 44 1 7 41
M  V30 45 1 9 42
M  V30 46 1 10 43
M  V30 47 1 13 44
M  V30 48 1 16 45
M  V30 49 1 19 46
M  V30 50 1 21 47
M  V30 51 1 25 48
M  V30 52 1 28 49
M  V30 53 1 31 50
M  V30 54 1 32 51
M  V30 END BOND
M  V30 END CTAB
M  END
>  <Dataset>  (80) 
ChEMBL_Kinases

>  <Ligand_Instance>  (80) 
nan

>  <PDB_ID>  (80) 
nan

>  <Standardized_SMILES>  (80) 
COC(=O)CCCc1ccc(-n2cnc3cnc(Nc4cc(F)c(O)c(F)c4)nc32)cc1

>  <Name>  (80) 
nan

>  <Pocket>  (80) 
nan

>  <ATP_Site>  (80) 
nan

>  <Peripheral>  (80) 
nan

>  <Num_H_Atoms_ProtBoundConf>  (80) 
nan

>  <Num_Resolved_Atoms>  (80) 
nan

>  <Num_Not_Resolved_Atoms>  (80) 
nan

$$$$
CHEMBL4085521
     RDKit          3D

  0  0  0  0  0  0  0  0  0  0999 V3000
M  V30 BEGIN CTAB
M  V30 COUNTS 66 67 0 0 0
M  V30 BEGIN ATOM
M  V30 1 C 5.300612 -4.578642 1.511797 0
M  V30 2 C 5.179181 -5.169955 0.140676 0
M  V30 3 C 6.062174 -4.512593 -0.876078 0
M  V30 4 C 5.787674 -3.053712 -1.059356 0
M  V30 5 C 4.351996 -2.766767 -1.519432 0
M  V30 6 C 4.065932 -3.423913 -2.825470 0
M  V30 7 C 2.703615 -3.278652 -3.348018 0
M  V30 8 C 2.091840 -2.006722 -3.714387 0
M  V30 9 C 1.878008 -0.921726 -2.736575 0
M  V30 10 C 1.126732 0.242446 -3.462974 0
M  V30 11 C 0.915771 1.347590 -2.450309 0
M  V30 12 C 0.105749 0.849083 -1.308590 0
M  V30 13 O -0.478052 -0.161483 -0.851239 0
M  V30 14 N -0.118939 1.881180 -0.335157 0
M  V30 15 N -0.860217 1.621260 0.822191 0
M  V30 16 C -2.267060 1.798156 0.852484 0
M  V30 17 O -2.631498 2.203582 -0.305984 0
M  V30 18 C -3.196424 1.582997 1.947720 0
M  V30 19 C -2.969444 1.176274 3.241890 0
M  V30 20 O -1.644293 0.936568 3.557680 0
M  V30 21 C -3.963930 1.012654 4.170380 0
M  V30 22 C -3.578065 0.600239 5.425804 0
M  V30 23 C -4.529795 0.419243 6.398974 0
M  V30 24 Br -4.045257 -0.147662 8.140630 0
M  V30 25 C -5.863780 0.667080 6.059564 0
M  V30 26 C -6.203007 1.078218 4.790957 0
M  V30 27 C -5.268350 1.267601 3.795576 0
M  V30 28 N -5.511259 1.665791 2.536166 0
M  V30 29 C -6.868057 1.911951 2.197447 0
M  V30 30 C -7.190028 3.363581 2.486532 0
M  V30 31 C -4.521165 1.820760 1.639075 0
M  V30 32 O -4.885378 2.201511 0.484931 0
M  V30 33 H 6.062894 -3.780937 1.584100 0
M  V30 34 H 5.526513 -5.333371 2.297854 0
M  V30 35 H 4.294053 -4.173278 1.793531 0
M  V30 36 H 4.121863 -5.254986 -0.222521 0
M  V30 37 H 5.518458 -6.229894 0.214416 0
M  V30 38 H 7.108818 -4.588127 -0.459066 0
M  V30 39 H 6.074985 -5.107016 -1.796769 0
M  V30 40 H 6.459166 -2.678636 -1.858346 0
M  V30 41 H 6.010668 -2.494320 -0.143519 0
M  V30 42 H 4.357959 -1.667647 -1.661637 0
M  V30 43 H 3.601241 -3.009425 -0.771315 0
M  V30 44 H 4.759614 -3.002169 -3.636798 0
M  V30 45 H 4.386391 -4.510214 -2.754974 0
M  V30 46 H 2.666729 -3.922599 -4.310638 0
M  V30 47 H 2.029746 -3.894156 -2.653178 0
M  V30 48 H 1.080368 -2.238277 -4.200689 0
M  V30 49 H 2.666639 -1.601161 -4.605282 0
M  V30 50 H 2.827262 -0.389600 -2.449684 0
M  V30 51 H 1.289884 -1.265272 -1.890118 0
M  V30 52 H 1.738697 0.553963 -4.310985 0
M  V30 53 H 0.146277 -0.179451 -3.757823 0
M  V30 54 H 1.908075 1.714911 -2.108924 0
M  V30 55 H 0.355551 2.158077 -2.937573 0
M  V30 56 H 0.173805 2.903665 -0.277115 0
M  V30 57 H -0.407683 1.289412 1.700202 0
M  V30 58 H -1.302960 -0.018521 3.540990 0
M  V30 59 H -2.525292 0.413875 5.662772 0
M  V30 60 H -6.622825 0.528327 6.816683 0
M  V30 61 H -7.230695 1.264838 4.546127 0
M  V30 62 H -6.938871 1.844183 1.068918 0
M  V30 63 H -7.656364 1.291478 2.561463 0
M  V30 64 H -6.723316 3.996030 1.703092 0
M  V30 65 H -8.301181 3.498871 2.333170 0
M  V30 66 H -6.874971 3.681189 3.493969 0
M  V30 END ATOM
M  V30 BEGIN BOND
M  V30 1 1 1 2
M  V30 2 1 2 3
M  V30 3 1 3 4
M  V30 4 1 4 5
M  V30 5 1 5 6
M  V30 6 1 6 7
M  V30 7 1 7 8
M  V30 8 1 8 9
M  V30 9 1 9 10
M  V30 10 1 10 11
M  V30 11 1 11 12
M  V30 12 2 12 13
M  V30 13 1 12 14
M  V30 14 1 14 15
M  V30 15 1 15 16
M  V30 16 2 16 17
M  V30 17 1 16 18
M  V30 18 2 18 19
M  V30 19 1 19 20
M  V30 20 1 19 21
M  V30 21 2 21 22
M  V30 22 1 22 23
M  V30 23 1 23 24
M  V30 24 2 23 25
M  V30 25 1 25 26
M  V30 26 2 26 27
M  V30 27 1 27 28
M  V30 28 1 28 29
M  V30 29 1 29 30
M  V30 30 1 28 31
M  V30 31 2 31 32
M  V30 32 1 31 18
M  V30 33 1 27 21
M  V30 34 1 1 33
M  V30 35 1 1 34
M  V30 36 1 1 35
M  V30 37 1 2 36
M  V30 38 1 2 37
M  V30 39 1 3 38
M  V30 40 1 3 39
M  V30 41 1 4 40
M  V30 42 1 4 41
M  V30 43 1 5 42
M  V30 44 1 5 43
M  V30 45 1 6 44
M  V30 46 1 6 45
M  V30 47 1 7 46
M  V30 48 1 7 47
M  V30 49 1 8 48
M  V30 50 1 8 49
M  V30 51 1 9 50
M  V30 52 1 9 51
M  V30 53 1 10 52
M  V30 54 1 10 53
M  V30 55 1 11 54
M  V30 56 1 11 55
M  V30 57 1 14 56
M  V30 58 1 15 57
M  V30 59 1 20 58
M  V30 60 1 22 59
M  V30 61 1 25 60
M  V30 62 1 26 61
M  V30 63 1 29 62
M  V30 64 1 29 63
M  V30 65 1 30 64
M  V30 66 1 30 65
M  V30 67 1 30 66
M  V30 END BOND
M  V30 END CTAB
M  END
>  <Dataset>  (81) 
ChEMBL_Kinases

>  <Ligand_Instance>  (81) 
nan

>  <PDB_ID>  (81) 
nan

>  <Standardized_SMILES>  (81) 
CCCCCCCCCCCC(=O)NNC(=O)c1c(O)c2cc(Br)ccc2n(CC)c1=O

>  <Name>  (81) 
nan

>  <Pocket>  (81) 
nan

>  <ATP_Site>  (81) 
nan

>  <Peripheral>  (81) 
nan

>  <Num_H_Atoms_ProtBoundConf>  (81) 
nan

>  <Num_Resolved_Atoms>  (81) 
nan

>  <Num_Not_Resolved_Atoms>  (81) 
nan

$$$$
CHEMBL4085496
     RDKit          3D

  0  0  0  0  0  0  0  0  0  0999 V3000
M  V30 BEGIN CTAB
M  V30 COUNTS 61 65 0 0 0
M  V30 BEGIN ATOM
M  V30 1 C 3.907340 5.926521 5.330369 0
M  V30 2 C 3.138910 4.812366 4.678998 0
M  V30 3 N 3.640487 3.634742 4.311694 0
M  V30 4 N 2.704375 2.849522 3.756331 0
M  V30 5 C 2.846040 1.531344 3.242242 0
M  V30 6 C 3.227685 1.507622 1.892968 0
M  V30 7 C 3.424076 0.334041 1.192635 0
M  V30 8 C 3.238176 -0.883051 1.843803 0
M  V30 9 C 2.868788 -0.826531 3.150125 0
M  V30 10 C 2.662874 0.323195 3.883964 0
M  V30 11 C 1.553438 3.536480 3.760850 0
M  V30 12 O 0.285550 3.254580 3.333891 0
M  V30 13 C -0.144729 2.077563 2.739971 0
M  V30 14 C -0.636981 0.995098 3.480748 0
M  V30 15 C -1.061514 -0.175477 2.848009 0
M  V30 16 C -0.985212 -0.242564 1.472376 0
M  V30 17 C -1.426791 -1.467157 0.809859 0
M  V30 18 N -1.422560 -1.710174 -0.521815 0
M  V30 19 C -1.903772 -2.954969 -0.754407 0
M  V30 20 C -2.062824 -3.582708 -1.973594 0
M  V30 21 C -2.574683 -4.863681 -1.997403 0
M  V30 22 C -2.813245 -5.682234 -3.186810 0
M  V30 23 O -3.285304 -6.839434 -3.164294 0
M  V30 24 N -2.496047 -5.149357 -4.457366 0
M  V30 25 C -2.619442 -5.707966 -5.786850 0
M  V30 26 C -1.258696 -5.761066 -6.452409 0
M  V30 27 C -3.510208 -4.826159 -6.637360 0
M  V30 28 C -2.910497 -5.470665 -0.781030 0
M  V30 29 C -2.729455 -4.793671 0.406670 0
M  V30 30 C -2.220520 -3.513160 0.465883 0
M  V30 31 N -1.916624 -2.579250 1.389199 0
M  V30 32 C -0.507006 0.800567 0.705074 0
M  V30 33 C -0.090530 1.956059 1.364129 0
M  V30 34 C 1.784096 4.771707 4.331029 0
M  V30 35 N 0.960098 5.914628 4.604793 0 CHG=1 VAL=4
M  V30 36 O 0.497456 6.755509 3.810578 0
M  V30 37 O 0.451094 6.410422 5.781223 0 CHG=-1 VAL=1
M  V30 38 H 3.509632 6.881162 4.915889 0
M  V30 39 H 4.978323 5.786657 5.058744 0
M  V30 40 H 3.768349 5.826544 6.413758 0
M  V30 41 H 3.396293 2.403616 1.301858 0
M  V30 42 H 3.715650 0.312694 0.161285 0
M  V30 43 H 3.384835 -1.817702 1.320120 0
M  V30 44 H 2.710587 -1.755631 3.705198 0
M  V30 45 H 2.375906 0.417963 4.899252 0
M  V30 46 H -0.680521 1.085625 4.549857 0
M  V30 47 H -1.439517 -1.004746 3.428271 0
M  V30 48 H -1.818934 -3.152169 -2.911628 0
M  V30 49 H -2.096057 -4.202344 -4.633680 0
M  V30 50 H -3.031669 -6.719637 -5.795982 0
M  V30 51 H -1.115335 -4.781971 -6.988540 0
M  V30 52 H -1.114783 -6.624636 -7.114031 0
M  V30 53 H -0.435538 -5.802126 -5.694862 0
M  V30 54 H -4.521863 -5.260353 -6.647148 0
M  V30 55 H -3.114574 -4.798763 -7.672673 0
M  V30 56 H -3.563595 -3.809468 -6.163934 0
M  V30 57 H -3.322157 -6.483397 -0.700920 0
M  V30 58 H -2.985571 -5.250888 1.366811 0
M  V30 59 H -2.059434 -2.742610 2.408170 0
M  V30 60 H -0.465379 0.702418 -0.373792 0
M  V30 61 H 0.283692 2.766453 0.729330 0
M  V30 END ATOM
M  V30 BEGIN BOND
M  V30 1 1 1 2
M  V30 2 2 2 3
M  V30 3 1 3 4
M  V30 4 1 4 5
M  V30 5 2 5 6
M  V30 6 1 6 7
M  V30 7 2 7 8
M  V30 8 1 8 9
M  V30 9 2 9 10
M  V30 10 1 4 11
M  V30 11 1 11 12
M  V30 12 1 12 13
M  V30 13 2 13 14
M  V30 14 1 14 15
M  V30 15 2 15 16
M  V30 16 1 16 17
M  V30 17 2 17 18
M  V30 18 1 18 19
M  V30 19 2 19 20
M  V30 20 1 20 21
M  V30 21 1 21 22
M  V30 22 2 22 23
M  V30 23 1 22 24
M  V30 24 1 24 25
M  V30 25 1 25 26
M  V30 26 1 25 27
M  V30 27 2 21 28
M  V30 28 1 28 29
M  V30 29 2 29 30
M  V30 30 1 30 31
M  V30 31 1 16 32
M  V30 32 2 32 33
M  V30 33 2 11 34
M  V30 34 1 34 35
M  V30 35 2 35 36
M  V30 36 1 35 37
M  V30 37 1 34 2
M  V30 38 1 10 5
M  V30 39 1 33 13
M  V30 40 1 31 17
M  V30 41 1 30 19
M  V30 42 1 1 38
M  V30 43 1 1 39
M  V30 44 1 1 40
M  V30 45 1 6 41
M  V30 46 1 7 42
M  V30 47 1 8 43
M  V30 48 1 9 44
M  V30 49 1 10 45
M  V30 50 1 14 46
M  V30 51 1 15 47
M  V30 52 1 20 48
M  V30 53 1 24 49
M  V30 54 1 25 50
M  V30 55 1 26 51
M  V30 56 1 26 52
M  V30 57 1 26 53
M  V30 58 1 27 54
M  V30 59 1 27 55
M  V30 60 1 27 56
M  V30 61 1 28 57
M  V30 62 1 29 58
M  V30 63 1 31 59
M  V30 64 1 32 60
M  V30 65 1 33 61
M  V30 END BOND
M  V30 END CTAB
M  END
>  <Dataset>  (82) 
ChEMBL_Kinases

>  <Ligand_Instance>  (82) 
nan

>  <PDB_ID>  (82) 
nan

>  <Standardized_SMILES>  (82) 
Cc1nn(-c2ccccc2)c(Oc2ccc(-c3nc4cc(C(=O)NC(C)C)ccc4[nH]3)cc2)c1[N+](=O)[O-]

>  <Name>  (82) 
nan

>  <Pocket>  (82) 
nan

>  <ATP_Site>  (82) 
nan

>  <Peripheral>  (82) 
nan

>  <Num_H_Atoms_ProtBoundConf>  (82) 
nan

>  <Num_Resolved_Atoms>  (82) 
nan

>  <Num_Not_Resolved_Atoms>  (82) 
nan

$$$$
CHEMBL4851465
     RDKit          3D

  0  0  0  0  0  0  0  0  0  0999 V3000
M  V30 BEGIN CTAB
M  V30 COUNTS 51 54 0 0 0
M  V30 BEGIN ATOM
M  V30 1 C 2.227421 -4.242620 -2.300460 0
M  V30 2 N 1.786996 -4.611900 -0.967135 0
M  V30 3 C 0.974326 -3.504760 -0.471670 0
M  V30 4 C 0.538250 -3.892652 0.940857 0
M  V30 5 N 1.737337 -3.885952 1.737156 0
M  V30 6 C 2.112462 -3.029146 2.805450 0
M  V30 7 O 3.214612 -3.168692 3.399304 0
M  V30 8 C 1.096584 -2.008419 3.112141 0
M  V30 9 C 1.134637 -0.772012 2.471030 0
M  V30 10 C 0.191440 0.186761 2.750941 0
M  V30 11 C 0.374190 1.450121 1.982445 0
M  V30 12 N -0.267996 1.554454 0.743629 0
M  V30 13 C -0.916293 1.659692 -0.507130 0
M  V30 14 N -0.851375 0.936984 -1.610281 0
M  V30 15 C -1.551516 1.191821 -2.717658 0
M  V30 16 N -2.364020 2.247816 -2.691395 0
M  V30 17 C -2.523581 3.060189 -1.643128 0
M  V30 18 C -3.401968 4.111901 -1.771591 0
M  V30 19 C -3.560097 4.945385 -0.684977 0
M  V30 20 C -2.848772 4.705130 0.472844 0
M  V30 21 C -3.017989 5.576576 1.600732 0
M  V30 22 N -3.167961 6.281918 2.531846 0
M  V30 23 C -1.995422 3.629632 0.504717 0
M  V30 24 C -1.768668 2.745190 -0.518162 0
M  V30 25 C -0.787909 -0.104793 3.677161 0
M  V30 26 C -0.833705 -1.313426 4.310732 0
M  V30 27 C 0.110777 -2.303578 4.045430 0
M  V30 28 Cl 0.079364 -3.867757 4.843947 0
M  V30 29 C 2.659145 -4.952908 1.319070 0
M  V30 30 C 2.960885 -4.697493 -0.133238 0
M  V30 31 H 2.491564 -5.128661 -2.907776 0
M  V30 32 H 1.410208 -3.712379 -2.822224 0
M  V30 33 H 3.068494 -3.516362 -2.257416 0
M  V30 34 H 0.089266 -3.318684 -1.085074 0
M  V30 35 H 1.582172 -2.565407 -0.421480 0
M  V30 36 H -0.237825 -3.202587 1.317696 0
M  V30 37 H 0.146356 -4.929691 0.864916 0
M  V30 38 H 1.931724 -0.646589 1.772869 0
M  V30 39 H 1.460475 1.740946 1.917595 0
M  V30 40 H -0.001452 2.238556 2.732850 0
M  V30 41 H 0.300257 0.675151 0.491307 0
M  V30 42 H -1.382483 0.506218 -3.526510 0
M  V30 43 H -3.941452 4.269523 -2.692830 0
M  V30 44 H -4.244014 5.778620 -0.760137 0
M  V30 45 H -1.472245 3.500161 1.436103 0
M  V30 46 H -1.497558 0.699089 3.846680 0
M  V30 47 H -1.617840 -1.501117 5.029592 0
M  V30 48 H 3.612225 -4.916771 1.859714 0
M  V30 49 H 2.112456 -5.905975 1.406653 0
M  V30 50 H 3.677300 -5.451351 -0.544002 0
M  V30 51 H 3.418924 -3.666859 -0.166476 0
M  V30 END ATOM
M  V30 BEGIN BOND
M  V30 1 1 1 2
M  V30 2 1 2 3
M  V30 3 1 3 4
M  V30 4 1 4 5
M  V30 5 1 5 6
M  V30 6 2 6 7
M  V30 7 1 6 8
M  V30 8 2 8 9
M  V30 9 1 9 10
M  V30 10 1 10 11
M  V30 11 1 11 12
M  V30 12 1 12 13
M  V30 13 2 13 14
M  V30 14 1 14 15
M  V30 15 2 15 16
M  V30 16 1 16 17
M  V30 17 2 17 18
M  V30 18 1 18 19
M  V30 19 2 19 20
M  V30 20 1 20 21
M  V30 21 3 21 22
M  V30 22 1 20 23
M  V30 23 2 23 24
M  V30 24 2 10 25
M  V30 25 1 25 26
M  V30 26 2 26 27
M  V30 27 1 27 28
M  V30 28 1 5 29
M  V30 29 1 29 30
M  V30 30 1 30 2
M  V30 31 1 27 8
M  V30 32 1 24 13
M  V30 33 1 24 17
M  V30 34 1 1 31
M  V30 35 1 1 32
M  V30 36 1 1 33
M  V30 37 1 3 34
M  V30 38 1 3 35
M  V30 39 1 4 36
M  V30 40 1 4 37
M  V30 41 1 9 38
M  V30 42 1 11 39
M  V30 43 1 11 40
M  V30 44 1 12 41
M  V30 45 1 15 42
M  V30 46 1 18 43
M  V30 47 1 19 44
M  V30 48 1 23 45
M  V30 49 1 25 46
M  V30 50 1 26 47
M  V30 51 1 29 48
M  V30 52 1 29 49
M  V30 53 1 30 50
M  V30 54 1 30 51
M  V30 END BOND
M  V30 END CTAB
M  END
>  <Dataset>  (83) 
ChEMBL_Kinases

>  <Ligand_Instance>  (83) 
nan

>  <PDB_ID>  (83) 
nan

>  <Standardized_SMILES>  (83) 
CN1CCN(C(=O)c2cc(CNc3ncnc4ccc(C#N)cc34)ccc2Cl)CC1

>  <Name>  (83) 
nan

>  <Pocket>  (83) 
nan

>  <ATP_Site>  (83) 
nan

>  <Peripheral>  (83) 
nan

>  <Num_H_Atoms_ProtBoundConf>  (83) 
nan

>  <Num_Resolved_Atoms>  (83) 
nan

>  <Num_Not_Resolved_Atoms>  (83) 
nan

$$$$
CHEMBL4085333
     RDKit          3D

  0  0  0  0  0  0  0  0  0  0999 V3000
M  V30 BEGIN CTAB
M  V30 COUNTS 48 51 0 0 0
M  V30 BEGIN ATOM
M  V30 1 C -2.236238 0.849063 -0.820927 0
M  V30 2 C -0.747503 1.035118 -0.816444 0
M  V30 3 C -0.166691 1.946920 -1.671304 0
M  V30 4 N 1.157127 2.128110 -1.686352 0
M  V30 5 C 1.983873 1.440752 -0.879224 0
M  V30 6 C 3.415918 1.679110 -0.936952 0
M  V30 7 C 4.378204 1.054490 -0.177576 0
M  V30 8 C 5.719148 1.312927 -0.267135 0
M  V30 9 F 6.622910 0.676032 0.497167 0
M  V30 10 C 6.180179 2.244748 -1.155014 0
M  V30 11 C 5.250204 2.896426 -1.937736 0
M  V30 12 C 3.905724 2.612756 -1.822977 0
M  V30 13 F 3.024915 3.282224 -2.617440 0
M  V30 14 C 1.347020 0.551403 -0.053931 0
M  V30 15 C 0.010491 0.260190 0.070181 0
M  V30 16 N -0.512185 -0.712240 0.935913 0
M  V30 17 C -0.120832 -1.721237 1.803087 0
M  V30 18 C 1.151534 -2.215781 1.958826 0
M  V30 19 C 1.600986 -3.168800 2.839108 0
M  V30 20 N 0.638429 -3.654565 3.631752 0
M  V30 21 C -0.626966 -3.235263 3.553004 0
M  V30 22 C -1.658801 -3.671732 4.333896 0
M  V30 23 N -2.712198 -2.976626 3.915422 0
M  V30 24 N -2.378384 -2.134758 2.915493 0
M  V30 25 C -3.313834 -1.276328 2.269620 0
M  V30 26 C -4.054094 -1.922679 1.108424 0
M  V30 27 C -4.848790 -3.135513 1.650985 0
M  V30 28 O -3.251608 -2.375249 0.085972 0
M  V30 29 C -1.044904 -2.277556 2.659077 0
M  V30 30 H -2.648838 1.645297 -1.468250 0
M  V30 31 H -2.531596 -0.097047 -1.273552 0
M  V30 32 H -2.670300 1.045085 0.179503 0
M  V30 33 H -0.832568 2.497024 -2.318060 0
M  V30 34 H 4.071746 0.318355 0.531191 0
M  V30 35 H 7.238888 2.451995 -1.228979 0
M  V30 36 H 5.575561 3.650629 -2.662548 0
M  V30 37 H 2.070164 0.076518 0.563918 0
M  V30 38 H -1.514546 -0.591148 0.831714 0
M  V30 39 H 1.979335 -1.904893 1.351418 0
M  V30 40 H 2.608316 -3.537782 2.939500 0
M  V30 41 H -1.672512 -4.407896 5.122847 0
M  V30 42 H -3.070917 -0.228648 2.162008 0
M  V30 43 H -4.180078 -1.191168 3.051528 0
M  V30 44 H -4.813972 -1.245623 0.682875 0
M  V30 45 H -4.254381 -4.039431 1.434047 0
M  V30 46 H -5.071993 -3.022845 2.726266 0
M  V30 47 H -5.815579 -3.244454 1.123085 0
M  V30 48 H -2.436339 -2.833123 0.361300 0
M  V30 END ATOM
M  V30 BEGIN BOND
M  V30 1 1 1 2
M  V30 2 2 2 3
M  V30 3 1 3 4
M  V30 4 2 4 5
M  V30 5 1 5 6
M  V30 6 2 6 7
M  V30 7 1 7 8
M  V30 8 1 8 9
M  V30 9 2 8 10
M  V30 10 1 10 11
M  V30 11 2 11 12
M  V30 12 1 12 13
M  V30 13 1 5 14
M  V30 14 2 14 15
M  V30 15 1 15 16
M  V30 16 1 16 17
M  V30 17 2 17 18
M  V30 18 1 18 19
M  V30 19 2 19 20
M  V30 20 1 20 21
M  V30 21 1 21 22
M  V30 22 2 22 23
M  V30 23 1 23 24
M  V30 24 1 24 25
M  V30 25 1 25 26
M  V30 26 1 26 27
M  V30 27 1 26 28
M  V30 28 1 24 29
M  V30 29 1 15 2
M  V30 30 1 29 17
M  V30 31 1 12 6
M  V30 32 2 29 21
M  V30 33 1 1 30
M  V30 34 1 1 31
M  V30 35 1 1 32
M  V30 36 1 3 33
M  V30 37 1 7 34
M  V30 38 1 10 35
M  V30 39 1 11 36
M  V30 40 1 14 37
M  V30 41 1 16 38
M  V30 42 1 18 39
M  V30 43 1 19 40
M  V30 44 1 22 41
M  V30 45 1 25 42
M  V30 46 1 25 43
M  V30 47 1 26 44
M  V30 48 1 27 45
M  V30 49 1 27 46
M  V30 50 1 27 47
M  V30 51 1 28 48
M  V30 END BOND
M  V30 END CTAB
M  END
>  <Dataset>  (84) 
ChEMBL_Kinases

>  <Ligand_Instance>  (84) 
nan

>  <PDB_ID>  (84) 
nan

>  <Standardized_SMILES>  (84) 
Cc1cnc(-c2cc(F)ccc2F)cc1Nc1ccnc2cnn(CC(C)O)c12

>  <Name>  (84) 
nan

>  <Pocket>  (84) 
nan

>  <ATP_Site>  (84) 
nan

>  <Peripheral>  (84) 
nan

>  <Num_H_Atoms_ProtBoundConf>  (84) 
nan

>  <Num_Resolved_Atoms>  (84) 
nan

>  <Num_Not_Resolved_Atoms>  (84) 
nan

$$$$
CHEMBL4851209
     RDKit          3D

  0  0  0  0  0  0  0  0  0  0999 V3000
M  V30 BEGIN CTAB
M  V30 COUNTS 42 45 0 0 0
M  V30 BEGIN ATOM
M  V30 1 C -0.260368 -4.733317 1.373704 0
M  V30 2 N 0.827169 -3.916620 0.908300 0
M  V30 3 C 2.106504 -4.265194 1.450294 0
M  V30 4 C 0.779500 -3.805399 -0.517228 0
M  V30 5 C -0.551360 -3.165412 -0.888153 0
M  V30 6 C -0.385744 -1.797289 -0.260283 0
M  V30 7 N 1.033403 -1.535990 -0.401351 0
M  V30 8 C 1.735346 -0.346605 -0.061946 0
M  V30 9 N 3.074569 -0.160523 -0.218437 0
M  V30 10 C 3.663210 0.999631 0.129023 0
M  V30 11 C 2.925826 2.058594 0.663491 0
M  V30 12 C 1.580359 1.858912 0.815792 0
M  V30 13 C 0.731007 2.910990 1.366666 0
M  V30 14 C 1.101340 4.178744 1.792926 0
M  V30 15 N -0.014105 4.825539 2.232693 0
M  V30 16 N -1.059730 4.004029 2.093777 0
M  V30 17 N -2.328562 4.289315 2.420134 0
M  V30 18 C -3.259811 3.316709 2.203389 0
M  V30 19 C -2.872150 2.102782 1.668729 0
M  V30 20 C -1.542842 1.823539 1.334401 0
M  V30 21 C -0.631271 2.840714 1.571701 0
M  V30 22 N 1.047717 0.677527 0.450592 0
M  V30 23 C 1.710595 -2.668034 -0.953710 0
M  V30 24 H 0.022343 -5.365862 2.245597 0
M  V30 25 H -1.074086 -4.066232 1.724999 0
M  V30 26 H -0.650864 -5.355114 0.535952 0
M  V30 27 H 2.621371 -5.058697 0.891845 0
M  V30 28 H 2.734224 -3.336252 1.561040 0
M  V30 29 H 1.932777 -4.602263 2.511595 0
M  V30 30 H 0.976138 -4.743056 -1.050300 0
M  V30 31 H -0.611359 -2.979545 -1.993999 0
M  V30 32 H -1.414236 -3.717173 -0.501733 0
M  V30 33 H -0.631872 -1.884381 0.828460 0
M  V30 34 H -1.002834 -1.022851 -0.753196 0
M  V30 35 H 4.749498 1.077143 -0.026258 0
M  V30 36 H 3.420947 2.973789 0.932352 0
M  V30 37 H 2.090204 4.589148 1.782829 0
M  V30 38 H -4.300006 3.487052 2.446415 0
M  V30 39 H -3.612121 1.311945 1.489560 0
M  V30 40 H -1.278526 0.862667 0.918440 0
M  V30 41 H 2.735605 -2.801981 -0.610154 0
M  V30 42 H 1.747088 -2.653524 -2.076235 0
M  V30 END ATOM
M  V30 BEGIN BOND
M  V30 1 1 1 2
M  V30 2 1 2 3
M  V30 3 1 2 4
M  V30 4 1 4 5
M  V30 5 1 5 6
M  V30 6 1 6 7
M  V30 7 1 7 8
M  V30 8 2 8 9
M  V30 9 1 9 10
M  V30 10 2 10 11
M  V30 11 1 11 12
M  V30 12 1 12 13
M  V30 13 1 13 14
M  V30 14 2 14 15
M  V30 15 1 15 16
M  V30 16 1 16 17
M  V30 17 2 17 18
M  V30 18 1 18 19
M  V30 19 2 19 20
M  V30 20 1 20 21
M  V30 21 2 12 22
M  V30 22 1 7 23
M  V30 23 1 23 4
M  V30 24 1 22 8
M  V30 25 2 21 13
M  V30 26 1 21 16
M  V30 27 1 1 24
M  V30 28 1 1 25
M  V30 29 1 1 26
M  V30 30 1 3 27
M  V30 31 1 3 28
M  V30 32 1 3 29
M  V30 33 1 4 30
M  V30 34 1 5 31
M  V30 35 1 5 32
M  V30 36 1 6 33
M  V30 37 1 6 34
M  V30 38 1 10 35
M  V30 39 1 11 36
M  V30 40 1 14 37
M  V30 41 1 18 38
M  V30 42 1 19 39
M  V30 43 1 20 40
M  V30 44 1 23 41
M  V30 45 1 23 42
M  V30 END BOND
M  V30 END CTAB
M  END
>  <Dataset>  (85) 
ChEMBL_Kinases

>  <Ligand_Instance>  (85) 
nan

>  <PDB_ID>  (85) 
nan

>  <Standardized_SMILES>  (85) 
CN(C)C1CCN(c2nccc(-c3cnn4ncccc34)n2)C1

>  <Name>  (85) 
nan

>  <Pocket>  (85) 
nan

>  <ATP_Site>  (85) 
nan

>  <Peripheral>  (85) 
nan

>  <Num_H_Atoms_ProtBoundConf>  (85) 
nan

>  <Num_Resolved_Atoms>  (85) 
nan

>  <Num_Not_Resolved_Atoms>  (85) 
nan

$$$$
CHEMBL4083340
     RDKit          3D

  0  0  0  0  0  0  0  0  0  0999 V3000
M  V30 BEGIN CTAB
M  V30 COUNTS 63 67 0 0 0
M  V30 BEGIN ATOM
M  V30 1 C 6.045842 -1.327625 4.575709 0
M  V30 2 O 6.663322 -1.189476 3.302207 0
M  V30 3 C 5.907125 -0.625496 2.283160 0
M  V30 4 C 6.400383 -0.442253 1.003608 0
M  V30 5 C 5.629728 0.126982 -0.018057 0
M  V30 6 C 4.330499 0.516413 0.271818 0
M  V30 7 C 3.785976 0.359398 1.524854 0
M  V30 8 C 2.429038 0.740219 1.899436 0
M  V30 9 C 1.548045 1.297609 1.006106 0
M  V30 10 C 0.241804 1.668905 1.326583 0
M  V30 11 C -0.637039 2.248061 0.312157 0
M  V30 12 O -0.784163 3.468266 0.031526 0
M  V30 13 N -1.419520 1.334504 -0.450905 0
M  V30 14 C -2.307316 1.860477 -1.474342 0
M  V30 15 C -1.339704 -0.113065 -0.217503 0 CFG=2
M  V30 16 C -0.785748 -0.731432 -1.473425 0
M  V30 17 C -1.932529 -1.466074 -2.073750 0
M  V30 18 N -2.676798 -1.927416 -0.913967 0
M  V30 19 C -4.032195 -2.200716 -1.272538 0
M  V30 20 C -4.136755 -3.267724 -2.314479 0
M  V30 21 C -4.141475 -3.027600 -3.673124 0
M  V30 22 C -4.240237 -4.106506 -4.552433 0
M  V30 23 C -4.329306 -5.375230 -4.015297 0
M  V30 24 Cl -4.454255 -6.761335 -5.062430 0
M  V30 25 C -4.325096 -5.620868 -2.659854 0
M  V30 26 C -4.228104 -4.561564 -1.789446 0
M  V30 27 C -2.648278 -0.774767 0.002578 0
M  V30 28 C -0.177961 1.455318 2.635605 0
M  V30 29 C -1.454189 1.802191 3.004631 0
M  V30 30 C -1.793769 1.555516 4.325979 0
M  V30 31 C -0.962740 1.001699 5.269779 0
M  V30 32 C 0.321769 0.667985 4.843065 0
M  V30 33 C 0.721068 0.892864 3.524395 0
M  V30 34 N 1.982155 0.549095 3.160219 0
M  V30 35 C 4.607579 -0.208248 2.476110 0
M  V30 36 H 6.726265 -1.825035 5.303453 0
M  V30 37 H 5.090468 -1.903142 4.508052 0
M  V30 38 H 5.788892 -0.354298 5.041942 0
M  V30 39 H 7.417578 -0.743227 0.762020 0
M  V30 40 H 6.026803 0.263377 -1.006978 0
M  V30 41 H 3.734649 0.950547 -0.497466 0
M  V30 42 H 1.830051 1.481781 -0.017614 0
M  V30 43 H -3.318975 1.440933 -1.337297 0
M  V30 44 H -2.383896 2.958145 -1.370641 0
M  V30 45 H -1.972270 1.556541 -2.490002 0
M  V30 46 H -0.606038 -0.315231 0.610472 0
M  V30 47 H -0.447427 0.048696 -2.204421 0
M  V30 48 H 0.032680 -1.454843 -1.258640 0
M  V30 49 H -2.514851 -0.759617 -2.695452 0
M  V30 50 H -1.587908 -2.313141 -2.703245 0
M  V30 51 H -4.572562 -1.309648 -1.705605 0
M  V30 52 H -4.601573 -2.490484 -0.352703 0
M  V30 53 H -4.068956 -2.007882 -4.016908 0
M  V30 54 H -4.244130 -3.926412 -5.630100 0
M  V30 55 H -4.396338 -6.628964 -2.247821 0
M  V30 56 H -4.224868 -4.757768 -0.717307 0
M  V30 57 H -2.619237 -1.262005 1.018204 0
M  V30 58 H -3.542976 -0.160855 -0.103136 0
M  V30 59 H -2.135387 2.239599 2.292329 0
M  V30 60 H -2.789007 1.810387 4.671695 0
M  V30 61 H -1.256513 0.823957 6.283615 0
M  V30 62 H 0.978945 0.232160 5.579529 0
M  V30 63 H 4.193961 -0.344245 3.486347 0
M  V30 END ATOM
M  V30 BEGIN BOND
M  V30 1 1 1 2
M  V30 2 1 2 3
M  V30 3 2 3 4
M  V30 4 1 4 5
M  V30 5 2 5 6
M  V30 6 1 6 7
M  V30 7 1 7 8
M  V30 8 2 8 9
M  V30 9 1 9 10
M  V30 10 1 10 11
M  V30 11 2 11 12
M  V30 12 1 11 13
M  V30 13 1 13 14
M  V30 14 1 13 15
M  V30 15 1 15 16
M  V30 16 1 16 17
M  V30 17 1 17 18
M  V30 18 1 18 19
M  V30 19 1 19 20
M  V30 20 2 20 21
M  V30 21 1 21 22
M  V30 22 2 22 23
M  V30 23 1 23 24
M  V30 24 1 23 25
M  V30 25 2 25 26
M  V30 26 1 18 27
M  V30 27 2 10 28
M  V30 28 1 28 29
M  V30 29 2 29 30
M  V30 30 1 30 31
M  V30 31 2 31 32
M  V30 32 1 32 33
M  V30 33 2 33 34
M  V30 34 2 7 35
M  V30 35 1 35 3
M  V30 36 1 34 8
M  V30 37 1 27 15
M  V30 38 1 33 28
M  V30 39 1 26 20
M  V30 40 1 1 36
M  V30 41 1 1 37
M  V30 42 1 1 38
M  V30 43 1 4 39
M  V30 44 1 5 40
M  V30 45 1 6 41
M  V30 46 1 9 42
M  V30 47 1 14 43
M  V30 48 1 14 44
M  V30 49 1 14 45
M  V30 50 1 15 46 CFG=1
M  V30 51 1 16 47
M  V30 52 1 16 48
M  V30 53 1 17 49
M  V30 54 1 17 50
M  V30 55 1 19 51
M  V30 56 1 19 52
M  V30 57 1 21 53
M  V30 58 1 22 54
M  V30 59 1 25 55
M  V30 60 1 26 56
M  V30 61 1 27 57
M  V30 62 1 27 58
M  V30 63 1 29 59
M  V30 64 1 30 60
M  V30 65 1 31 61
M  V30 66 1 32 62
M  V30 67 1 35 63
M  V30 END BOND
M  V30 END CTAB
M  END
>  <Dataset>  (86) 
ChEMBL_Kinases

>  <Ligand_Instance>  (86) 
nan

>  <PDB_ID>  (86) 
nan

>  <Standardized_SMILES>  (86) 
COc1cccc(-c2cc(C(=O)N(C)[C@@H]3CCN(Cc4ccc(Cl)cc4)C3)c3ccccc3n2)c1

>  <Name>  (86) 
nan

>  <Pocket>  (86) 
nan

>  <ATP_Site>  (86) 
nan

>  <Peripheral>  (86) 
nan

>  <Num_H_Atoms_ProtBoundConf>  (86) 
nan

>  <Num_Resolved_Atoms>  (86) 
nan

>  <Num_Not_Resolved_Atoms>  (86) 
nan

$$$$
CHEMBL4852061
     RDKit          3D

  0  0  0  0  0  0  0  0  0  0999 V3000
M  V30 BEGIN CTAB
M  V30 COUNTS 43 45 0 0 0
M  V30 BEGIN ATOM
M  V30 1 C 3.267085 -2.797638 -2.351393 0
M  V30 2 O 2.709282 -1.613506 -1.871255 0
M  V30 3 C 2.320923 -0.555035 -2.657854 0
M  V30 4 N 2.496598 -0.682864 -3.982881 0
M  V30 5 C 2.150718 0.293001 -4.842248 0
M  V30 6 C 1.608474 1.419794 -4.259081 0
M  V30 7 C 1.425755 1.556808 -2.900351 0
M  V30 8 C 1.786666 0.545373 -2.036374 0
M  V30 9 C 1.570267 0.747009 -0.615865 0
M  V30 10 O 1.061089 1.836144 -0.216846 0
M  V30 11 N 1.834563 -0.091238 0.483837 0
M  V30 12 C 1.517740 0.363779 1.798274 0
M  V30 13 C 2.429044 1.056934 2.555314 0
M  V30 14 C 2.020638 1.457951 3.829132 0
M  V30 15 C 0.745132 1.155026 4.281966 0
M  V30 16 C -0.143103 0.456383 3.491877 0
M  V30 17 C -1.487511 0.145480 3.988138 0
M  V30 18 N -2.093050 0.844434 4.983736 0
M  V30 19 N -3.301821 0.299935 5.186087 0
M  V30 20 C -3.405841 -0.716259 4.311467 0
M  V30 21 N -2.306829 -0.844762 3.553658 0
M  V30 22 C -1.977623 -1.778111 2.503155 0 CFG=1
M  V30 23 C -0.769439 -2.613179 2.843871 0
M  V30 24 C -3.194776 -2.653397 2.222049 0
M  V30 25 F -3.541122 -3.338438 3.355922 0
M  V30 26 F -2.934799 -3.478230 1.142657 0
M  V30 27 F -4.194292 -1.752903 1.842776 0
M  V30 28 N 0.288470 0.088232 2.271860 0
M  V30 29 H 4.367125 -2.694837 -2.322064 0
M  V30 30 H 2.938856 -3.036127 -3.388610 0
M  V30 31 H 2.940492 -3.653089 -1.725285 0
M  V30 32 H 2.243867 0.303252 -5.918555 0
M  V30 33 H 1.302590 2.254715 -4.884542 0
M  V30 34 H 0.991012 2.477287 -2.514609 0
M  V30 35 H 2.257103 -1.019352 0.269063 0
M  V30 36 H 3.403696 1.267949 2.162908 0
M  V30 37 H 2.722890 2.010334 4.453868 0
M  V30 38 H 0.459724 1.485883 5.286895 0
M  V30 39 H -4.275315 -1.349576 4.234619 0
M  V30 40 H -1.790103 -1.226081 1.568129 0
M  V30 41 H -0.243677 -2.238483 3.737549 0
M  V30 42 H -1.121684 -3.644356 3.047974 0
M  V30 43 H -0.103847 -2.667624 1.969820 0
M  V30 END ATOM
M  V30 BEGIN BOND
M  V30 1 1 1 2
M  V30 2 1 2 3
M  V30 3 2 3 4
M  V30 4 1 4 5
M  V30 5 2 5 6
M  V30 6 1 6 7
M  V30 7 2 7 8
M  V30 8 1 8 9
M  V30 9 2 9 10
M  V30 10 1 9 11
M  V30 11 1 11 12
M  V30 12 2 12 13
M  V30 13 1 13 14
M  V30 14 2 14 15
M  V30 15 1 15 16
M  V30 16 1 16 17
M  V30 17 2 17 18
M  V30 18 1 18 19
M  V30 19 2 19 20
M  V30 20 1 20 21
M  V30 21 1 21 22
M  V30 22 1 22 23
M  V30 23 1 22 24
M  V30 24 1 24 25
M  V30 25 1 24 26
M  V30 26 1 24 27
M  V30 27 2 16 28
M  V30 28 1 8 3
M  V30 29 1 28 12
M  V30 30 1 21 17
M  V30 31 1 1 29
M  V30 32 1 1 30
M  V30 33 1 1 31
M  V30 34 1 5 32
M  V30 35 1 6 33
M  V30 36 1 7 34
M  V30 37 1 11 35
M  V30 38 1 13 36
M  V30 39 1 14 37
M  V30 40 1 15 38
M  V30 41 1 20 39
M  V30 42 1 22 40 CFG=3
M  V30 43 1 23 41
M  V30 44 1 23 42
M  V30 45 1 23 43
M  V30 END BOND
M  V30 END CTAB
M  END
>  <Dataset>  (87) 
ChEMBL_Kinases

>  <Ligand_Instance>  (87) 
nan

>  <PDB_ID>  (87) 
nan

>  <Standardized_SMILES>  (87) 
COc1ncccc1C(=O)Nc1cccc(-c2nncn2[C@@H](C)C(F)(F)F)n1

>  <Name>  (87) 
nan

>  <Pocket>  (87) 
nan

>  <ATP_Site>  (87) 
nan

>  <Peripheral>  (87) 
nan

>  <Num_H_Atoms_ProtBoundConf>  (87) 
nan

>  <Num_Resolved_Atoms>  (87) 
nan

>  <Num_Not_Resolved_Atoms>  (87) 
nan

$$$$
CHEMBL4852110
     RDKit          3D

  0  0  0  0  0  0  0  0  0  0999 V3000
M  V30 BEGIN CTAB
M  V30 COUNTS 272 272 0 0 0
M  V30 BEGIN ATOM
M  V30 1 C -2.288864 5.002205 -4.150625 0
M  V30 2 C -3.401115 6.089413 -4.156766 0
M  V30 3 C -4.002286 5.912160 -5.573366 0
M  V30 4 C -4.401437 5.619468 -3.139447 0
M  V30 5 C -5.512470 6.579341 -2.884949 0 CFG=2
M  V30 6 N -6.483377 5.996504 -1.927331 0
M  V30 7 C -6.215456 4.979487 -0.983891 0
M  V30 8 O -5.143325 4.400869 -0.835894 0
M  V30 9 C -7.301838 4.576149 -0.116562 0 CFG=2
M  V30 10 C -7.432047 5.708402 0.945043 0
M  V30 11 N -7.013821 3.328037 0.560807 0
M  V30 12 C -8.125535 2.619241 1.147400 0
M  V30 13 O -9.173625 3.281704 0.972100 0
M  V30 14 C -7.838587 1.345088 1.800287 0 CFG=2
M  V30 15 C -7.996959 1.417909 3.313651 0
M  V30 16 C -7.166287 2.400848 4.028349 0
M  V30 17 C -5.690136 2.326654 3.861342 0
M  V30 18 N -5.085854 1.082630 4.201530 0
M  V30 19 C -3.644035 0.974753 4.091921 0
M  V30 20 N -2.795091 1.912257 4.539313 0
M  V30 21 N -3.040376 -0.215175 3.497472 0
M  V30 22 N -6.573024 0.723434 1.469802 0
M  V30 23 C -6.594506 -0.693072 1.179384 0
M  V30 24 O -7.758988 -1.268921 1.234905 0
M  V30 25 C -5.754470 -1.828259 0.823012 0 CFG=2
M  V30 26 C -5.797145 -2.737610 2.111842 0
M  V30 27 N -4.352398 -1.503416 0.601759 0
M  V30 28 C -3.330204 -2.360853 1.052709 0
M  V30 29 O -3.351763 -3.456827 1.680830 0
M  V30 30 C -1.901290 -2.650438 1.177400 0 CFG=2
M  V30 31 C -1.338562 -3.023738 -0.181964 0
M  V30 32 C 0.165514 -3.311404 -0.013798 0
M  V30 33 C 0.803150 -3.693815 -1.308712 0
M  V30 34 C 2.291621 -4.000010 -1.073643 0
M  V30 35 N 2.856512 -4.377204 -2.343053 0
M  V30 36 N -1.659407 -3.689391 2.143089 0
M  V30 37 C -0.813811 -3.890752 3.162622 0
M  V30 38 O -0.039253 -2.814661 3.193848 0
M  V30 39 C 0.106237 -4.127404 4.284433 0 CFG=2
M  V30 40 C -0.668946 -3.468607 5.559037 0
M  V30 41 C -1.987928 -4.190650 5.651603 0
M  V30 42 C -2.826135 -3.702912 6.741916 0
M  V30 43 N -2.334150 -3.771162 8.080015 0
M  V30 44 C -1.241732 -2.974502 8.600344 0
M  V30 45 N -1.245631 -1.762108 8.124084 0
M  V30 46 N -0.377224 -3.671381 9.541079 0
M  V30 47 N 1.263001 -3.312182 4.189631 0
M  V30 48 C 2.084945 -2.405291 4.857718 0
M  V30 49 O 1.662558 -2.136189 6.036888 0
M  V30 50 C 3.326987 -1.673490 4.545270 0 CFG=2
M  V30 51 C 4.558677 -2.486472 4.759214 0
M  V30 52 C 4.657419 -3.703365 3.930491 0
M  V30 53 C 4.735301 -3.483092 2.443893 0
M  V30 54 N 4.887412 -4.814933 1.839093 0
M  V30 55 C 5.114432 -5.037685 0.437870 0
M  V30 56 N 5.493374 -4.006569 -0.260887 0
M  V30 57 N 4.921875 -6.342532 -0.128886 0
M  V30 58 N 3.404063 -0.486993 5.416263 0
M  V30 59 C 2.915923 0.675164 4.758332 0
M  V30 60 O 2.413437 0.867869 3.613301 0
M  V30 61 C 2.937405 2.055728 5.430699 0 CFG=2
M  V30 62 C 2.241520 2.096922 6.718077 0
M  V30 63 C 2.323993 3.423711 7.378101 0
M  V30 64 C 3.550539 3.835727 8.017791 0
M  V30 65 N 4.824180 3.813327 7.418023 0
M  V30 66 C 5.592223 2.584762 7.285861 0
M  V30 67 N 5.263171 1.669949 8.168145 0
M  V30 68 N 6.623081 2.211278 6.390009 0
M  V30 69 N 2.201717 2.946828 4.483633 0
M  V30 70 C 2.878723 3.549468 3.395313 0
M  V30 71 O 4.094053 3.417634 3.104924 0
M  V30 72 C 2.137742 4.449079 2.431133 0 CFG=2
M  V30 73 C 0.843776 3.869581 1.971463 0
M  V30 74 C 0.161560 4.825857 1.010668 0
M  V30 75 C -0.121820 6.158673 1.647216 0
M  V30 76 C -0.815233 7.073739 0.649284 0
M  V30 77 N -2.082982 6.530311 0.189346 0
M  V30 78 N 3.055585 4.716899 1.360966 0
M  V30 79 C 3.704833 5.754527 0.708848 0
M  V30 80 O 3.500125 6.964979 1.086194 0
M  V30 81 C 4.667285 5.509378 -0.442435 0 CFG=2
M  V30 82 C 4.469519 6.440031 -1.565938 0
M  V30 83 C 5.426148 6.420529 -2.698807 0
M  V30 84 C 5.547510 5.146269 -3.414963 0
M  V30 85 C 6.791026 6.980311 -2.298745 0
M  V30 86 N 4.651499 4.090692 -0.720977 0
M  V30 87 C 3.746811 3.336394 -1.523488 0
M  V30 88 O 2.898179 4.158045 -1.990507 0
M  V30 89 C 3.742193 1.828077 -1.800544 0 CFG=2
M  V30 90 C 4.992642 1.286963 -2.321273 0
M  V30 91 C 6.239726 1.409149 -1.550566 0
M  V30 92 C 6.211076 0.785261 -0.183148 0
M  V30 93 C 7.266711 0.515010 -2.337738 0
M  V30 94 N 2.629392 1.486335 -2.618298 0
M  V30 95 C 1.388329 1.596185 -3.168285 0
M  V30 96 O 0.955145 2.691713 -2.643309 0
M  V30 97 C 0.496805 0.901121 -4.089723 0 CFG=2
M  V30 98 C -0.931698 1.237647 -3.737022 0
M  V30 99 C -1.982090 0.569137 -4.565144 0
M  V30 100 C -3.383068 1.081011 -4.120985 0
M  V30 101 C -2.059681 -0.928880 -4.271956 0
M  V30 102 N 0.798356 -0.453427 -4.397329 0
M  V30 103 C 0.784266 -1.155880 -5.670367 0
M  V30 104 O 0.428073 -0.316325 -6.510219 0
M  V30 105 C 1.132739 -2.569979 -5.818274 0 CFG=2
M  V30 106 C 2.156788 -2.619509 -6.984782 0
M  V30 107 C 1.363206 -2.971994 -8.218075 0
M  V30 108 C -0.074990 -2.919580 -7.732692 0
M  V30 109 N 0.054253 -3.373902 -6.375532 0
M  V30 110 C -0.573154 -4.346695 -5.573808 0
M  V30 111 O -0.408395 -4.736175 -4.397931 0
M  V30 112 C -1.547101 -5.412087 -5.281112 0 CFG=2
M  V30 113 C -2.966781 -4.876713 -5.156809 0
M  V30 114 C -3.443482 -4.217748 -6.367747 0
M  V30 115 N -4.751601 -3.738904 -6.030632 0
M  V30 116 O -3.383867 -3.812727 -7.551612 0
M  V30 117 N -1.296946 -6.044641 -3.971414 0
M  V30 118 C -0.869220 -7.412553 -3.892271 0
M  V30 119 O -0.728123 -7.961917 -5.037310 0
M  V30 120 C -0.575490 -8.240982 -2.717374 0 CFG=1
M  V30 121 N 0.073080 -9.464019 -3.109180 0
M  V30 122 C 0.194686 -7.545116 -1.632279 0
M  V30 123 O 0.326762 -8.379887 -0.517836 0
M  V30 124 C -6.196194 7.242774 -3.941147 0
M  V30 125 O -5.856803 7.968564 -4.886029 0
M  V30 126 O -7.593478 7.108867 -4.021747 0
M  V30 127 H -1.890768 4.815967 -5.153310 0
M  V30 128 H -1.518806 5.444981 -3.463014 0
M  V30 129 H -2.693001 4.136920 -3.630295 0
M  V30 130 H -2.990732 7.079220 -4.015096 0
M  V30 131 H -3.911268 6.798766 -6.189444 0
M  V30 132 H -5.035607 5.545228 -5.479558 0
M  V30 133 H -3.472203 5.047688 -6.111596 0
M  V30 134 H -4.791579 4.627797 -3.468315 0
M  V30 135 H -3.828431 5.508843 -2.178463 0
M  V30 136 H -4.970464 7.366949 -2.228944 0
M  V30 137 H -7.466632 6.401665 -1.977687 0
M  V30 138 H -8.275337 4.541674 -0.590378 0
M  V30 139 H -6.915673 6.616995 0.586374 0
M  V30 140 H -8.479102 5.938836 1.143491 0
M  V30 141 H -6.925153 5.348503 1.836617 0
M  V30 142 H -6.026449 3.000738 0.591585 0
M  V30 143 H -8.650611 0.641447 1.491463 0
M  V30 144 H -9.054634 1.602561 3.589818 0
M  V30 145 H -7.763883 0.398341 3.698782 0
M  V30 146 H -7.517860 3.472552 3.871775 0
M  V30 147 H -7.362178 2.243032 5.127971 0
M  V30 148 H -5.347050 2.673934 2.874098 0
M  V30 149 H -5.212052 3.089252 4.574022 0
M  V30 150 H -5.554545 0.230934 4.515150 0
M  V30 151 H -1.809882 1.669659 4.367237 0
M  V30 152 H -2.938426 -0.033128 2.466879 0
M  V30 153 H -3.033514 -0.629126 4.484155 0
M  V30 154 H -5.552947 0.907597 1.338211 0
M  V30 155 H -6.095605 -2.479996 0.036397 0
M  V30 156 H -5.639473 -3.773625 1.847761 0
M  V30 157 H -5.134957 -2.311592 2.862757 0
M  V30 158 H -6.830240 -2.637151 2.481011 0
M  V30 159 H -3.752118 -0.746999 0.171456 0
M  V30 160 H -1.363707 -1.714845 1.458043 0
M  V30 161 H -1.416872 -2.184265 -0.891949 0
M  V30 162 H -1.840539 -3.900556 -0.636314 0
M  V30 163 H 0.349417 -4.061841 0.795796 0
M  V30 164 H 0.645461 -2.372722 0.371785 0
M  V30 165 H 0.312019 -4.526942 -1.797863 0
M  V30 166 H 0.796108 -2.843151 -2.012334 0
M  V30 167 H 2.388824 -4.789797 -0.292345 0
M  V30 168 H 2.777067 -3.074200 -0.712558 0
M  V30 169 H 3.168186 -3.561478 -2.926769 0
M  V30 170 H 3.644897 -5.039882 -2.284756 0
M  V30 171 H -2.036636 -4.643878 2.416440 0
M  V30 172 H 0.235762 -5.152737 4.635776 0
M  V30 173 H -0.769670 -2.442044 5.240361 0
M  V30 174 H -0.005726 -3.628364 6.385897 0
M  V30 175 H -2.510502 -3.908111 4.685179 0
M  V30 176 H -1.887794 -5.291030 5.552923 0
M  V30 177 H -3.828021 -4.175099 6.714712 0
M  V30 178 H -3.047881 -2.609447 6.553795 0
M  V30 179 H -2.788143 -4.449869 8.775943 0
M  V30 180 H -0.521255 -1.068321 8.407777 0
M  V30 181 H -0.657026 -2.993024 10.278340 0
M  V30 182 H 0.164507 -4.524271 9.192284 0
M  V30 183 H 1.665796 -3.460733 3.232764 0
M  V30 184 H 3.250536 -1.323544 3.518216 0
M  V30 185 H 4.744007 -2.680858 5.852153 0
M  V30 186 H 5.417863 -1.780636 4.472349 0
M  V30 187 H 3.720449 -4.331829 4.079417 0
M  V30 188 H 5.476096 -4.382684 4.278891 0
M  V30 189 H 5.600233 -2.855613 2.187754 0
M  V30 190 H 3.784099 -3.105362 2.065609 0
M  V30 191 H 4.856127 -5.704841 2.393319 0
M  V30 192 H 5.653496 -4.218435 -1.283332 0
M  V30 193 H 5.873876 -6.579420 -0.490998 0
M  V30 194 H 4.057127 -6.890629 -0.169306 0
M  V30 195 H 3.744031 -0.361171 6.393417 0
M  V30 196 H 3.981816 2.299237 5.420437 0
M  V30 197 H 2.556130 1.272262 7.417328 0
M  V30 198 H 1.130261 1.940835 6.498660 0
M  V30 199 H 2.012957 4.248875 6.654302 0
M  V30 200 H 1.473613 3.517646 8.150060 0
M  V30 201 H 3.612728 3.201021 8.997557 0
M  V30 202 H 3.388385 4.908637 8.404658 0
M  V30 203 H 5.388306 4.600456 6.999998 0
M  V30 204 H 5.716913 0.729843 8.211201 0
M  V30 205 H 7.569983 2.614921 6.231334 0
M  V30 206 H 6.349530 1.391393 5.803352 0
M  V30 207 H 1.179062 3.177687 4.556344 0
M  V30 208 H 1.880014 5.405679 2.960703 0
M  V30 209 H 0.931570 2.890836 1.451625 0
M  V30 210 H 0.132627 3.797373 2.846084 0
M  V30 211 H 0.821501 5.011662 0.122167 0
M  V30 212 H -0.777698 4.400956 0.623012 0
M  V30 213 H -0.722602 6.038753 2.569904 0
M  V30 214 H 0.836836 6.675630 1.888270 0
M  V30 215 H -1.067288 8.047200 1.122886 0
M  V30 216 H -0.185133 7.283082 -0.225704 0
M  V30 217 H -2.808177 6.536496 0.914119 0
M  V30 218 H -1.993676 5.688391 -0.373185 0
M  V30 219 H 3.281611 3.776483 0.970779 0
M  V30 220 H 5.656383 5.739181 -0.024508 0
M  V30 221 H 3.457022 6.420754 -2.035768 0
M  V30 222 H 4.508306 7.486926 -1.116488 0
M  V30 223 H 5.042419 7.235982 -3.410503 0
M  V30 224 H 4.631081 4.759902 -3.882194 0
M  V30 225 H 6.215872 5.367055 -4.329845 0
M  V30 226 H 6.018210 4.328690 -2.839984 0
M  V30 227 H 6.690589 8.003794 -1.946661 0
M  V30 228 H 7.376585 7.025030 -3.248533 0
M  V30 229 H 7.347353 6.298655 -1.619407 0
M  V30 230 H 5.372860 3.503298 -0.250537 0
M  V30 231 H 3.484361 1.461341 -0.756749 0
M  V30 232 H 5.211751 1.676565 -3.360138 0
M  V30 233 H 4.824670 0.186040 -2.510415 0
M  V30 234 H 6.728990 2.397101 -1.606126 0
M  V30 235 H 5.200109 0.427018 0.114443 0
M  V30 236 H 6.881944 -0.087655 -0.073404 0
M  V30 237 H 6.600333 1.550094 0.551090 0
M  V30 238 H 7.041104 -0.546680 -2.180459 0
M  V30 239 H 7.152109 0.766592 -3.404876 0
M  V30 240 H 8.269228 0.813828 -2.024869 0
M  V30 241 H 2.907062 0.564728 -3.127947 0
M  V30 242 H 0.609781 1.467192 -5.107703 0
M  V30 243 H -1.108448 2.337112 -3.830474 0
M  V30 244 H -1.127629 0.993651 -2.658971 0
M  V30 245 H -1.933163 0.708044 -5.636611 0
M  V30 246 H -3.521838 2.014485 -4.741123 0
M  V30 247 H -3.372941 1.402790 -3.064978 0
M  V30 248 H -4.166049 0.356377 -4.372118 0
M  V30 249 H -3.015900 -1.181950 -3.733753 0
M  V30 250 H -1.999967 -1.527181 -5.183345 0
M  V30 251 H -1.269041 -1.151446 -3.542106 0
M  V30 252 H 1.089708 -0.990576 -3.538472 0
M  V30 253 H 1.603463 -3.012061 -4.951636 0
M  V30 254 H 2.585225 -1.605199 -7.177135 0
M  V30 255 H 2.940058 -3.366856 -6.741931 0
M  V30 256 H 1.653119 -4.021592 -8.494856 0
M  V30 257 H 1.541412 -2.285754 -9.071406 0
M  V30 258 H -0.715175 -3.616455 -8.342541 0
M  V30 259 H -0.441701 -1.907223 -7.868335 0
M  V30 260 H -1.547380 -6.194681 -6.057735 0
M  V30 261 H -3.634522 -5.689432 -4.857748 0
M  V30 262 H -2.932430 -4.176575 -4.282056 0
M  V30 263 H -5.573388 -4.343891 -5.769108 0
M  V30 264 H -5.205101 -2.811173 -5.957057 0
M  V30 265 H -1.400364 -5.603801 -3.041558 0
M  V30 266 H -1.573595 -8.541630 -2.280371 0
M  V30 267 H 0.058788 -10.130108 -2.291438 0
M  V30 268 H 1.071610 -9.326953 -3.392625 0
M  V30 269 H 1.174874 -7.157104 -1.911169 0
M  V30 270 H -0.434704 -6.691361 -1.263498 0
M  V30 271 H -0.529196 -8.477659 -0.037720 0
M  V30 272 H -8.188444 7.545327 -4.682210 0
M  V30 END ATOM
M  V30 BEGIN BOND
M  V30 1 1 1 2
M  V30 2 1 2 3
M  V30 3 1 2 4
M  V30 4 1 4 5
M  V30 5 1 5 6
M  V30 6 1 6 7
M  V30 7 2 7 8
M  V30 8 1 7 9
M  V30 9 1 9 10
M  V30 10 1 9 11
M  V30 11 1 11 12
M  V30 12 2 12 13
M  V30 13 1 12 14
M  V30 14 1 14 15
M  V30 15 1 15 16
M  V30 16 1 16 17
M  V30 17 1 17 18
M  V30 18 1 18 19
M  V30 19 2 19 20 CFG=2
M  V30 20 1 19 21
M  V30 21 1 14 22
M  V30 22 1 22 23
M  V30 23 2 23 24
M  V30 24 1 23 25
M  V30 25 1 25 26
M  V30 26 1 25 27
M  V30 27 1 27 28
M  V30 28 2 28 29
M  V30 29 1 28 30
M  V30 30 1 30 31
M  V30 31 1 31 32
M  V30 32 1 32 33
M  V30 33 1 33 34
M  V30 34 1 34 35
M  V30 35 1 30 36
M  V30 36 1 36 37
M  V30 37 2 37 38
M  V30 38 1 37 39
M  V30 39 1 39 40
M  V30 40 1 40 41
M  V30 41 1 41 42
M  V30 42 1 42 43
M  V30 43 1 43 44
M  V30 44 2 44 45 CFG=2
M  V30 45 1 44 46
M  V30 46 1 39 47
M  V30 47 1 47 48
M  V30 48 2 48 49
M  V30 49 1 48 50
M  V30 50 1 50 51
M  V30 51 1 51 52
M  V30 52 1 52 53
M  V30 53 1 53 54
M  V30 54 1 54 55
M  V30 55 2 55 56 CFG=2
M  V30 56 1 55 57
M  V30 57 1 50 58
M  V30 58 1 58 59
M  V30 59 2 59 60
M  V30 60 1 59 61
M  V30 61 1 61 62
M  V30 62 1 62 63
M  V30 63 1 63 64
M  V30 64 1 64 65
M  V30 65 1 65 66
M  V30 66 2 66 67 CFG=2
M  V30 67 1 66 68
M  V30 68 1 61 69
M  V30 69 1 69 70
M  V30 70 2 70 71
M  V30 71 1 70 72
M  V30 72 1 72 73
M  V30 73 1 73 74
M  V30 74 1 74 75
M  V30 75 1 75 76
M  V30 76 1 76 77
M  V30 77 1 72 78
M  V30 78 1 78 79
M  V30 79 2 79 80
M  V30 80 1 79 81
M  V30 81 1 81 82
M  V30 82 1 82 83
M  V30 83 1 83 84
M  V30 84 1 83 85
M  V30 85 1 81 86
M  V30 86 1 86 87
M  V30 87 2 87 88
M  V30 88 1 87 89
M  V30 89 1 89 90
M  V30 90 1 90 91
M  V30 91 1 91 92
M  V30 92 1 91 93
M  V30 93 1 89 94
M  V30 94 1 94 95
M  V30 95 2 95 96
M  V30 96 1 95 97
M  V30 97 1 97 98
M  V30 98 1 98 99
M  V30 99 1 99 100
M  V30 100 1 99 101
M  V30 101 1 97 102
M  V30 102 1 102 103
M  V30 103 2 103 104
M  V30 104 1 103 105
M  V30 105 1 105 106
M  V30 106 1 106 107
M  V30 107 1 107 108
M  V30 108 1 108 109
M  V30 109 1 109 110
M  V30 110 2 110 111
M  V30 111 1 110 112
M  V30 112 1 112 113
M  V30 113 1 113 114
M  V30 114 1 114 115
M  V30 115 2 114 116
M  V30 116 1 112 117
M  V30 117 1 117 118
M  V30 118 2 118 119
M  V30 119 1 118 120
M  V30 120 1 120 121
M  V30 121 1 120 122
M  V30 122 1 122 123
M  V30 123 1 5 124
M  V30 124 2 124 125
M  V30 125 1 124 126
M  V30 126 1 109 105
M  V30 127 1 1 127
M  V30 128 1 1 128
M  V30 129 1 1 129
M  V30 130 1 2 130
M  V30 131 1 3 131
M  V30 132 1 3 132
M  V30 133 1 3 133
M  V30 134 1 4 134
M  V30 135 1 4 135
M  V30 136 1 5 136 CFG=1
M  V30 137 1 6 137
M  V30 138 1 9 138 CFG=3
M  V30 139 1 10 139
M  V30 140 1 10 140
M  V30 141 1 10 141
M  V30 142 1 11 142
M  V30 143 1 14 143 CFG=3
M  V30 144 1 15 144
M  V30 145 1 15 145
M  V30 146 1 16 146
M  V30 147 1 16 147
M  V30 148 1 17 148
M  V30 149 1 17 149
M  V30 150 1 18 150
M  V30 151 1 20 151
M  V30 152 1 21 152
M  V30 153 1 21 153
M  V30 154 1 22 154
M  V30 155 1 25 155 CFG=3
M  V30 156 1 26 156
M  V30 157 1 26 157
M  V30 158 1 26 158
M  V30 159 1 27 159
M  V30 160 1 30 160 CFG=1
M  V30 161 1 31 161
M  V30 162 1 31 162
M  V30 163 1 32 163
M  V30 164 1 32 164
M  V30 165 1 33 165
M  V30 166 1 33 166
M  V30 167 1 34 167
M  V30 168 1 34 168
M  V30 169 1 35 169
M  V30 170 1 35 170
M  V30 171 1 36 171
M  V30 172 1 39 172 CFG=1
M  V30 173 1 40 173
M  V30 174 1 40 174
M  V30 175 1 41 175
M  V30 176 1 41 176
M  V30 177 1 42 177
M  V30 178 1 42 178
M  V30 179 1 43 179
M  V30 180 1 45 180
M  V30 181 1 46 181
M  V30 182 1 46 182
M  V30 183 1 47 183
M  V30 184 1 50 184 CFG=3
M  V30 185 1 51 185
M  V30 186 1 51 186
M  V30 187 1 52 187
M  V30 188 1 52 188
M  V30 189 1 53 189
M  V30 190 1 53 190
M  V30 191 1 54 191
M  V30 192 1 56 192
M  V30 193 1 57 193
M  V30 194 1 57 194
M  V30 195 1 58 195
M  V30 196 1 61 196 CFG=1
M  V30 197 1 62 197
M  V30 198 1 62 198
M  V30 199 1 63 199
M  V30 200 1 63 200
M  V30 201 1 64 201
M  V30 202 1 64 202
M  V30 203 1 65 203
M  V30 204 1 67 204
M  V30 205 1 68 205
M  V30 206 1 68 206
M  V30 207 1 69 207
M  V30 208 1 72 208 CFG=1
M  V30 209 1 73 209
M  V30 210 1 73 210
M  V30 211 1 74 211
M  V30 212 1 74 212
M  V30 213 1 75 213
M  V30 214 1 75 214
M  V30 215 1 76 215
M  V30 216 1 76 216
M  V30 217 1 77 217
M  V30 218 1 77 218
M  V30 219 1 78 219
M  V30 220 1 81 220 CFG=1
M  V30 221 1 82 221
M  V30 222 1 82 222
M  V30 223 1 83 223
M  V30 224 1 84 224
M  V30 225 1 84 225
M  V30 226 1 84 226
M  V30 227 1 85 227
M  V30 228 1 85 228
M  V30 229 1 85 229
M  V30 230 1 86 230
M  V30 231 1 89 231 CFG=1
M  V30 232 1 90 232
M  V30 233 1 90 233
M  V30 234 1 91 234
M  V30 235 1 92 235
M  V30 236 1 92 236
M  V30 237 1 92 237
M  V30 238 1 93 238
M  V30 239 1 93 239
M  V30 240 1 93 240
M  V30 241 1 94 241
M  V30 242 1 97 242 CFG=3
M  V30 243 1 98 243
M  V30 244 1 98 244
M  V30 245 1 99 245
M  V30 246 1 100 246
M  V30 247 1 100 247
M  V30 248 1 100 248
M  V30 249 1 101 249
M  V30 250 1 101 250
M  V30 251 1 101 251
M  V30 252 1 102 252
M  V30 253 1 105 253 CFG=1
M  V30 254 1 106 254
M  V30 255 1 106 255
M  V30 256 1 107 256
M  V30 257 1 107 257
M  V30 258 1 108 258
M  V30 259 1 108 259
M  V30 260 1 112 260 CFG=3
M  V30 261 1 113 261
M  V30 262 1 113 262
M  V30 263 1 115 263
M  V30 264 1 115 264
M  V30 265 1 117 265
M  V30 266 1 120 266 CFG=1
M  V30 267 1 121 267
M  V30 268 1 121 268
M  V30 269 1 122 269
M  V30 270 1 122 270
M  V30 271 1 123 271
M  V30 272 1 126 272
M  V30 END BOND
M  V30 END CTAB
M  END
>  <Dataset>  (88) 
ChEMBL_Kinases

>  <Ligand_Instance>  (88) 
nan

>  <PDB_ID>  (88) 
nan

>  <Standardized_SMILES>  (88) 
CC(C)C[C@H](NC(=O)[C@H](C)NC(=O)[C@H](CCCNC(=N)N)NC(=O)[C@H](C)NC(=O)[C@H](CCCCN)NC(=O)[C@H](CCCNC(=N)N)NC(=O)[C@H](CCCNC(=N)N)NC(=O)[C@H](CCCNC(=N)N)NC(=O)[C@H](CCCCN)NC(=O)[C@H](CC(C)C)NC(=O)[C@H](CC(C)C)NC(=O)[C@H](CC(C)C)NC(=O)[C@@H]1CCCN1C(=O)[C@H](CC(N)=O)NC(=O)[C@@H](N)CO)C(=O)O

>  <Name>  (88) 
nan

>  <Pocket>  (88) 
nan

>  <ATP_Site>  (88) 
nan

>  <Peripheral>  (88) 
nan

>  <Num_H_Atoms_ProtBoundConf>  (88) 
nan

>  <Num_Resolved_Atoms>  (88) 
nan

>  <Num_Not_Resolved_Atoms>  (88) 
nan

$$$$
CHEMBL4852125
     RDKit          3D

  0  0  0  0  0  0  0  0  0  0999 V3000
M  V30 BEGIN CTAB
M  V30 COUNTS 52 55 0 0 0
M  V30 BEGIN ATOM
M  V30 1 C -0.870776 -1.024334 -5.012402 0
M  V30 2 C -1.392722 -2.160365 -4.190019 0
M  V30 3 C -0.353457 -2.746342 -3.273909 0
M  V30 4 C -0.121142 -2.305895 -1.985558 0
M  V30 5 C 0.888721 -3.024156 -1.386271 0
M  V30 6 N 1.437713 -2.885313 -0.058563 0
M  V30 7 C 0.777785 -1.811085 0.649607 0
M  V30 8 N 1.227740 -0.549736 0.564949 0
M  V30 9 C 0.664202 0.512717 1.176936 0
M  V30 10 N 1.406908 1.684890 0.875973 0
M  V30 11 C 2.252337 2.145471 1.951932 0 CFG=1
M  V30 12 C 3.129287 3.301134 1.519455 0
M  V30 13 C 1.312047 2.576112 3.038194 0
M  V30 14 C 0.248814 3.333788 2.531130 0
M  V30 15 C -0.767794 3.853795 3.342602 0
M  V30 16 C -0.727728 3.616084 4.688275 0
M  V30 17 Cl -1.987006 4.255854 5.726895 0
M  V30 18 C 0.330339 2.867592 5.158165 0
M  V30 19 N 1.285167 2.383853 4.366007 0
M  V30 20 N -0.434090 0.260369 1.924307 0
M  V30 21 C -0.930312 -0.985346 2.045527 0
M  V30 22 C -2.049694 -1.099944 2.837986 0
M  V30 23 C -2.589324 -2.380418 2.989873 0
M  V30 24 C -1.995684 -3.469628 2.351831 0
M  V30 25 C -0.866415 -3.322540 1.556647 0
M  V30 26 O -0.205791 -4.326825 0.883882 0
M  V30 27 C -0.543828 -5.683025 0.874208 0
M  V30 28 C -0.340249 -2.057150 1.413363 0
M  V30 29 N 1.249736 -3.897445 -2.342985 0
M  V30 30 N 0.535039 -3.742405 -3.437768 0
M  V30 31 H -1.741026 -0.363577 -5.304217 0
M  V30 32 H -0.303130 -1.323192 -5.905824 0
M  V30 33 H -0.251613 -0.369808 -4.349054 0
M  V30 34 H -2.282404 -1.833529 -3.617718 0
M  V30 35 H -1.754425 -3.007020 -4.844335 0
M  V30 36 H -0.682417 -1.496348 -1.540724 0
M  V30 37 H 2.200475 -3.537299 0.212224 0
M  V30 38 H 1.217852 2.035357 -0.103807 0
M  V30 39 H 2.887239 1.344997 2.322976 0
M  V30 40 H 2.603392 4.160188 1.113256 0
M  V30 41 H 3.854368 3.496092 2.322441 0
M  V30 42 H 3.743482 2.884774 0.669135 0
M  V30 43 H 0.100114 3.592338 1.475250 0
M  V30 44 H -1.585606 4.438531 2.956212 0
M  V30 45 H 0.411912 2.647497 6.209330 0
M  V30 46 H -2.576046 -0.311876 3.369899 0
M  V30 47 H -3.463213 -2.553579 3.594266 0
M  V30 48 H -2.369965 -4.468487 2.434346 0
M  V30 49 H 0.260184 -6.249884 1.400710 0
M  V30 50 H -1.516544 -5.932972 1.310127 0
M  V30 51 H -0.546790 -6.095556 -0.177005 0
M  V30 52 H 0.588678 -4.272895 -4.344068 0
M  V30 END ATOM
M  V30 BEGIN BOND
M  V30 1 1 1 2
M  V30 2 1 2 3
M  V30 3 2 3 4
M  V30 4 1 4 5
M  V30 5 1 5 6
M  V30 6 1 6 7
M  V30 7 2 7 8
M  V30 8 1 8 9
M  V30 9 1 9 10
M  V30 10 1 10 11
M  V30 11 1 11 12
M  V30 12 1 11 13
M  V30 13 2 13 14
M  V30 14 1 14 15
M  V30 15 2 15 16
M  V30 16 1 16 17
M  V30 17 1 16 18
M  V30 18 2 18 19
M  V30 19 2 9 20
M  V30 20 1 20 21
M  V30 21 2 21 22
M  V30 22 1 22 23
M  V30 23 2 23 24
M  V30 24 1 24 25
M  V30 25 1 25 26
M  V30 26 1 26 27
M  V30 27 2 25 28
M  V30 28 2 5 29
M  V30 29 1 29 30
M  V30 30 1 30 3
M  V30 31 1 28 7
M  V30 32 1 19 13
M  V30 33 1 28 21
M  V30 34 1 1 31
M  V30 35 1 1 32
M  V30 36 1 1 33
M  V30 37 1 2 34
M  V30 38 1 2 35
M  V30 39 1 4 36
M  V30 40 1 6 37
M  V30 41 1 10 38
M  V30 42 1 11 39 CFG=1
M  V30 43 1 12 40
M  V30 44 1 12 41
M  V30 45 1 12 42
M  V30 46 1 14 43
M  V30 47 1 15 44
M  V30 48 1 18 45
M  V30 49 1 22 46
M  V30 50 1 23 47
M  V30 51 1 24 48
M  V30 52 1 27 49
M  V30 53 1 27 50
M  V30 54 1 27 51
M  V30 55 1 30 52
M  V30 END BOND
M  V30 END CTAB
M  END
>  <Dataset>  (89) 
ChEMBL_Kinases

>  <Ligand_Instance>  (89) 
nan

>  <PDB_ID>  (89) 
nan

>  <Standardized_SMILES>  (89) 
CCc1cc(Nc2nc(N[C@@H](C)c3ccc(Cl)cn3)nc3cccc(OC)c23)n[nH]1

>  <Name>  (89) 
nan

>  <Pocket>  (89) 
nan

>  <ATP_Site>  (89) 
nan

>  <Peripheral>  (89) 
nan

>  <Num_H_Atoms_ProtBoundConf>  (89) 
nan

>  <Num_Resolved_Atoms>  (89) 
nan

>  <Num_Not_Resolved_Atoms>  (89) 
nan

$$$$
CHEMBL4852307
     RDKit          3D

  0  0  0  0  0  0  0  0  0  0999 V3000
M  V30 BEGIN CTAB
M  V30 COUNTS 42 44 0 0 0
M  V30 BEGIN ATOM
M  V30 1 N 0.670541 -7.434988 3.250781 0
M  V30 2 C 1.116388 -6.495918 2.743466 0
M  V30 3 C 1.687208 -5.340362 2.115965 0
M  V30 4 C 3.047357 -5.263075 1.903029 0
M  V30 5 C 3.629199 -4.167384 1.302828 0
M  V30 6 C 2.897494 -3.079462 0.876200 0
M  V30 7 N 3.442142 -1.946229 0.260523 0
M  V30 8 C 2.830737 -0.766245 -0.173044 0
M  V30 9 N 3.561642 0.194894 -0.765997 0
M  V30 10 C 3.071652 1.353512 -1.210202 0
M  V30 11 C 1.740051 1.601272 -1.062983 0
M  V30 12 C 1.197589 2.883214 -1.553558 0
M  V30 13 F 0.230789 2.655797 -2.516312 0
M  V30 14 F 2.211206 3.677988 -2.103137 0
M  V30 15 F 0.632221 3.565175 -0.502966 0
M  V30 16 C 0.947346 0.669017 -0.471293 0
M  V30 17 N -0.468179 0.895531 -0.300928 0
M  V30 18 C -1.485467 0.033805 0.311359 0 CFG=2
M  V30 19 C -2.864243 0.657731 0.252043 0
M  V30 20 C -2.820528 1.940161 1.055304 0
M  V30 21 C -2.428056 1.600069 2.475154 0
M  V30 22 N -2.259721 0.165920 2.596367 0
M  V30 23 C -1.159763 -0.232444 1.760052 0
M  V30 24 N 1.537464 -0.441601 -0.069295 0
M  V30 25 C 1.546816 -3.215884 1.116107 0
M  V30 26 N 0.956975 -4.277139 1.700898 0
M  V30 27 H 3.673707 -6.091047 2.218477 0
M  V30 28 H 4.717318 -4.159764 1.158546 0
M  V30 29 H 4.494046 -2.027196 0.112413 0
M  V30 30 H 3.699760 2.097233 -1.681345 0
M  V30 31 H -0.842523 1.820050 -0.670218 0
M  V30 32 H -1.491809 -0.961526 -0.210506 0
M  V30 33 H -3.154020 0.852142 -0.807009 0
M  V30 34 H -3.547744 -0.041070 0.748807 0
M  V30 35 H -3.874152 2.307484 1.079968 0
M  V30 36 H -2.129372 2.686350 0.647247 0
M  V30 37 H -1.504066 2.122281 2.774209 0
M  V30 38 H -3.223619 1.879077 3.197520 0
M  V30 39 H -2.039743 -0.075775 3.593833 0
M  V30 40 H -0.271410 0.345949 2.090668 0
M  V30 41 H -0.940301 -1.303001 1.936336 0
M  V30 42 H 0.829957 -2.477088 0.852410 0
M  V30 END ATOM
M  V30 BEGIN BOND
M  V30 1 3 1 2
M  V30 2 1 2 3
M  V30 3 2 3 4
M  V30 4 1 4 5
M  V30 5 2 5 6
M  V30 6 1 6 7
M  V30 7 1 7 8
M  V30 8 2 8 9
M  V30 9 1 9 10
M  V30 10 2 10 11
M  V30 11 1 11 12
M  V30 12 1 12 13
M  V30 13 1 12 14
M  V30 14 1 12 15
M  V30 15 1 11 16
M  V30 16 1 16 17
M  V30 17 1 17 18
M  V30 18 1 18 19
M  V30 19 1 19 20
M  V30 20 1 20 21
M  V30 21 1 21 22
M  V30 22 1 22 23
M  V30 23 2 16 24
M  V30 24 1 6 25
M  V30 25 2 25 26
M  V30 26 1 26 3
M  V30 27 1 24 8
M  V30 28 1 23 18
M  V30 29 1 4 27
M  V30 30 1 5 28
M  V30 31 1 7 29
M  V30 32 1 10 30
M  V30 33 1 17 31
M  V30 34 1 18 32 CFG=3
M  V30 35 1 19 33
M  V30 36 1 19 34
M  V30 37 1 20 35
M  V30 38 1 20 36
M  V30 39 1 21 37
M  V30 40 1 21 38
M  V30 41 1 22 39
M  V30 42 1 23 40
M  V30 43 1 23 41
M  V30 44 1 25 42
M  V30 END BOND
M  V30 END CTAB
M  END
>  <Dataset>  (90) 
ChEMBL_Kinases

>  <Ligand_Instance>  (90) 
nan

>  <PDB_ID>  (90) 
nan

>  <Standardized_SMILES>  (90) 
N#Cc1ccc(Nc2ncc(C(F)(F)F)c(N[C@@H]3CCCNC3)n2)cn1

>  <Name>  (90) 
nan

>  <Pocket>  (90) 
nan

>  <ATP_Site>  (90) 
nan

>  <Peripheral>  (90) 
nan

>  <Num_H_Atoms_ProtBoundConf>  (90) 
nan

>  <Num_Resolved_Atoms>  (90) 
nan

>  <Num_Not_Resolved_Atoms>  (90) 
nan

$$$$
CHEMBL4852337
     RDKit          3D

  0  0  0  0  0  0  0  0  0  0999 V3000
M  V30 BEGIN CTAB
M  V30 COUNTS 51 55 0 0 0
M  V30 BEGIN ATOM
M  V30 1 C 2.027977 -0.068835 3.717683 0
M  V30 2 C 3.041737 -0.808667 2.849959 0
M  V30 3 C 3.357678 -2.110563 3.554525 0
M  V30 4 N 4.202781 0.035854 2.756424 0
M  V30 5 C 5.179121 0.155355 3.667271 0
M  V30 6 N 6.120908 1.032535 3.269538 0
M  V30 7 N 5.741708 1.480856 2.087000 0
M  V30 8 C 4.590475 0.886370 1.772824 0
M  V30 9 C 3.849359 1.118466 0.540674 0
M  V30 10 C 4.481379 1.652718 -0.563608 0
M  V30 11 C 3.824078 1.892033 -1.754881 0
M  V30 12 C 2.479709 1.585449 -1.848366 0
M  V30 13 C 1.849934 1.052292 -0.745643 0
M  V30 14 N 0.488112 0.659735 -0.598984 0
M  V30 15 C -0.662826 1.373447 -0.170284 0
M  V30 16 O -0.643019 2.580228 0.177689 0
M  V30 17 C -1.935688 0.664913 -0.132783 0
M  V30 18 C -3.114545 1.238929 0.260502 0
M  V30 19 C -4.057742 0.224823 0.145758 0
M  V30 20 C -5.409627 0.252652 0.414877 0
M  V30 21 C -6.169739 -0.887052 0.230172 0
M  V30 22 C -5.577299 -2.037779 -0.218987 0
M  V30 23 C -4.212951 -2.092668 -0.498497 0
M  V30 24 C -3.568195 -3.321045 -0.985932 0
M  V30 25 C -3.817743 -4.505831 -0.381128 0
M  V30 26 C -3.207379 -5.665853 -0.849028 0
M  V30 27 S -2.214906 -5.109017 -2.218836 0
M  V30 28 C -2.685642 -3.358074 -2.071560 0
M  V30 29 C -3.470083 -0.950226 -0.309483 0
M  V30 30 N -2.183872 -0.616320 -0.458618 0
M  V30 31 N 2.545206 0.844778 0.380155 0
M  V30 32 H 0.982073 -0.296472 3.425701 0
M  V30 33 H 2.209548 1.024992 3.704053 0
M  V30 34 H 2.146941 -0.397211 4.767675 0
M  V30 35 H 2.605300 -1.033222 1.841263 0
M  V30 36 H 3.517956 -2.874173 2.769724 0
M  V30 37 H 4.204140 -2.009936 4.252964 0
M  V30 38 H 2.498576 -2.461125 4.173933 0
M  V30 39 H 5.301163 -0.329268 4.618000 0
M  V30 40 H 5.539012 1.899156 -0.505507 0
M  V30 41 H 4.273790 2.308270 -2.646863 0
M  V30 42 H 1.826155 1.710960 -2.701889 0
M  V30 43 H 0.455303 -0.347189 -0.886206 0
M  V30 44 H -3.288338 2.249842 0.588450 0
M  V30 45 H -5.947471 1.125096 0.772465 0
M  V30 46 H -7.247081 -0.907171 0.432410 0
M  V30 47 H -6.125560 -2.961039 -0.381633 0
M  V30 48 H -4.462222 -4.694632 0.465265 0
M  V30 49 H -3.237410 -6.702756 -0.553316 0
M  V30 50 H -2.425638 -2.375899 -2.642334 0
M  V30 51 H -1.427441 -1.254430 -0.787930 0
M  V30 END ATOM
M  V30 BEGIN BOND
M  V30 1 1 1 2
M  V30 2 1 2 3
M  V30 3 1 2 4
M  V30 4 1 4 5
M  V30 5 2 5 6
M  V30 6 1 6 7
M  V30 7 2 7 8
M  V30 8 1 8 9
M  V30 9 2 9 10
M  V30 10 1 10 11
M  V30 11 2 11 12
M  V30 12 1 12 13
M  V30 13 1 13 14
M  V30 14 1 14 15
M  V30 15 2 15 16
M  V30 16 1 15 17
M  V30 17 2 17 18
M  V30 18 1 18 19
M  V30 19 2 19 20
M  V30 20 1 20 21
M  V30 21 2 21 22
M  V30 22 1 22 23
M  V30 23 1 23 24
M  V30 24 1 24 25
M  V30 25 2 25 26
M  V30 26 1 26 27
M  V30 27 1 27 28
M  V30 28 2 23 29
M  V30 29 1 29 30
M  V30 30 2 13 31
M  V30 31 1 8 4
M  V30 32 1 31 9
M  V30 33 1 30 17
M  V30 34 1 29 19
M  V30 35 2 28 24
M  V30 36 1 1 32
M  V30 37 1 1 33
M  V30 38 1 1 34
M  V30 39 1 2 35
M  V30 40 1 3 36
M  V30 41 1 3 37
M  V30 42 1 3 38
M  V30 43 1 5 39
M  V30 44 1 10 40
M  V30 45 1 11 41
M  V30 46 1 12 42
M  V30 47 1 14 43
M  V30 48 1 18 44
M  V30 49 1 20 45
M  V30 50 1 21 46
M  V30 51 1 22 47
M  V30 52 1 25 48
M  V30 53 1 26 49
M  V30 54 1 28 50
M  V30 55 1 30 51
M  V30 END BOND
M  V30 END CTAB
M  END
>  <Dataset>  (91) 
ChEMBL_Kinases

>  <Ligand_Instance>  (91) 
nan

>  <PDB_ID>  (91) 
nan

>  <Standardized_SMILES>  (91) 
CC(C)n1cnnc1-c1cccc(NC(=O)c2cc3cccc(-c4ccsc4)c3[nH]2)n1

>  <Name>  (91) 
nan

>  <Pocket>  (91) 
nan

>  <ATP_Site>  (91) 
nan

>  <Peripheral>  (91) 
nan

>  <Num_H_Atoms_ProtBoundConf>  (91) 
nan

>  <Num_Resolved_Atoms>  (91) 
nan

>  <Num_Not_Resolved_Atoms>  (91) 
nan

$$$$
CHEMBL4852364
     RDKit          3D

  0  0  0  0  0  0  0  0  0  0999 V3000
M  V30 BEGIN CTAB
M  V30 COUNTS 45 48 0 0 0
M  V30 BEGIN ATOM
M  V30 1 O -0.930236 -1.944281 0.832646 0
M  V30 2 C -0.423620 -3.016235 1.285723 0
M  V30 3 N 0.984360 -3.126919 1.141993 0
M  V30 4 C 1.608120 -2.013449 0.509758 0
M  V30 5 C 1.821538 -1.873738 -0.859520 0
M  V30 6 C 2.444800 -0.730189 -1.345068 0
M  V30 7 C 2.865855 0.289994 -0.490178 0
M  V30 8 O 3.451732 1.306302 -1.225003 0
M  V30 9 C 3.945753 2.470375 -0.676608 0
M  V30 10 C 5.306024 2.736555 -0.854486 0
M  V30 11 C 5.887451 3.874569 -0.342733 0
M  V30 12 N 5.140138 4.758982 0.346412 0
M  V30 13 C 3.816787 4.554382 0.550572 0
M  V30 14 N 2.860770 5.262618 1.187561 0
M  V30 15 C 1.710517 4.591481 1.080724 0
M  V30 16 C 1.923346 3.439321 0.368872 0
M  V30 17 C 3.242608 3.414694 0.036107 0
M  V30 18 C 2.651791 0.141570 0.844731 0
M  V30 19 C 2.033681 -0.991421 1.331146 0
M  V30 20 N -1.303083 -3.980504 1.880922 0
M  V30 21 C -2.715674 -3.677753 1.931400 0
M  V30 22 C -3.055444 -3.006229 3.102285 0
M  V30 23 C -4.373963 -2.637921 3.315292 0
M  V30 24 C -5.308824 -2.956044 2.345190 0
M  V30 25 C -4.945156 -3.631062 1.176604 0
M  V30 26 C -5.973115 -3.958339 0.153529 0
M  V30 27 F -7.216866 -4.164453 0.715599 0
M  V30 28 F -5.543066 -5.088201 -0.515878 0
M  V30 29 F -6.012673 -2.913863 -0.757748 0
M  V30 30 C -3.639370 -3.993446 0.970254 0
M  V30 31 H 1.406959 -4.012385 1.515662 0
M  V30 32 H 1.479014 -2.688601 -1.482571 0
M  V30 33 H 2.543183 -0.763089 -2.440955 0
M  V30 34 H 5.946221 2.057147 -1.399987 0
M  V30 35 H 6.940406 4.065611 -0.489022 0
M  V30 36 H 2.958637 6.170290 1.684228 0
M  V30 37 H 0.755512 4.876885 1.475005 0
M  V30 38 H 1.170232 2.681556 0.116435 0
M  V30 39 H 3.013893 0.980841 1.418961 0
M  V30 40 H 1.921053 -0.988254 2.421332 0
M  V30 41 H -0.799898 -4.835935 2.228549 0
M  V30 42 H -2.355460 -2.735978 3.890626 0
M  V30 43 H -4.764838 -2.114504 4.180120 0
M  V30 44 H -6.357157 -2.696820 2.449460 0
M  V30 45 H -3.283107 -4.506564 0.112205 0
M  V30 END ATOM
M  V30 BEGIN BOND
M  V30 1 2 1 2
M  V30 2 1 2 3
M  V30 3 1 3 4
M  V30 4 2 4 5
M  V30 5 1 5 6
M  V30 6 2 6 7
M  V30 7 1 7 8
M  V30 8 1 8 9
M  V30 9 2 9 10
M  V30 10 1 10 11
M  V30 11 2 11 12
M  V30 12 1 12 13
M  V30 13 1 13 14
M  V30 14 1 14 15
M  V30 15 2 15 16
M  V30 16 1 16 17
M  V30 17 1 7 18
M  V30 18 2 18 19
M  V30 19 1 2 20
M  V30 20 1 20 21
M  V30 21 2 21 22
M  V30 22 1 22 23
M  V30 23 2 23 24
M  V30 24 1 24 25
M  V30 25 1 25 26
M  V30 26 1 26 27
M  V30 27 1 26 28
M  V30 28 1 26 29
M  V30 29 2 25 30
M  V30 30 1 19 4
M  V30 31 1 30 21
M  V30 32 1 17 9
M  V30 33 2 17 13
M  V30 34 1 3 31
M  V30 35 1 5 32
M  V30 36 1 6 33
M  V30 37 1 10 34
M  V30 38 1 11 35
M  V30 39 1 14 36
M  V30 40 1 15 37
M  V30 41 1 16 38
M  V30 42 1 18 39
M  V30 43 1 19 40
M  V30 44 1 20 41
M  V30 45 1 22 42
M  V30 46 1 23 43
M  V30 47 1 24 44
M  V30 48 1 30 45
M  V30 END BOND
M  V30 END CTAB
M  END
>  <Dataset>  (92) 
ChEMBL_Kinases

>  <Ligand_Instance>  (92) 
nan

>  <PDB_ID>  (92) 
nan

>  <Standardized_SMILES>  (92) 
O=C(Nc1ccc(Oc2ccnc3[nH]ccc23)cc1)Nc1cccc(C(F)(F)F)c1

>  <Name>  (92) 
nan

>  <Pocket>  (92) 
nan

>  <ATP_Site>  (92) 
nan

>  <Peripheral>  (92) 
nan

>  <Num_H_Atoms_ProtBoundConf>  (92) 
nan

>  <Num_Resolved_Atoms>  (92) 
nan

>  <Num_Not_Resolved_Atoms>  (92) 
nan

$$$$
CHEMBL4852390
     RDKit          3D

  0  0  0  0  0  0  0  0  0  0999 V3000
M  V30 BEGIN CTAB
M  V30 COUNTS 39 42 0 0 0
M  V30 BEGIN ATOM
M  V30 1 O 0.269498 -1.633778 4.645759 0
M  V30 2 C 0.865946 -1.568144 3.536868 0
M  V30 3 N 1.937868 -2.332060 3.277506 0
M  V30 4 C 2.597058 -2.290153 2.111579 0
M  V30 5 C 2.214695 -1.450013 1.087454 0
M  V30 6 N 2.937229 -1.413704 -0.128488 0
M  V30 7 C 2.606516 -1.004376 -1.444682 0
M  V30 8 C 3.567629 -0.647911 -2.363361 0
M  V30 9 C 3.244858 -0.267894 -3.639255 0
M  V30 10 C 1.949501 -0.219359 -4.078377 0
M  V30 11 C 0.950928 -0.566015 -3.199990 0
M  V30 12 O -0.353327 -0.517628 -3.640696 0
M  V30 13 C 1.315400 -0.943075 -1.924919 0
M  V30 14 C 1.112018 -0.676043 1.378924 0
M  V30 15 C 0.417238 -0.700385 2.568261 0
M  V30 16 C -0.744927 0.148209 2.809492 0
M  V30 17 C -0.457901 1.388400 3.364122 0
M  V30 18 C -1.543953 2.221187 3.606409 0
M  V30 19 C -2.848101 1.840201 3.312274 0
M  V30 20 C -3.078427 0.591931 2.759992 0
M  V30 21 N -4.209061 -0.045359 2.374931 0
M  V30 22 C -3.903056 -1.267046 1.888494 0
M  V30 23 C -2.521717 -1.427898 1.960930 0
M  V30 24 C -2.027639 -0.264344 2.504166 0
M  V30 25 H 2.267273 -2.988807 4.027819 0
M  V30 26 H 3.470438 -2.936021 1.946497 0
M  V30 27 H 3.935592 -1.763723 -0.048771 0
M  V30 28 H 4.615807 -0.670819 -2.060062 0
M  V30 29 H 4.068325 0.001479 -4.311950 0
M  V30 30 H 1.707942 0.082517 -5.088056 0
M  V30 31 H -0.888744 0.326692 -3.625510 0
M  V30 32 H 0.468186 -1.208505 -1.308525 0
M  V30 33 H 0.731953 0.027275 0.652152 0
M  V30 34 H 0.550537 1.709300 3.602704 0
M  V30 35 H -1.360701 3.203232 4.041111 0
M  V30 36 H -3.647526 2.529421 3.522908 0
M  V30 37 H -5.168423 0.375483 2.455589 0
M  V30 38 H -4.556423 -2.015544 1.504892 0
M  V30 39 H -1.905545 -2.267526 1.667922 0
M  V30 END ATOM
M  V30 BEGIN BOND
M  V30 1 2 1 2
M  V30 2 1 2 3
M  V30 3 1 3 4
M  V30 4 2 4 5
M  V30 5 1 5 6
M  V30 6 1 6 7
M  V30 7 2 7 8
M  V30 8 1 8 9
M  V30 9 2 9 10
M  V30 10 1 10 11
M  V30 11 1 11 12
M  V30 12 2 11 13
M  V30 13 1 5 14
M  V30 14 2 14 15
M  V30 15 1 15 16
M  V30 16 2 16 17
M  V30 17 1 17 18
M  V30 18 2 18 19
M  V30 19 1 19 20
M  V30 20 1 20 21
M  V30 21 1 21 22
M  V30 22 2 22 23
M  V30 23 1 23 24
M  V30 24 1 15 2
M  V30 25 1 24 16
M  V30 26 1 13 7
M  V30 27 2 24 20
M  V30 28 1 3 25
M  V30 29 1 4 26
M  V30 30 1 6 27
M  V30 31 1 8 28
M  V30 32 1 9 29
M  V30 33 1 10 30
M  V30 34 1 12 31
M  V30 35 1 13 32
M  V30 36 1 14 33
M  V30 37 1 17 34
M  V30 38 1 18 35
M  V30 39 1 19 36
M  V30 40 1 21 37
M  V30 41 1 22 38
M  V30 42 1 23 39
M  V30 END BOND
M  V30 END CTAB
M  END
>  <Dataset>  (93) 
ChEMBL_Kinases

>  <Ligand_Instance>  (93) 
nan

>  <PDB_ID>  (93) 
nan

>  <Standardized_SMILES>  (93) 
O=c1[nH]cc(Nc2cccc(O)c2)cc1-c1cccc2[nH]ccc12

>  <Name>  (93) 
nan

>  <Pocket>  (93) 
nan

>  <ATP_Site>  (93) 
nan

>  <Peripheral>  (93) 
nan

>  <Num_H_Atoms_ProtBoundConf>  (93) 
nan

>  <Num_Resolved_Atoms>  (93) 
nan

>  <Num_Not_Resolved_Atoms>  (93) 
nan

$$$$
CHEMBL4852454
     RDKit          3D

  0  0  0  0  0  0  0  0  0  0999 V3000
M  V30 BEGIN CTAB
M  V30 COUNTS 31 33 0 0 0
M  V30 BEGIN ATOM
M  V30 1 C -2.767773 -2.095774 2.722254 0
M  V30 2 N -1.731971 -3.030859 2.300816 0
M  V30 3 C -1.724945 -4.406124 2.758824 0
M  V30 4 C -0.715990 -2.560512 1.420304 0
M  V30 5 C -0.747040 -1.243994 0.998951 0
M  V30 6 C 0.249917 -0.787242 0.136555 0
M  V30 7 C 0.272128 0.589828 -0.343102 0
M  V30 8 C -0.846252 1.266614 -0.812278 0
M  V30 9 N -0.430321 2.489879 -1.156487 0
M  V30 10 N 0.875173 2.612263 -0.929678 0
M  V30 11 N 1.710482 3.637841 -1.117702 0
M  V30 12 C 3.020687 3.525870 -0.807525 0
M  V30 13 C 3.548024 2.368489 -0.291516 0
M  V30 14 C 2.675866 1.311772 -0.100162 0
M  V30 15 C 1.350249 1.461551 -0.426814 0
M  V30 16 C 1.227743 -1.693696 -0.253100 0
M  V30 17 C 1.225345 -2.993110 0.186266 0
M  V30 18 N 0.249583 -3.390874 1.013732 0
M  V30 19 H -3.187672 -1.611693 1.795391 0
M  V30 20 H -3.617421 -2.611166 3.194962 0
M  V30 21 H -2.374945 -1.275864 3.347486 0
M  V30 22 H -2.381155 -4.458194 3.650235 0
M  V30 23 H -2.122401 -5.039030 1.946903 0
M  V30 24 H -0.698334 -4.758508 2.975653 0
M  V30 25 H -1.505649 -0.538097 1.300347 0
M  V30 26 H -1.839505 0.865133 -0.876389 0
M  V30 27 H 3.752267 4.327440 -0.938200 0
M  V30 28 H 4.599407 2.225857 -0.024048 0
M  V30 29 H 3.046288 0.386413 0.301801 0
M  V30 30 H 2.032866 -1.414028 -0.919497 0
M  V30 31 H 2.009986 -3.684497 -0.138520 0
M  V30 END ATOM
M  V30 BEGIN BOND
M  V30 1 1 1 2
M  V30 2 1 2 3
M  V30 3 1 2 4
M  V30 4 2 4 5
M  V30 5 1 5 6
M  V30 6 1 6 7
M  V30 7 1 7 8
M  V30 8 2 8 9
M  V30 9 1 9 10
M  V30 10 1 10 11
M  V30 11 2 11 12
M  V30 12 1 12 13
M  V30 13 2 13 14
M  V30 14 1 14 15
M  V30 15 2 6 16
M  V30 16 1 16 17
M  V30 17 2 17 18
M  V30 18 1 18 4
M  V30 19 2 15 7
M  V30 20 1 15 10
M  V30 21 1 1 19
M  V30 22 1 1 20
M  V30 23 1 1 21
M  V30 24 1 3 22
M  V30 25 1 3 23
M  V30 26 1 3 24
M  V30 27 1 5 25
M  V30 28 1 8 26
M  V30 29 1 12 27
M  V30 30 1 13 28
M  V30 31 1 14 29
M  V30 32 1 16 30
M  V30 33 1 17 31
M  V30 END BOND
M  V30 END CTAB
M  END
>  <Dataset>  (94) 
ChEMBL_Kinases

>  <Ligand_Instance>  (94) 
nan

>  <PDB_ID>  (94) 
nan

>  <Standardized_SMILES>  (94) 
CN(C)c1cc(-c2cnn3ncccc23)ccn1

>  <Name>  (94) 
nan

>  <Pocket>  (94) 
nan

>  <ATP_Site>  (94) 
nan

>  <Peripheral>  (94) 
nan

>  <Num_H_Atoms_ProtBoundConf>  (94) 
nan

>  <Num_Resolved_Atoms>  (94) 
nan

>  <Num_Not_Resolved_Atoms>  (94) 
nan

$$$$
CHEMBL4852535
     RDKit          3D

  0  0  0  0  0  0  0  0  0  0999 V3000
M  V30 BEGIN CTAB
M  V30 COUNTS 49 50 0 0 0
M  V30 BEGIN ATOM
M  V30 1 N 3.927251 -6.371388 4.214874 0
M  V30 2 C 3.758519 -5.602475 3.369466 0
M  V30 3 C 3.551352 -4.647895 2.310531 0
M  V30 4 C 3.029835 -3.399913 2.537765 0
M  V30 5 C 2.872314 -2.566964 1.460886 0
M  V30 6 C 3.191275 -2.866610 0.156102 0
M  V30 7 N 3.022430 -2.014950 -0.957579 0
M  V30 8 C 2.435230 -0.725132 -1.014078 0
M  V30 9 N 2.390353 -0.063512 -2.169235 0
M  V30 10 C 1.869162 1.136023 -2.345054 0
M  V30 11 C 1.325799 1.756741 -1.243744 0
M  V30 12 C 0.722629 3.107405 -1.370406 0
M  V30 13 F 0.823572 3.531897 -2.679732 0
M  V30 14 F 1.393854 4.041649 -0.603506 0
M  V30 15 F -0.634893 3.068816 -1.056898 0
M  V30 16 C 1.333953 1.131495 -0.003646 0
M  V30 17 N 0.774293 1.790713 1.117501 0
M  V30 18 C 0.689353 1.303602 2.463895 0
M  V30 19 C -0.176594 0.061207 2.527683 0
M  V30 20 C -1.574276 0.329716 2.043209 0
M  V30 21 N -2.321442 -0.909423 2.151633 0
M  V30 22 C -3.682516 -0.776781 1.717866 0
M  V30 23 C -3.838576 -0.543962 0.230502 0
M  V30 24 O -3.303987 -1.602095 -0.503126 0
M  V30 25 C -5.322585 -0.488986 -0.062605 0
M  V30 26 O -5.595720 -0.289082 -1.413411 0
M  V30 27 N 1.891586 -0.071789 0.021312 0
M  V30 28 C 3.708667 -4.135491 0.009492 0
M  V30 29 N 3.879642 -4.982202 1.034438 0
M  V30 30 H 2.762429 -3.112148 3.538197 0
M  V30 31 H 2.464204 -1.599755 1.697905 0
M  V30 32 H 3.387673 -2.402527 -1.867586 0
M  V30 33 H 1.853571 1.637845 -3.299416 0
M  V30 34 H 0.366670 2.744244 0.980790 0
M  V30 35 H 0.380156 2.063846 3.194105 0
M  V30 36 H 1.747875 1.016920 2.744826 0
M  V30 37 H -0.199152 -0.233395 3.609783 0
M  V30 38 H 0.250799 -0.751390 1.913487 0
M  V30 39 H -1.618631 0.771566 1.049724 0
M  V30 40 H -2.038442 1.057153 2.761350 0
M  V30 41 H -2.333028 -1.268997 3.115783 0
M  V30 42 H -4.184453 0.098380 2.211011 0
M  V30 43 H -4.244094 -1.670336 2.008624 0
M  V30 44 H -3.344488 0.371363 -0.121084 0
M  V30 45 H -2.464409 -1.971786 -0.099680 0
M  V30 46 H -5.739777 -1.468034 0.234956 0
M  V30 47 H -5.824280 0.264386 0.578156 0
M  V30 48 H -4.775602 -0.356784 -1.967956 0
M  V30 49 H 4.005399 -4.498618 -0.981509 0
M  V30 END ATOM
M  V30 BEGIN BOND
M  V30 1 3 1 2
M  V30 2 1 2 3
M  V30 3 2 3 4
M  V30 4 1 4 5
M  V30 5 2 5 6
M  V30 6 1 6 7
M  V30 7 1 7 8
M  V30 8 2 8 9
M  V30 9 1 9 10
M  V30 10 2 10 11
M  V30 11 1 11 12
M  V30 12 1 12 13
M  V30 13 1 12 14
M  V30 14 1 12 15
M  V30 15 1 11 16
M  V30 16 1 16 17
M  V30 17 1 17 18
M  V30 18 1 18 19
M  V30 19 1 19 20
M  V30 20 1 20 21
M  V30 21 1 21 22
M  V30 22 1 22 23
M  V30 23 1 23 24
M  V30 24 1 23 25
M  V30 25 1 25 26
M  V30 26 2 16 27
M  V30 27 1 6 28
M  V30 28 2 28 29
M  V30 29 1 29 3
M  V30 30 1 27 8
M  V30 31 1 4 30
M  V30 32 1 5 31
M  V30 33 1 7 32
M  V30 34 1 10 33
M  V30 35 1 17 34
M  V30 36 1 18 35
M  V30 37 1 18 36
M  V30 38 1 19 37
M  V30 39 1 19 38
M  V30 40 1 20 39
M  V30 41 1 20 40
M  V30 42 1 21 41
M  V30 43 1 22 42
M  V30 44 1 22 43
M  V30 45 1 23 44
M  V30 46 1 24 45
M  V30 47 1 25 46
M  V30 48 1 25 47
M  V30 49 1 26 48
M  V30 50 1 28 49
M  V30 END BOND
M  V30 END CTAB
M  END
>  <Dataset>  (95) 
ChEMBL_Kinases

>  <Ligand_Instance>  (95) 
nan

>  <PDB_ID>  (95) 
nan

>  <Standardized_SMILES>  (95) 
N#Cc1ccc(Nc2ncc(C(F)(F)F)c(NCCCNCC(O)CO)n2)cn1

>  <Name>  (95) 
nan

>  <Pocket>  (95) 
nan

>  <ATP_Site>  (95) 
nan

>  <Peripheral>  (95) 
nan

>  <Num_H_Atoms_ProtBoundConf>  (95) 
nan

>  <Num_Resolved_Atoms>  (95) 
nan

>  <Num_Not_Resolved_Atoms>  (95) 
nan

$$$$
CHEMBL4852557
     RDKit          3D

  0  0  0  0  0  0  0  0  0  0999 V3000
M  V30 BEGIN CTAB
M  V30 COUNTS 67 71 0 0 0
M  V30 BEGIN ATOM
M  V30 1 C 4.818268 1.530254 5.362354 0
M  V30 2 C 3.381435 1.717944 4.879392 0
M  V30 3 C 3.044867 3.167745 5.148008 0
M  V30 4 C 3.377454 1.342498 3.433037 0
M  V30 5 O 4.232207 2.148060 2.674257 0
M  V30 6 C 3.798206 2.659618 1.452826 0
M  V30 7 O 4.546613 3.388523 0.714213 0
M  V30 8 N 2.507604 2.438603 0.896706 0
M  V30 9 C 2.066388 2.970831 -0.345591 0
M  V30 10 C 1.737042 1.929177 -1.390297 0
M  V30 11 C 0.632979 2.502381 -2.240947 0
M  V30 12 C 0.024802 3.631239 -1.476659 0
M  V30 13 C 0.866902 3.874242 -0.249685 0
M  V30 14 C 1.575201 1.635935 1.627637 0
M  V30 15 N 0.313874 1.355259 1.211471 0
M  V30 16 C -0.524614 0.603457 1.937535 0
M  V30 17 N -1.762475 0.463754 1.257641 0
M  V30 18 C -1.991279 -0.750384 0.542757 0
M  V30 19 C -1.088647 -1.765325 0.628768 0
M  V30 20 C -1.225764 -2.968101 -0.020655 0
M  V30 21 C -2.311824 -3.199971 -0.806008 0
M  V30 22 N -2.533492 -4.442724 -1.511849 0
M  V30 23 C -3.589228 -4.443436 -2.502893 0
M  V30 24 C -3.433518 -5.708460 -3.291767 0
M  V30 25 N -3.389693 -6.863777 -2.465669 0
M  V30 26 C -4.692907 -7.266673 -2.003638 0
M  V30 27 C -2.393941 -6.906805 -1.461089 0
M  V30 28 C -1.725884 -5.602978 -1.212079 0
M  V30 29 C -3.255923 -2.168850 -0.910898 0
M  V30 30 C -3.090795 -0.973328 -0.247200 0
M  V30 31 N -0.108061 0.103900 3.126246 0
M  V30 32 C 1.152872 0.366677 3.573392 0
M  V30 33 C 2.037232 1.139642 2.842319 0
M  V30 34 H 4.860635 1.726792 6.441636 0
M  V30 35 H 5.533851 2.174322 4.827445 0
M  V30 36 H 5.070444 0.448369 5.207871 0
M  V30 37 H 2.732248 1.088759 5.481230 0
M  V30 38 H 3.842023 3.872663 4.782652 0
M  V30 39 H 3.070082 3.274803 6.269059 0
M  V30 40 H 2.035964 3.465810 4.830967 0
M  V30 41 H 3.856301 0.307597 3.400898 0
M  V30 42 H 2.901382 3.574275 -0.771668 0
M  V30 43 H 1.470005 0.956209 -0.932296 0
M  V30 44 H 2.596134 1.718024 -2.074865 0
M  V30 45 H 0.996005 2.783693 -3.254613 0
M  V30 46 H -0.151171 1.715107 -2.416250 0
M  V30 47 H -1.047194 3.464343 -1.254728 0
M  V30 48 H 0.012107 4.517874 -2.176831 0
M  V30 49 H 0.306587 3.795547 0.703858 0
M  V30 50 H 1.172275 4.952887 -0.298092 0
M  V30 51 H -2.548776 1.165769 1.214922 0
M  V30 52 H -0.187745 -1.639491 1.246932 0
M  V30 53 H -0.463946 -3.722635 0.097162 0
M  V30 54 H -4.576044 -4.284815 -2.072105 0
M  V30 55 H -3.370500 -3.551573 -3.155730 0
M  V30 56 H -4.304451 -5.801160 -3.981996 0
M  V30 57 H -2.505594 -5.626728 -3.898647 0
M  V30 58 H -5.404200 -7.334544 -2.863875 0
M  V30 59 H -4.600772 -8.313110 -1.624843 0
M  V30 60 H -5.037250 -6.569667 -1.227953 0
M  V30 61 H -2.839297 -7.222510 -0.472671 0
M  V30 62 H -1.615388 -7.681949 -1.717754 0
M  V30 63 H -1.326178 -5.541342 -0.153435 0
M  V30 64 H -0.831811 -5.560615 -1.904604 0
M  V30 65 H -4.155152 -2.280820 -1.524667 0
M  V30 66 H -3.830687 -0.182873 -0.339852 0
M  V30 67 H 1.354969 -0.098157 4.545979 0
M  V30 END ATOM
M  V30 BEGIN BOND
M  V30 1 1 1 2
M  V30 2 1 2 3
M  V30 3 1 2 4
M  V30 4 1 4 5
M  V30 5 1 5 6
M  V30 6 2 6 7
M  V30 7 1 6 8
M  V30 8 1 8 9
M  V30 9 1 9 10
M  V30 10 1 10 11
M  V30 11 1 11 12
M  V30 12 1 12 13
M  V30 13 1 8 14
M  V30 14 2 14 15
M  V30 15 1 15 16
M  V30 16 1 16 17
M  V30 17 1 17 18
M  V30 18 2 18 19
M  V30 19 1 19 20
M  V30 20 2 20 21
M  V30 21 1 21 22
M  V30 22 1 22 23
M  V30 23 1 23 24
M  V30 24 1 24 25
M  V30 25 1 25 26
M  V30 26 1 25 27
M  V30 27 1 27 28
M  V30 28 1 21 29
M  V30 29 2 29 30
M  V30 30 2 16 31
M  V30 31 1 31 32
M  V30 32 2 32 33
M  V30 33 1 33 4
M  V30 34 1 13 9
M  V30 35 1 33 14
M  V30 36 1 30 18
M  V30 37 1 28 22
M  V30 38 1 1 34
M  V30 39 1 1 35
M  V30 40 1 1 36
M  V30 41 1 2 37
M  V30 42 1 3 38
M  V30 43 1 3 39
M  V30 44 1 3 40
M  V30 45 1 4 41
M  V30 46 1 9 42
M  V30 47 1 10 43
M  V30 48 1 10 44
M  V30 49 1 11 45
M  V30 50 1 11 46
M  V30 51 1 12 47
M  V30 52 1 12 48
M  V30 53 1 13 49
M  V30 54 1 13 50
M  V30 55 1 17 51
M  V30 56 1 19 52
M  V30 57 1 20 53
M  V30 58 1 23 54
M  V30 59 1 23 55
M  V30 60 1 24 56
M  V30 61 1 24 57
M  V30 62 1 26 58
M  V30 63 1 26 59
M  V30 64 1 26 60
M  V30 65 1 27 61
M  V30 66 1 27 62
M  V30 67 1 28 63
M  V30 68 1 28 64
M  V30 69 1 29 65
M  V30 70 1 30 66
M  V30 71 1 32 67
M  V30 END BOND
M  V30 END CTAB
M  END
>  <Dataset>  (96) 
ChEMBL_Kinases

>  <Ligand_Instance>  (96) 
nan

>  <PDB_ID>  (96) 
nan

>  <Standardized_SMILES>  (96) 
CC(C)C1OC(=O)N(C2CCCC2)c2nc(Nc3ccc(N4CCN(C)CC4)cc3)ncc21

>  <Name>  (96) 
nan

>  <Pocket>  (96) 
nan

>  <ATP_Site>  (96) 
nan

>  <Peripheral>  (96) 
nan

>  <Num_H_Atoms_ProtBoundConf>  (96) 
nan

>  <Num_Resolved_Atoms>  (96) 
nan

>  <Num_Not_Resolved_Atoms>  (96) 
nan

$$$$
CHEMBL4084465
     RDKit          3D

  0  0  0  0  0  0  0  0  0  0999 V3000
M  V30 BEGIN CTAB
M  V30 COUNTS 66 70 0 0 0
M  V30 BEGIN ATOM
M  V30 1 O -1.963909 -2.021942 3.479170 0
M  V30 2 C -0.807571 -1.581059 3.614668 0
M  V30 3 C 0.391251 -2.398213 4.016537 0
M  V30 4 C 0.629191 -3.325127 2.870066 0
M  V30 5 C 1.632594 -2.875829 2.006718 0
M  V30 6 C 2.044026 -3.523539 0.844763 0
M  V30 7 C 3.103043 -2.883925 0.008918 0 CFG=2
M  V30 8 C 4.336951 -2.515760 0.735605 0
M  V30 9 C 4.860120 -1.144688 0.427461 0
M  V30 10 N 4.720939 -0.739922 -0.926088 0
M  V30 11 C 3.504831 -1.116625 -1.589543 0
M  V30 12 C 2.517150 -1.562500 -0.567267 0 CFG=1
M  V30 13 C 1.128445 -1.832428 -1.079111 0
M  V30 14 O 0.444550 -0.749371 -1.616430 0
M  V30 15 C -0.875324 -0.935738 -2.113355 0
M  V30 16 C -1.506599 -2.156096 -2.082727 0
M  V30 17 C -2.787236 -2.263410 -2.578559 0
M  V30 18 C -3.376927 -1.128793 -3.086297 0
M  V30 19 C -2.776539 0.104489 -3.132555 0
M  V30 20 C -1.481941 0.212113 -2.630998 0
M  V30 21 O -3.708452 0.975417 -3.716703 0
M  V30 22 C -4.738115 0.221461 -4.324697 0
M  V30 23 O -4.647762 -1.013821 -3.631569 0
M  V30 24 C 1.388405 -4.699626 0.556417 0
M  V30 25 C 0.396709 -5.159920 1.395035 0
M  V30 26 C 0.002233 -4.502517 2.540283 0
M  V30 27 F -0.951808 -4.878153 3.409854 0
M  V30 28 N -0.580646 -0.192182 3.369149 0
M  V30 29 C -1.611487 0.772323 2.965868 0
M  V30 30 C -0.943677 2.094363 2.791335 0
M  V30 31 C -1.825323 3.197541 2.368320 0
M  V30 32 C -2.503991 4.054850 3.199001 0
M  V30 33 C -3.305983 5.079193 2.735690 0
M  V30 34 C -3.398511 5.209003 1.347079 0
M  V30 35 C -2.727268 4.360280 0.501111 0
M  V30 36 N -1.962219 3.381714 1.032254 0
M  V30 37 H 1.248816 -1.769058 4.244737 0
M  V30 38 H 0.128669 -3.050839 4.881989 0
M  V30 39 H 2.167092 -1.944804 2.213420 0
M  V30 40 H 3.344263 -3.533303 -0.845840 0
M  V30 41 H 4.117397 -2.518774 1.839390 0
M  V30 42 H 5.155762 -3.280001 0.640837 0
M  V30 43 H 5.955675 -1.153131 0.666509 0
M  V30 44 H 4.426077 -0.391082 1.129639 0
M  V30 45 H 4.746426 0.321752 -0.918332 0
M  V30 46 H 3.774008 -1.989812 -2.243962 0
M  V30 47 H 3.116842 -0.343069 -2.284337 0
M  V30 48 H 2.490357 -0.806963 0.239566 0
M  V30 49 H 0.521118 -2.297881 -0.277412 0
M  V30 50 H 1.172526 -2.611143 -1.903745 0
M  V30 51 H -0.917865 -2.953118 -1.654177 0
M  V30 52 H -3.215226 -3.248533 -2.521167 0
M  V30 53 H -1.008929 1.188584 -2.670466 0
M  V30 54 H -5.717554 0.713607 -4.132704 0
M  V30 55 H -4.481889 0.126767 -5.383503 0
M  V30 56 H 1.687405 -5.221940 -0.339962 0
M  V30 57 H -0.124401 -6.080770 1.172089 0
M  V30 58 H 0.412275 0.151259 3.490373 0
M  V30 59 H -2.391533 0.800652 3.735952 0
M  V30 60 H -2.082752 0.399154 2.040675 0
M  V30 61 H -0.480190 2.393510 3.775970 0
M  V30 62 H -0.106172 2.001768 2.043585 0
M  V30 63 H -2.397886 3.914145 4.254115 0
M  V30 64 H -3.849192 5.767446 3.338212 0
M  V30 65 H -3.983216 5.952319 0.822958 0
M  V30 66 H -2.770272 4.427389 -0.576573 0
M  V30 END ATOM
M  V30 BEGIN BOND
M  V30 1 2 1 2
M  V30 2 1 2 3
M  V30 3 1 3 4
M  V30 4 2 4 5
M  V30 5 1 5 6
M  V30 6 1 6 7
M  V30 7 1 7 8
M  V30 8 1 8 9
M  V30 9 1 9 10
M  V30 10 1 10 11
M  V30 11 1 11 12
M  V30 12 1 12 13
M  V30 13 1 13 14
M  V30 14 1 14 15
M  V30 15 2 15 16
M  V30 16 1 16 17
M  V30 17 2 17 18
M  V30 18 1 18 19
M  V30 19 2 19 20
M  V30 20 1 19 21
M  V30 21 1 21 22
M  V30 22 1 22 23
M  V30 23 2 6 24
M  V30 24 1 24 25
M  V30 25 2 25 26
M  V30 26 1 26 27
M  V30 27 1 2 28
M  V30 28 1 28 29
M  V30 29 1 29 30
M  V30 30 1 30 31
M  V30 31 2 31 32
M  V30 32 1 32 33
M  V30 33 2 33 34
M  V30 34 1 34 35
M  V30 35 2 35 36
M  V30 36 1 26 4
M  V30 37 1 36 31
M  V30 38 1 12 7
M  V30 39 1 20 15
M  V30 40 1 23 18
M  V30 41 1 3 37
M  V30 42 1 3 38
M  V30 43 1 5 39
M  V30 44 1 7 40 CFG=3
M  V30 45 1 8 41
M  V30 46 1 8 42
M  V30 47 1 9 43
M  V30 48 1 9 44
M  V30 49 1 10 45
M  V30 50 1 11 46
M  V30 51 1 11 47
M  V30 52 1 12 48 CFG=1
M  V30 53 1 13 49
M  V30 54 1 13 50
M  V30 55 1 16 51
M  V30 56 1 17 52
M  V30 57 1 20 53
M  V30 58 1 22 54
M  V30 59 1 22 55
M  V30 60 1 24 56
M  V30 61 1 25 57
M  V30 62 1 28 58
M  V30 63 1 29 59
M  V30 64 1 29 60
M  V30 65 1 30 61
M  V30 66 1 30 62
M  V30 67 1 32 63
M  V30 68 1 33 64
M  V30 69 1 34 65
M  V30 70 1 35 66
M  V30 END BOND
M  V30 END CTAB
M  END
>  <Dataset>  (97) 
ChEMBL_Kinases

>  <Ligand_Instance>  (97) 
nan

>  <PDB_ID>  (97) 
nan

>  <Standardized_SMILES>  (97) 
O=C(Cc1cc([C@@H]2CCNC[C@H]2COc2ccc3c(c2)OCO3)ccc1F)NCCc1ccccn1

>  <Name>  (97) 
nan

>  <Pocket>  (97) 
nan

>  <ATP_Site>  (97) 
nan

>  <Peripheral>  (97) 
nan

>  <Num_H_Atoms_ProtBoundConf>  (97) 
nan

>  <Num_Resolved_Atoms>  (97) 
nan

>  <Num_Not_Resolved_Atoms>  (97) 
nan

$$$$
CHEMBL4852601
     RDKit          3D

  0  0  0  0  0  0  0  0  0  0999 V3000
M  V30 BEGIN CTAB
M  V30 COUNTS 43 44 0 0 0
M  V30 BEGIN ATOM
M  V30 1 C -1.415259 -4.596838 2.206290 0
M  V30 2 O -0.940653 -3.607742 3.081751 0
M  V30 3 C -0.092077 -2.580386 2.746608 0
M  V30 4 C 0.469065 -2.296806 1.509937 0
M  V30 5 C 1.310783 -1.208464 1.355135 0
M  V30 6 N 1.803374 -1.063325 0.003125 0
M  V30 7 C 0.909256 -0.229449 -0.780217 0
M  V30 8 O 0.046182 0.005658 0.144716 0
M  V30 9 C 1.225610 0.047793 -2.190513 0 CFG=2
M  V30 10 N 2.394637 -0.810572 -2.516598 0
M  V30 11 C 1.663303 1.410356 -2.508752 0
M  V30 12 C 0.847089 2.591958 -2.275952 0
M  V30 13 C 0.460914 2.851096 -0.842583 0
M  V30 14 C -0.400543 2.734327 -3.094156 0
M  V30 15 C 1.630362 -0.363318 2.404081 0
M  V30 16 C 1.071835 -0.644560 3.637612 0
M  V30 17 C 0.226119 -1.730918 3.811481 0
M  V30 18 N -0.291376 -1.925250 5.124196 0
M  V30 19 C -1.609703 -2.220880 5.323791 0
M  V30 20 N -1.883598 -2.362490 6.629806 0
M  V30 21 C -0.702727 -2.149151 7.262618 0
M  V30 22 N 0.252625 -1.884659 6.325461 0
M  V30 23 H -0.674155 -4.921762 1.450613 0
M  V30 24 H -1.760677 -5.481707 2.811656 0
M  V30 25 H -2.300390 -4.226813 1.626350 0
M  V30 26 H 0.189339 -2.984025 0.726535 0
M  V30 27 H 2.693921 -1.499524 -0.380138 0
M  V30 28 H 0.456634 -0.370321 -2.885449 0
M  V30 29 H 2.070623 -1.790803 -2.328318 0
M  V30 30 H 2.503137 -0.745105 -3.560210 0
M  V30 31 H 2.062284 1.373506 -3.575321 0
M  V30 32 H 2.636171 1.561293 -1.931389 0
M  V30 33 H 1.482930 3.488217 -2.561134 0
M  V30 34 H 0.438813 3.950371 -0.616880 0
M  V30 35 H -0.571134 2.516547 -0.613887 0
M  V30 36 H 1.188488 2.429908 -0.133476 0
M  V30 37 H -1.224287 3.228822 -2.536998 0
M  V30 38 H -0.247281 3.358270 -4.000718 0
M  V30 39 H -0.809649 1.779274 -3.464826 0
M  V30 40 H 2.296989 0.458467 2.178480 0
M  V30 41 H 1.322103 0.012953 4.447952 0
M  V30 42 H -2.373804 -2.337129 4.570633 0
M  V30 43 H -0.380307 -2.146203 8.307477 0
M  V30 END ATOM
M  V30 BEGIN BOND
M  V30 1 1 1 2
M  V30 2 1 2 3
M  V30 3 2 3 4
M  V30 4 1 4 5
M  V30 5 1 5 6
M  V30 6 1 6 7
M  V30 7 2 7 8
M  V30 8 1 7 9
M  V30 9 1 9 10
M  V30 10 1 9 11
M  V30 11 1 11 12
M  V30 12 1 12 13
M  V30 13 1 12 14
M  V30 14 2 5 15
M  V30 15 1 15 16
M  V30 16 2 16 17
M  V30 17 1 17 18
M  V30 18 1 18 19
M  V30 19 2 19 20
M  V30 20 1 20 21
M  V30 21 2 21 22
M  V30 22 1 17 3
M  V30 23 1 22 18
M  V30 24 1 1 23
M  V30 25 1 1 24
M  V30 26 1 1 25
M  V30 27 1 4 26
M  V30 28 1 6 27
M  V30 29 1 9 28 CFG=3
M  V30 30 1 10 29
M  V30 31 1 10 30
M  V30 32 1 11 31
M  V30 33 1 11 32
M  V30 34 1 12 33
M  V30 35 1 13 34
M  V30 36 1 13 35
M  V30 37 1 13 36
M  V30 38 1 14 37
M  V30 39 1 14 38
M  V30 40 1 14 39
M  V30 41 1 15 40
M  V30 42 1 16 41
M  V30 43 1 19 42
M  V30 44 1 21 43
M  V30 END BOND
M  V30 END CTAB
M  END
>  <Dataset>  (98) 
ChEMBL_Kinases

>  <Ligand_Instance>  (98) 
nan

>  <PDB_ID>  (98) 
nan

>  <Standardized_SMILES>  (98) 
COc1cc(NC(=O)[C@H](N)CC(C)C)ccc1-n1cncn1

>  <Name>  (98) 
nan

>  <Pocket>  (98) 
nan

>  <ATP_Site>  (98) 
nan

>  <Peripheral>  (98) 
nan

>  <Num_H_Atoms_ProtBoundConf>  (98) 
nan

>  <Num_Resolved_Atoms>  (98) 
nan

>  <Num_Not_Resolved_Atoms>  (98) 
nan

$$$$
CHEMBL4852650
     RDKit          3D

  0  0  0  0  0  0  0  0  0  0999 V3000
M  V30 BEGIN CTAB
M  V30 COUNTS 39 41 0 0 0
M  V30 BEGIN ATOM
M  V30 1 C 2.648099 -2.435103 -1.760936 0
M  V30 2 N 1.559436 -2.156316 -0.805043 0
M  V30 3 C 0.596332 -3.195265 -0.993909 0
M  V30 4 C -0.107472 -3.198625 -2.303957 0
M  V30 5 C -0.920058 -2.001474 -2.639093 0
M  V30 6 C -2.060676 -1.705003 -1.727704 0
M  V30 7 F -2.913773 -2.798713 -1.757642 0
M  V30 8 F -1.757139 -1.341215 -0.462102 0
M  V30 9 F -2.765803 -0.647459 -2.307017 0
M  V30 10 C 1.705631 -1.014236 0.024861 0
M  V30 11 N 2.798209 -0.266635 -0.176136 0
M  V30 12 C 2.993655 0.827345 0.591715 0
M  V30 13 C 2.035052 1.090658 1.537431 0
M  V30 14 C 0.920321 0.385284 1.790686 0
M  V30 15 C -0.142716 0.565046 2.744495 0
M  V30 16 C -1.228244 -0.322702 2.783272 0
M  V30 17 N -2.072722 0.059700 3.754214 0
M  V30 18 N -1.626543 1.138276 4.364120 0
M  V30 19 N -2.116868 1.850334 5.360131 0
M  V30 20 C -1.427464 2.918830 5.781013 0
M  V30 21 C -0.211180 3.302386 5.201751 0
M  V30 22 C 0.229861 2.508554 4.170874 0
M  V30 23 C -0.472852 1.430085 3.751577 0
M  V30 24 N 0.852028 -0.659389 0.967962 0
M  V30 25 H 3.503228 -1.713787 -1.614673 0
M  V30 26 H 2.321764 -2.366523 -2.796409 0
M  V30 27 H 3.089741 -3.415640 -1.465941 0
M  V30 28 H 1.090753 -4.188855 -0.885425 0
M  V30 29 H -0.170759 -3.176002 -0.173124 0
M  V30 30 H 0.590225 -3.381922 -3.153350 0
M  V30 31 H -0.803244 -4.074496 -2.296128 0
M  V30 32 H -1.386306 -2.215687 -3.646102 0
M  V30 33 H -0.289014 -1.094061 -2.851993 0
M  V30 34 H 3.858722 1.453643 0.460893 0
M  V30 35 H 2.236472 1.967266 2.115255 0
M  V30 36 H -1.494286 -1.200346 2.213776 0
M  V30 37 H -1.896970 3.453687 6.605431 0
M  V30 38 H 0.280453 4.163708 5.589449 0
M  V30 39 H 1.141071 2.813851 3.753890 0
M  V30 END ATOM
M  V30 BEGIN BOND
M  V30 1 1 1 2
M  V30 2 1 2 3
M  V30 3 1 3 4
M  V30 4 1 4 5
M  V30 5 1 5 6
M  V30 6 1 6 7
M  V30 7 1 6 8
M  V30 8 1 6 9
M  V30 9 1 2 10
M  V30 10 2 10 11
M  V30 11 1 11 12
M  V30 12 2 12 13
M  V30 13 1 13 14
M  V30 14 1 14 15
M  V30 15 1 15 16
M  V30 16 2 16 17
M  V30 17 1 17 18
M  V30 18 1 18 19
M  V30 19 2 19 20
M  V30 20 1 20 21
M  V30 21 2 21 22
M  V30 22 1 22 23
M  V30 23 2 14 24
M  V30 24 1 24 10
M  V30 25 2 23 15
M  V30 26 1 23 18
M  V30 27 1 1 25
M  V30 28 1 1 26
M  V30 29 1 1 27
M  V30 30 1 3 28
M  V30 31 1 3 29
M  V30 32 1 4 30
M  V30 33 1 4 31
M  V30 34 1 5 32
M  V30 35 1 5 33
M  V30 36 1 12 34
M  V30 37 1 13 35
M  V30 38 1 16 36
M  V30 39 1 20 37
M  V30 40 1 21 38
M  V30 41 1 22 39
M  V30 END BOND
M  V30 END CTAB
M  END
>  <Dataset>  (99) 
ChEMBL_Kinases

>  <Ligand_Instance>  (99) 
nan

>  <PDB_ID>  (99) 
nan

>  <Standardized_SMILES>  (99) 
CN(CCCC(F)(F)F)c1nccc(-c2cnn3ncccc23)n1

>  <Name>  (99) 
nan

>  <Pocket>  (99) 
nan

>  <ATP_Site>  (99) 
nan

>  <Peripheral>  (99) 
nan

>  <Num_H_Atoms_ProtBoundConf>  (99) 
nan

>  <Num_Resolved_Atoms>  (99) 
nan

>  <Num_Not_Resolved_Atoms>  (99) 
nan

$$$$
CHEMBL4083300
     RDKit          3D

  0  0  0  0  0  0  0  0  0  0999 V3000
M  V30 BEGIN CTAB
M  V30 COUNTS 70 74 0 0 0
M  V30 BEGIN ATOM
M  V30 1 C 4.265769 -3.621166 1.323205 0
M  V30 2 C 2.912487 -3.179383 1.838913 0 CFG=1
M  V30 3 O 2.131814 -4.243345 2.293642 0
M  V30 4 C 0.908140 -4.639814 1.846469 0
M  V30 5 C 0.120026 -4.082131 0.885349 0
M  V30 6 C -1.112200 -4.562690 0.501674 0
M  V30 7 C -1.897249 -3.901758 -0.531963 0
M  V30 8 C -2.535074 -4.551091 -1.589069 0
M  V30 9 N -3.160084 -3.585068 -2.324051 0
M  V30 10 C -2.934610 -2.381377 -1.767214 0
M  V30 11 C -3.381457 -1.143804 -2.187761 0
M  V30 12 C -3.028303 -0.020228 -1.456191 0
M  V30 13 C -3.424851 1.350679 -1.777397 0
M  V30 14 C -4.546997 1.900249 -2.371052 0
M  V30 15 N -4.398623 3.244350 -2.426195 0
M  V30 16 N -3.230640 3.569564 -1.892827 0
M  V30 17 C -2.663468 4.901648 -1.743566 0
M  V30 18 C -1.875330 5.167033 -2.996385 0
M  V30 19 N -1.226461 6.432277 -3.064588 0
M  V30 20 C -0.529867 6.478665 -4.342699 0
M  V30 21 C -2.108496 7.567375 -3.005519 0
M  V30 22 C -2.614133 2.446107 -1.489136 0
M  V30 23 C -2.234547 -0.247509 -0.334556 0
M  V30 24 C -1.809029 -1.503977 0.051041 0
M  V30 25 N -2.167311 -2.575756 -0.678544 0
M  V30 26 C -1.621002 -5.683068 1.105568 0
M  V30 27 C -0.864269 -6.288028 2.085221 0
M  V30 28 C 0.381066 -5.773612 2.448871 0
M  V30 29 C 0.979295 -6.603600 3.475963 0
M  V30 30 N 2.161483 -6.688303 4.207990 0
M  V30 31 O 0.540744 -7.617616 4.074997 0
M  V30 32 C 2.964714 -1.969251 2.644493 0
M  V30 33 C 2.884982 -0.718105 2.006464 0
M  V30 34 C 2.942084 0.534215 2.576897 0
M  V30 35 C 3.096787 0.580722 3.946974 0
M  V30 36 C 3.181699 -0.596290 4.636515 0
M  V30 37 C 3.116530 -1.838694 3.998763 0
M  V30 38 C 3.187346 -3.019882 4.840052 0
M  V30 39 F 1.972920 -3.682910 4.723831 0
M  V30 40 F 3.266632 -2.696713 6.180115 0
M  V30 41 F 4.134152 -3.939076 4.495890 0
M  V30 42 H 4.560697 -4.630136 1.731864 0
M  V30 43 H 4.993637 -2.839368 1.563675 0
M  V30 44 H 4.299453 -3.768949 0.224246 0
M  V30 45 H 2.360744 -2.866645 0.891911 0
M  V30 46 H 0.467945 -3.213116 0.383799 0
M  V30 47 H -2.554095 -5.622299 -1.818491 0
M  V30 48 H -3.995844 -0.985058 -3.058926 0
M  V30 49 H -5.347321 1.257531 -2.696641 0
M  V30 50 H -3.483878 5.623128 -1.599790 0
M  V30 51 H -1.946081 4.903096 -0.898781 0
M  V30 52 H -2.616600 5.071457 -3.840479 0
M  V30 53 H -1.115419 4.384912 -3.109209 0
M  V30 54 H 0.192051 7.303218 -4.403946 0
M  V30 55 H -1.311600 6.489745 -5.117127 0
M  V30 56 H -0.027024 5.473801 -4.435056 0
M  V30 57 H -2.783416 7.544453 -2.125945 0
M  V30 58 H -2.681742 7.555539 -3.974861 0
M  V30 59 H -1.469599 8.476652 -3.041612 0
M  V30 60 H -1.636856 2.408846 -1.013696 0
M  V30 61 H -1.940924 0.614480 0.260393 0
M  V30 62 H -1.195945 -1.605158 0.935729 0
M  V30 63 H -2.590618 -6.039194 0.785382 0
M  V30 64 H -1.346924 -7.170254 2.508784 0
M  V30 65 H 2.499820 -6.302608 5.112233 0
M  V30 66 H 3.080911 -7.177225 4.058336 0
M  V30 67 H 2.761595 -0.713479 0.914278 0
M  V30 68 H 2.868042 1.424466 1.970889 0
M  V30 69 H 3.150612 1.509287 4.470731 0
M  V30 70 H 3.305478 -0.560082 5.730628 0
M  V30 END ATOM
M  V30 BEGIN BOND
M  V30 1 1 1 2
M  V30 2 1 2 3
M  V30 3 1 3 4
M  V30 4 2 4 5
M  V30 5 1 5 6
M  V30 6 1 6 7
M  V30 7 2 7 8
M  V30 8 1 8 9
M  V30 9 2 9 10
M  V30 10 1 10 11
M  V30 11 2 11 12
M  V30 12 1 12 13
M  V30 13 1 13 14
M  V30 14 2 14 15
M  V30 15 1 15 16
M  V30 16 1 16 17
M  V30 17 1 17 18
M  V30 18 1 18 19
M  V30 19 1 19 20
M  V30 20 1 19 21
M  V30 21 1 16 22
M  V30 22 1 12 23
M  V30 23 2 23 24
M  V30 24 1 24 25
M  V30 25 2 6 26
M  V30 26 1 26 27
M  V30 27 2 27 28
M  V30 28 1 28 29
M  V30 29 1 29 30
M  V30 30 2 29 31
M  V30 31 1 2 32
M  V30 32 2 32 33
M  V30 33 1 33 34
M  V30 34 2 34 35
M  V30 35 1 35 36
M  V30 36 2 36 37
M  V30 37 1 37 38
M  V30 38 1 38 39
M  V30 39 1 38 40
M  V30 40 1 38 41
M  V30 41 1 28 4
M  V30 42 1 37 32
M  V30 43 1 25 7
M  V30 44 1 25 10
M  V30 45 2 22 13
M  V30 46 1 1 42
M  V30 47 1 1 43
M  V30 48 1 1 44
M  V30 49 1 2 45 CFG=3
M  V30 50 1 5 46
M  V30 51 1 8 47
M  V30 52 1 11 48
M  V30 53 1 14 49
M  V30 54 1 17 50
M  V30 55 1 17 51
M  V30 56 1 18 52
M  V30 57 1 18 53
M  V30 58 1 20 54
M  V30 59 1 20 55
M  V30 60 1 20 56
M  V30 61 1 21 57
M  V30 62 1 21 58
M  V30 63 1 21 59
M  V30 64 1 22 60
M  V30 65 1 23 61
M  V30 66 1 24 62
M  V30 67 1 26 63
M  V30 68 1 27 64
M  V30 69 1 30 65
M  V30 70 1 30 66
M  V30 71 1 33 67
M  V30 72 1 34 68
M  V30 73 1 35 69
M  V30 74 1 36 70
M  V30 END BOND
M  V30 END CTAB
M  END
>  <Dataset>  (100) 
ChEMBL_Kinases

>  <Ligand_Instance>  (100) 
nan

>  <PDB_ID>  (100) 
nan

>  <Standardized_SMILES>  (100) 
C[C@@H](Oc1cc(-c2cnc3cc(-c4cnn(CCN(C)C)c4)ccn23)ccc1C(N)=O)c1ccccc1C(F)(F)F

>  <Name>  (100) 
nan

>  <Pocket>  (100) 
nan

>  <ATP_Site>  (100) 
nan

>  <Peripheral>  (100) 
nan

>  <Num_H_Atoms_ProtBoundConf>  (100) 
nan

>  <Num_Resolved_Atoms>  (100) 
nan

>  <Num_Not_Resolved_Atoms>  (100) 
nan

$$$$
CHEMBL4852723
     RDKit          3D

  0  0  0  0  0  0  0  0  0  0999 V3000
M  V30 BEGIN CTAB
M  V30 COUNTS 62 66 0 0 0
M  V30 BEGIN ATOM
M  V30 1 C 3.183853 -2.335656 3.899330 0
M  V30 2 C 3.988297 -2.066744 2.656155 0
M  V30 3 C 3.977800 -3.298702 1.803158 0
M  V30 4 N 3.500010 -0.879630 1.952656 0
M  V30 5 C 4.143441 0.308994 1.875881 0
M  V30 6 O 5.259582 0.621635 2.380488 0
M  V30 7 C 3.351606 1.155667 1.128249 0
M  V30 8 C 3.443978 2.450833 0.707153 0
M  V30 9 N 2.458178 2.972458 -0.029514 0
M  V30 10 C 1.355054 2.299858 -0.395742 0
M  V30 11 N 0.372601 2.943001 -1.174852 0
M  V30 12 C -0.852921 2.428228 -1.667272 0
M  V30 13 C -1.717187 3.187943 -2.423930 0
M  V30 14 C -2.906200 2.717683 -2.912559 0
M  V30 15 C -3.309915 1.441996 -2.671646 0
M  V30 16 C -2.489876 0.626810 -1.919260 0
M  V30 17 C -1.302742 1.144784 -1.449120 0
M  V30 18 C -2.932752 -0.768199 -1.656603 0
M  V30 19 N -3.409076 -1.259243 -2.953390 0
M  V30 20 C -4.608465 -0.585469 -3.349186 0
M  V30 21 C -4.594715 0.898442 -3.186884 0
M  V30 22 N 1.327256 1.057823 0.041792 0
M  V30 23 C 2.241797 0.419467 0.781538 0
M  V30 24 N 2.351097 -0.826487 1.296440 0
M  V30 25 C 1.349681 -1.825135 1.105661 0
M  V30 26 C 1.212369 -2.710632 0.056319 0
M  V30 27 C 0.153920 -3.606751 0.072483 0
M  V30 28 C -0.752644 -3.623725 1.112209 0
M  V30 29 F -1.747330 -4.533028 1.035505 0
M  V30 30 C -0.578847 -2.710052 2.157262 0
M  V30 31 C -1.579736 -2.764859 3.255834 0
M  V30 32 C -1.274234 -1.726980 4.316408 0
M  V30 33 C -2.950544 -2.397888 2.694312 0
M  V30 34 F -1.599994 -3.998983 3.870402 0
M  V30 35 N 0.454718 -1.858166 2.109823 0
M  V30 36 H 3.824460 -2.454400 4.808123 0
M  V30 37 H 2.462621 -1.521192 4.122262 0
M  V30 38 H 2.595963 -3.271306 3.814398 0
M  V30 39 H 5.038550 -1.881909 2.992574 0
M  V30 40 H 3.118995 -3.977550 1.982023 0
M  V30 41 H 4.016957 -3.050177 0.711406 0
M  V30 42 H 4.882354 -3.924766 2.049896 0
M  V30 43 H 4.314260 3.042298 0.974001 0
M  V30 44 H 0.553999 3.957186 -1.443400 0
M  V30 45 H -1.463779 4.223870 -2.660794 0
M  V30 46 H -3.542627 3.360786 -3.500127 0
M  V30 47 H -0.723169 0.449900 -0.874163 0
M  V30 48 H -3.855825 -0.723404 -1.009276 0
M  V30 49 H -2.163087 -1.407210 -1.228757 0
M  V30 50 H -2.659912 -1.026174 -3.643260 0
M  V30 51 H -5.464918 -1.084063 -2.807086 0
M  V30 52 H -4.789180 -0.884928 -4.421847 0
M  V30 53 H -5.377300 1.138235 -2.414803 0
M  V30 54 H -4.913374 1.405549 -4.110927 0
M  V30 55 H 1.975885 -2.611141 -0.702918 0
M  V30 56 H 0.115304 -4.272678 -0.792250 0
M  V30 57 H -1.573862 -2.049272 5.330345 0
M  V30 58 H -1.699973 -0.732902 4.044043 0
M  V30 59 H -0.174869 -1.585805 4.364773 0
M  V30 60 H -3.739438 -3.039481 3.124832 0
M  V30 61 H -3.171233 -1.307902 2.873545 0
M  V30 62 H -2.906044 -2.493097 1.581993 0
M  V30 END ATOM
M  V30 BEGIN BOND
M  V30 1 1 1 2
M  V30 2 1 2 3
M  V30 3 1 2 4
M  V30 4 1 4 5
M  V30 5 2 5 6
M  V30 6 1 5 7
M  V30 7 2 7 8
M  V30 8 1 8 9
M  V30 9 2 9 10
M  V30 10 1 10 11
M  V30 11 1 11 12
M  V30 12 2 12 13
M  V30 13 1 13 14
M  V30 14 2 14 15
M  V30 15 1 15 16
M  V30 16 2 16 17
M  V30 17 1 16 18
M  V30 18 1 18 19
M  V30 19 1 19 20
M  V30 20 1 20 21
M  V30 21 1 10 22
M  V30 22 2 22 23
M  V30 23 1 23 24
M  V30 24 1 24 25
M  V30 25 2 25 26
M  V30 26 1 26 27
M  V30 27 2 27 28
M  V30 28 1 28 29
M  V30 29 1 28 30
M  V30 30 1 30 31
M  V30 31 1 31 32
M  V30 32 1 31 33
M  V30 33 1 31 34
M  V30 34 2 30 35
M  V30 35 1 24 4
M  V30 36 1 35 25
M  V30 37 1 23 7
M  V30 38 1 17 12
M  V30 39 1 21 15
M  V30 40 1 1 36
M  V30 41 1 1 37
M  V30 42 1 1 38
M  V30 43 1 2 39
M  V30 44 1 3 40
M  V30 45 1 3 41
M  V30 46 1 3 42
M  V30 47 1 8 43
M  V30 48 1 11 44
M  V30 49 1 13 45
M  V30 50 1 14 46
M  V30 51 1 17 47
M  V30 52 1 18 48
M  V30 53 1 18 49
M  V30 54 1 19 50
M  V30 55 1 20 51
M  V30 56 1 20 52
M  V30 57 1 21 53
M  V30 58 1 21 54
M  V30 59 1 26 55
M  V30 60 1 27 56
M  V30 61 1 32 57
M  V30 62 1 32 58
M  V30 63 1 32 59
M  V30 64 1 33 60
M  V30 65 1 33 61
M  V30 66 1 33 62
M  V30 END BOND
M  V30 END CTAB
M  END
>  <Dataset>  (101) 
ChEMBL_Kinases

>  <Ligand_Instance>  (101) 
nan

>  <PDB_ID>  (101) 
nan

>  <Standardized_SMILES>  (101) 
CC(C)n1c(=O)c2cnc(Nc3ccc4c(c3)CNCC4)nc2n1-c1ccc(F)c(C(C)(C)F)n1

>  <Name>  (101) 
nan

>  <Pocket>  (101) 
nan

>  <ATP_Site>  (101) 
nan

>  <Peripheral>  (101) 
nan

>  <Num_H_Atoms_ProtBoundConf>  (101) 
nan

>  <Num_Resolved_Atoms>  (101) 
nan

>  <Num_Not_Resolved_Atoms>  (101) 
nan

$$$$
CHEMBL4852735
     RDKit          3D

  0  0  0  0  0  0  0  0  0  0999 V3000
M  V30 BEGIN CTAB
M  V30 COUNTS 57 59 0 0 0
M  V30 BEGIN ATOM
M  V30 1 C 1.218949 -3.499878 3.022729 0
M  V30 2 C 0.607450 -2.240266 2.581787 0
M  V30 3 C 0.948167 -1.025068 3.126892 0
M  V30 4 C 0.329241 0.108036 2.654065 0
M  V30 5 N 0.752128 1.323881 3.285372 0
M  V30 6 C 1.848978 1.887158 2.600076 0
M  V30 7 O 2.740934 1.984762 1.719524 0
M  V30 8 C 2.489292 3.172189 3.057703 0 CFG=1
M  V30 9 O 3.536647 3.530031 2.246454 0
M  V30 10 C 1.413007 4.204028 3.015692 0
M  V30 11 C 0.987214 4.755831 1.824035 0
M  V30 12 C -0.006109 5.705534 1.806308 0
M  V30 13 F -0.408958 6.234478 0.622689 0
M  V30 14 C -0.608551 6.136064 2.985639 0
M  V30 15 C -0.201398 5.600604 4.189156 0
M  V30 16 F -0.782472 6.013379 5.347218 0
M  V30 17 C 0.805428 4.641713 4.176567 0
M  V30 18 C -0.628318 0.052518 1.642422 0
M  V30 19 C -0.935624 -1.176149 1.130317 0
M  V30 20 C -0.329808 -2.352991 1.582749 0
M  V30 21 C -0.802289 -3.548065 0.906738 0
M  V30 22 C -1.172106 -4.742094 1.488617 0
M  V30 23 N -1.595448 -5.791982 0.764472 0
M  V30 24 C -1.686259 -5.744670 -0.584627 0
M  V30 25 N -2.142020 -6.894645 -1.278317 0
M  V30 26 C -1.331200 -4.575672 -1.241149 0
M  V30 27 C -1.438086 -4.550937 -2.694718 0
M  V30 28 O -1.846250 -5.596413 -3.262507 0
M  V30 29 N -1.106490 -3.418669 -3.470134 0
M  V30 30 C -1.152432 -3.227699 -4.884304 0
M  V30 31 C 0.272236 -2.965249 -5.361237 0
M  V30 32 C -2.055385 -2.074226 -5.284050 0
M  V30 33 C -0.898986 -3.507951 -0.484434 0
M  V30 34 H 2.260991 -3.330662 3.423828 0
M  V30 35 H 0.665781 -3.899276 3.913880 0
M  V30 36 H 1.220840 -4.295937 2.267296 0
M  V30 37 H 1.695201 -1.032291 3.908256 0
M  V30 38 H 0.439330 1.868587 4.113278 0
M  V30 39 H 2.769450 3.015697 4.125474 0
M  V30 40 H 3.293274 4.307299 1.674363 0
M  V30 41 H 1.416276 4.460513 0.890830 0
M  V30 42 H -1.392531 6.886598 2.963247 0
M  V30 43 H 1.090753 4.249561 5.158409 0
M  V30 44 H -1.070126 0.986373 1.324282 0
M  V30 45 H -1.695026 -1.156452 0.337938 0
M  V30 46 H -1.103511 -4.786039 2.566496 0
M  V30 47 H -1.465559 -7.561458 -1.747537 0
M  V30 48 H -3.102178 -7.278053 -1.452106 0
M  V30 49 H -0.766341 -2.541573 -3.022028 0
M  V30 50 H -1.506573 -4.120571 -5.440925 0
M  V30 51 H 0.950635 -3.503098 -4.678013 0
M  V30 52 H 0.532937 -1.890005 -5.284577 0
M  V30 53 H 0.464575 -3.353486 -6.373361 0
M  V30 54 H -2.708298 -2.348381 -6.135306 0
M  V30 55 H -1.406602 -1.245900 -5.628834 0
M  V30 56 H -2.721180 -1.767390 -4.452191 0
M  V30 57 H -0.621588 -2.595390 -0.993354 0
M  V30 END ATOM
M  V30 BEGIN BOND
M  V30 1 1 1 2
M  V30 2 2 2 3
M  V30 3 1 3 4
M  V30 4 1 4 5
M  V30 5 1 5 6
M  V30 6 2 6 7
M  V30 7 1 6 8
M  V30 8 1 8 9
M  V30 9 1 8 10
M  V30 10 2 10 11
M  V30 11 1 11 12
M  V30 12 1 12 13
M  V30 13 2 12 14
M  V30 14 1 14 15
M  V30 15 1 15 16
M  V30 16 2 15 17
M  V30 17 2 4 18
M  V30 18 1 18 19
M  V30 19 2 19 20
M  V30 20 1 20 21
M  V30 21 2 21 22
M  V30 22 1 22 23
M  V30 23 2 23 24
M  V30 24 1 24 25
M  V30 25 1 24 26
M  V30 26 1 26 27
M  V30 27 2 27 28
M  V30 28 1 27 29
M  V30 29 1 29 30
M  V30 30 1 30 31
M  V30 31 1 30 32
M  V30 32 2 26 33
M  V30 33 1 20 2
M  V30 34 1 33 21
M  V30 35 1 17 10
M  V30 36 1 1 34
M  V30 37 1 1 35
M  V30 38 1 1 36
M  V30 39 1 3 37
M  V30 40 1 5 38
M  V30 41 1 8 39 CFG=1
M  V30 42 1 9 40
M  V30 43 1 11 41
M  V30 44 1 14 42
M  V30 45 1 17 43
M  V30 46 1 18 44
M  V30 47 1 19 45
M  V30 48 1 22 46
M  V30 49 1 25 47
M  V30 50 1 25 48
M  V30 51 1 29 49
M  V30 52 1 30 50
M  V30 53 1 31 51
M  V30 54 1 31 52
M  V30 55 1 31 53
M  V30 56 1 32 54
M  V30 57 1 32 55
M  V30 58 1 32 56
M  V30 59 1 33 57
M  V30 END BOND
M  V30 END CTAB
M  END
>  <Dataset>  (102) 
ChEMBL_Kinases

>  <Ligand_Instance>  (102) 
nan

>  <PDB_ID>  (102) 
nan

>  <Standardized_SMILES>  (102) 
Cc1cc(NC(=O)[C@@H](O)c2cc(F)cc(F)c2)ccc1-c1cnc(N)c(C(=O)NC(C)C)c1

>  <Name>  (102) 
nan

>  <Pocket>  (102) 
nan

>  <ATP_Site>  (102) 
nan

>  <Peripheral>  (102) 
nan

>  <Num_H_Atoms_ProtBoundConf>  (102) 
nan

>  <Num_Resolved_Atoms>  (102) 
nan

>  <Num_Not_Resolved_Atoms>  (102) 
nan

$$$$
CHEMBL4852787
     RDKit          3D

  0  0  0  0  0  0  0  0  0  0999 V3000
M  V30 BEGIN CTAB
M  V30 COUNTS 47 48 0 0 0
M  V30 BEGIN ATOM
M  V30 1 C 1.506032 -4.083461 2.691702 0
M  V30 2 C 0.395411 -3.238155 2.158721 0
M  V30 3 C -0.680134 -3.077460 3.177018 0
M  V30 4 N 0.831238 -2.009541 1.539142 0
M  V30 5 C 1.567648 -1.146728 2.391903 0
M  V30 6 C 2.012808 0.117829 1.691906 0
M  V30 7 C 2.895637 -0.242418 0.542698 0
M  V30 8 N 2.275737 -1.067393 -0.446007 0
M  V30 9 C 1.119425 -0.576791 -1.153364 0
M  V30 10 N 0.608071 0.632486 -0.901607 0
M  V30 11 C -0.467878 1.162072 -1.507370 0
M  V30 12 N -0.760256 2.465570 -1.024726 0
M  V30 13 C -1.492623 2.557924 0.190693 0
M  V30 14 C -1.858382 3.771688 0.747621 0
M  V30 15 C -2.564057 3.889395 1.937853 0
M  V30 16 C -2.926383 2.717016 2.612448 0
M  V30 17 C -3.655444 2.787328 3.856219 0
M  V30 18 N -4.244406 2.824795 4.848542 0
M  V30 19 N -2.575933 1.534994 2.077753 0
M  V30 20 C -1.885587 1.440273 0.913225 0
M  V30 21 N -1.088939 0.416554 -2.450720 0
M  V30 22 C -0.631041 -0.824172 -2.765683 0
M  V30 23 C 0.472647 -1.322059 -2.118247 0
M  V30 24 C 0.980351 -2.675359 -2.460289 0
M  V30 25 F 0.969001 -3.515347 -1.371815 0
M  V30 26 F 2.281980 -2.532893 -2.962551 0
M  V30 27 F 0.239308 -3.224115 -3.488847 0
M  V30 28 H 1.017221 -5.055346 3.004542 0
M  V30 29 H 1.981849 -3.709212 3.612294 0
M  V30 30 H 2.219647 -4.398534 1.901547 0
M  V30 31 H -0.046180 -3.837270 1.305299 0
M  V30 32 H -1.670429 -3.099733 2.641099 0
M  V30 33 H -0.691958 -3.959547 3.843758 0
M  V30 34 H -0.676093 -2.108245 3.712545 0
M  V30 35 H -0.076294 -1.504940 1.283711 0
M  V30 36 H 2.523943 -1.684874 2.651323 0
M  V30 37 H 1.037171 -0.837772 3.310511 0
M  V30 38 H 1.145949 0.717851 1.398940 0
M  V30 39 H 2.577290 0.763812 2.429452 0
M  V30 40 H 3.176831 0.717196 0.037546 0
M  V30 41 H 3.831419 -0.728119 0.884157 0
M  V30 42 H 2.615815 -2.022888 -0.692523 0
M  V30 43 H -0.483930 3.350446 -1.487015 0
M  V30 44 H -1.594277 4.694169 0.247438 0
M  V30 45 H -2.825769 4.868738 2.330950 0
M  V30 46 H -1.614972 0.463621 0.508361 0
M  V30 47 H -1.181375 -1.355655 -3.528562 0
M  V30 END ATOM
M  V30 BEGIN BOND
M  V30 1 1 1 2
M  V30 2 1 2 3
M  V30 3 1 2 4
M  V30 4 1 4 5
M  V30 5 1 5 6
M  V30 6 1 6 7
M  V30 7 1 7 8
M  V30 8 1 8 9
M  V30 9 2 9 10
M  V30 10 1 10 11
M  V30 11 1 11 12
M  V30 12 1 12 13
M  V30 13 2 13 14
M  V30 14 1 14 15
M  V30 15 2 15 16
M  V30 16 1 16 17
M  V30 17 3 17 18
M  V30 18 1 16 19
M  V30 19 2 19 20
M  V30 20 2 11 21
M  V30 21 1 21 22
M  V30 22 2 22 23
M  V30 23 1 23 24
M  V30 24 1 24 25
M  V30 25 1 24 26
M  V30 26 1 24 27
M  V30 27 1 23 9
M  V30 28 1 20 13
M  V30 29 1 1 28
M  V30 30 1 1 29
M  V30 31 1 1 30
M  V30 32 1 2 31
M  V30 33 1 3 32
M  V30 34 1 3 33
M  V30 35 1 3 34
M  V30 36 1 4 35
M  V30 37 1 5 36
M  V30 38 1 5 37
M  V30 39 1 6 38
M  V30 40 1 6 39
M  V30 41 1 7 40
M  V30 42 1 7 41
M  V30 43 1 8 42
M  V30 44 1 12 43
M  V30 45 1 14 44
M  V30 46 1 15 45
M  V30 47 1 20 46
M  V30 48 1 22 47
M  V30 END BOND
M  V30 END CTAB
M  END
>  <Dataset>  (103) 
ChEMBL_Kinases

>  <Ligand_Instance>  (103) 
nan

>  <PDB_ID>  (103) 
nan

>  <Standardized_SMILES>  (103) 
CC(C)NCCCNc1nc(Nc2ccc(C#N)nc2)ncc1C(F)(F)F

>  <Name>  (103) 
nan

>  <Pocket>  (103) 
nan

>  <ATP_Site>  (103) 
nan

>  <Peripheral>  (103) 
nan

>  <Num_H_Atoms_ProtBoundConf>  (103) 
nan

>  <Num_Resolved_Atoms>  (103) 
nan

>  <Num_Not_Resolved_Atoms>  (103) 
nan

$$$$
CHEMBL4083142
     RDKit          3D

  0  0  0  0  0  0  0  0  0  0999 V3000
M  V30 BEGIN CTAB
M  V30 COUNTS 68 72 0 0 0
M  V30 BEGIN ATOM
M  V30 1 C -1.879021 4.542471 2.144046 0
M  V30 2 O -0.522333 4.280010 1.833370 0
M  V30 3 C 0.134788 3.146489 2.358586 0
M  V30 4 C -0.526428 2.242887 3.200227 0
M  V30 5 C 0.116011 1.139049 3.709544 0
M  V30 6 C 1.446714 0.907234 3.389111 0
M  V30 7 C 2.071818 1.813053 2.558807 0
M  V30 8 C 1.456015 2.948032 2.019117 0
M  V30 9 C 2.248114 3.848384 1.144544 0
M  V30 10 N 1.918865 3.719819 -0.263926 0
M  V30 11 C 2.089828 2.430660 -0.813781 0
M  V30 12 O 2.477264 1.358505 -0.299451 0
M  V30 13 C 1.890869 1.842738 -2.161037 0
M  V30 14 C 2.197908 0.391357 -2.172335 0
M  V30 15 C 1.140549 -0.500729 -2.223249 0
M  V30 16 C 1.262862 -1.876606 -2.245030 0
M  V30 17 C 0.141160 -2.837349 -2.304230 0 CFG=2
M  V30 18 C -0.511595 -2.736402 -3.639840 0
M  V30 19 C -1.771663 -1.942096 -3.698281 0
M  V30 20 N -2.684487 -2.442167 -2.660195 0
M  V30 21 C -2.091261 -2.046652 -1.413119 0
M  V30 22 C -0.800364 -2.808647 -1.155426 0 CFG=1
M  V30 23 C -1.191225 -4.243845 -0.846097 0
M  V30 24 O -2.062531 -4.428620 0.191998 0
M  V30 25 C -1.952712 -4.147018 1.525702 0
M  V30 26 C -3.166212 -4.536118 2.110929 0
M  V30 27 C -3.395236 -4.384554 3.490393 0
M  V30 28 C -2.410042 -3.842174 4.291997 0
M  V30 29 C -1.219844 -3.463835 3.697473 0
M  V30 30 C -0.993404 -3.611436 2.345804 0
M  V30 31 O -0.399223 -2.954318 4.695939 0
M  V30 32 C -1.211683 -2.584038 5.822730 0
M  V30 33 O -2.267519 -3.543222 5.660142 0
M  V30 34 C 2.605621 -2.274260 -2.208579 0
M  V30 35 C 3.710771 -1.471807 -2.157333 0
M  V30 36 C 3.482740 -0.113341 -2.140105 0
M  V30 37 F 4.526048 0.741745 -2.091895 0
M  V30 38 H -1.941618 5.141142 3.078452 0
M  V30 39 H -2.514953 3.650725 2.175564 0
M  V30 40 H -2.284220 5.177690 1.330183 0
M  V30 41 H -1.563965 2.403854 3.463514 0
M  V30 42 H -0.460007 0.476708 4.359666 0
M  V30 43 H 1.952219 0.042897 3.788174 0
M  V30 44 H 3.127445 1.568402 2.351311 0
M  V30 45 H 3.329801 3.751889 1.332547 0
M  V30 46 H 1.945567 4.883121 1.437354 0
M  V30 47 H 1.568756 4.332444 -1.052409 0
M  V30 48 H 2.596813 2.355732 -2.846899 0
M  V30 49 H 0.870008 2.030406 -2.555485 0
M  V30 50 H 0.148566 -0.088052 -2.251852 0
M  V30 51 H 0.646077 -3.857543 -2.298038 0
M  V30 52 H 0.206304 -2.253099 -4.356460 0
M  V30 53 H -0.710624 -3.739612 -4.090724 0
M  V30 54 H -2.262881 -2.171585 -4.671029 0
M  V30 55 H -1.658706 -0.857833 -3.624702 0
M  V30 56 H -3.617445 -1.986278 -2.751544 0
M  V30 57 H -1.898078 -0.963234 -1.436236 0
M  V30 58 H -2.757231 -2.264419 -0.550311 0
M  V30 59 H -0.361639 -2.362291 -0.260108 0
M  V30 60 H -1.573283 -4.767517 -1.744848 0
M  V30 61 H -0.214811 -4.742309 -0.564457 0
M  V30 62 H -4.070251 -4.983255 1.672691 0
M  V30 63 H -4.290289 -4.652852 4.032367 0
M  V30 64 H -0.110481 -3.355257 1.823670 0
M  V30 65 H -0.683442 -2.696728 6.771325 0
M  V30 66 H -1.590374 -1.552670 5.634537 0
M  V30 67 H 2.797279 -3.360461 -2.224291 0
M  V30 68 H 4.697078 -1.904074 -2.133744 0
M  V30 END ATOM
M  V30 BEGIN BOND
M  V30 1 1 1 2
M  V30 2 1 2 3
M  V30 3 2 3 4
M  V30 4 1 4 5
M  V30 5 2 5 6
M  V30 6 1 6 7
M  V30 7 2 7 8
M  V30 8 1 8 9
M  V30 9 1 9 10
M  V30 10 1 10 11
M  V30 11 2 11 12
M  V30 12 1 11 13
M  V30 13 1 13 14
M  V30 14 2 14 15
M  V30 15 1 15 16
M  V30 16 1 16 17
M  V30 17 1 17 18
M  V30 18 1 18 19
M  V30 19 1 19 20
M  V30 20 1 20 21
M  V30 21 1 21 22
M  V30 22 1 22 23
M  V30 23 1 23 24
M  V30 24 1 24 25
M  V30 25 2 25 26
M  V30 26 1 26 27
M  V30 27 2 27 28
M  V30 28 1 28 29
M  V30 29 2 29 30
M  V30 30 1 29 31
M  V30 31 1 31 32
M  V30 32 1 32 33
M  V30 33 2 16 34
M  V30 34 1 34 35
M  V30 35 2 35 36
M  V30 36 1 36 37
M  V30 37 1 8 3
M  V30 38 1 36 14
M  V30 39 1 22 17
M  V30 40 1 30 25
M  V30 41 1 33 28
M  V30 42 1 1 38
M  V30 43 1 1 39
M  V30 44 1 1 40
M  V30 45 1 4 41
M  V30 46 1 5 42
M  V30 47 1 6 43
M  V30 48 1 7 44
M  V30 49 1 9 45
M  V30 50 1 9 46
M  V30 51 1 10 47
M  V30 52 1 13 48
M  V30 53 1 13 49
M  V30 54 1 15 50
M  V30 55 1 17 51 CFG=3
M  V30 56 1 18 52
M  V30 57 1 18 53
M  V30 58 1 19 54
M  V30 59 1 19 55
M  V30 60 1 20 56
M  V30 61 1 21 57
M  V30 62 1 21 58
M  V30 63 1 22 59 CFG=1
M  V30 64 1 23 60
M  V30 65 1 23 61
M  V30 66 1 26 62
M  V30 67 1 27 63
M  V30 68 1 30 64
M  V30 69 1 32 65
M  V30 70 1 32 66
M  V30 71 1 34 67
M  V30 72 1 35 68
M  V30 END BOND
M  V30 END CTAB
M  END
>  <Dataset>  (104) 
ChEMBL_Kinases

>  <Ligand_Instance>  (104) 
nan

>  <PDB_ID>  (104) 
nan

>  <Standardized_SMILES>  (104) 
COc1ccccc1CNC(=O)Cc1cc([C@@H]2CCNC[C@H]2COc2ccc3c(c2)OCO3)ccc1F

>  <Name>  (104) 
nan

>  <Pocket>  (104) 
nan

>  <ATP_Site>  (104) 
nan

>  <Peripheral>  (104) 
nan

>  <Num_H_Atoms_ProtBoundConf>  (104) 
nan

>  <Num_Resolved_Atoms>  (104) 
nan

>  <Num_Not_Resolved_Atoms>  (104) 
nan

$$$$
CHEMBL4083136
     RDKit          3D

  0  0  0  0  0  0  0  0  0  0999 V3000
M  V30 BEGIN CTAB
M  V30 COUNTS 50 52 0 0 0
M  V30 BEGIN ATOM
M  V30 1 C 2.354389 -3.371477 3.265145 0
M  V30 2 N 3.598460 -2.940552 2.684761 0
M  V30 3 C 4.015026 -1.676108 3.245048 0
M  V30 4 S 3.564550 -2.954761 0.983303 0
M  V30 5 O 4.862822 -2.669596 0.364846 0
M  V30 6 O 3.047668 -4.324256 0.560262 0
M  V30 7 C 2.315320 -1.827538 0.419013 0
M  V30 8 C 2.923058 -0.555006 0.410405 0
M  V30 9 C 2.098756 0.459296 -0.008435 0
M  V30 10 C 0.826431 0.211673 -0.368872 0
M  V30 11 O -0.229185 0.960304 -0.815500 0
M  V30 12 C -0.339724 2.288998 -1.052675 0
M  V30 13 C -0.129517 3.117577 0.153050 0
M  V30 14 C 0.929057 3.832728 0.656764 0
M  V30 15 C 0.953799 4.535268 1.815528 0
M  V30 16 C -0.184696 4.569441 2.616331 0
M  V30 17 C -1.279304 3.871829 2.164480 0
M  V30 18 C -1.252349 3.179739 0.989178 0
M  V30 19 C -0.013155 -0.825456 -0.470682 0
M  V30 20 C -0.913050 -1.937261 -0.579779 0
M  V30 21 O -1.624550 -0.917871 -0.948940 0
M  V30 22 N -1.515361 -3.183304 -0.577626 0
M  V30 23 C -2.873422 -3.213886 -0.986603 0
M  V30 24 C -3.934585 -3.069323 -0.119742 0
M  V30 25 C -5.203818 -3.124820 -0.646121 0
M  V30 26 C -5.382895 -3.319718 -2.004896 0
M  V30 27 N -4.370786 -3.464520 -2.881309 0
M  V30 28 C -3.135126 -3.408024 -2.351156 0
M  V30 29 C 0.939985 -1.909608 -0.001147 0
M  V30 30 H 2.553122 -3.776962 4.291932 0
M  V30 31 H 1.611885 -2.570290 3.405460 0
M  V30 32 H 1.883337 -4.181117 2.672974 0
M  V30 33 H 4.736041 -1.123372 2.610357 0
M  V30 34 H 3.129747 -1.042925 3.507784 0
M  V30 35 H 4.506449 -1.920981 4.223438 0
M  V30 36 H 3.860336 -0.094288 0.632625 0
M  V30 37 H 2.271177 1.505328 -0.133726 0
M  V30 38 H 0.423570 2.629732 -1.834863 0
M  V30 39 H -1.359225 2.554479 -1.445028 0
M  V30 40 H 1.785168 3.783477 -0.009437 0
M  V30 41 H 1.909164 5.037327 2.028886 0
M  V30 42 H -0.086812 5.145251 3.517022 0
M  V30 43 H -2.132903 3.930163 2.821777 0
M  V30 44 H -2.184861 2.685054 0.772104 0
M  V30 45 H -0.681537 -3.704112 -0.246659 0
M  V30 46 H -3.649019 -2.924705 0.912787 0
M  V30 47 H -5.993755 -3.004304 0.079547 0
M  V30 48 H -6.427527 -3.339486 -2.258044 0
M  V30 49 H -2.334890 -3.528581 -3.096960 0
M  V30 50 H 1.034253 -3.034893 0.202657 0
M  V30 END ATOM
M  V30 BEGIN BOND
M  V30 1 1 1 2
M  V30 2 1 2 3
M  V30 3 1 2 4
M  V30 4 2 4 5
M  V30 5 2 4 6
M  V30 6 1 4 7
M  V30 7 2 7 8
M  V30 8 1 8 9
M  V30 9 2 9 10
M  V30 10 1 10 11
M  V30 11 1 11 12
M  V30 12 1 12 13
M  V30 13 2 13 14
M  V30 14 1 14 15
M  V30 15 2 15 16
M  V30 16 1 16 17
M  V30 17 2 17 18
M  V30 18 1 10 19
M  V30 19 1 19 20
M  V30 20 2 20 21
M  V30 21 1 20 22
M  V30 22 1 22 23
M  V30 23 2 23 24
M  V30 24 1 24 25
M  V30 25 2 25 26
M  V30 26 1 26 27
M  V30 27 2 27 28
M  V30 28 2 19 29
M  V30 29 1 29 7
M  V30 30 1 18 13
M  V30 31 1 28 23
M  V30 32 1 1 30
M  V30 33 1 1 31
M  V30 34 1 1 32
M  V30 35 1 3 33
M  V30 36 1 3 34
M  V30 37 1 3 35
M  V30 38 1 8 36
M  V30 39 1 9 37
M  V30 40 1 12 38
M  V30 41 1 12 39
M  V30 42 1 14 40
M  V30 43 1 15 41
M  V30 44 1 16 42
M  V30 45 1 17 43
M  V30 46 1 18 44
M  V30 47 1 22 45
M  V30 48 1 24 46
M  V30 49 1 25 47
M  V30 50 1 26 48
M  V30 51 1 28 49
M  V30 52 1 29 50
M  V30 END BOND
M  V30 END CTAB
M  END
>  <Dataset>  (105) 
ChEMBL_Kinases

>  <Ligand_Instance>  (105) 
nan

>  <PDB_ID>  (105) 
nan

>  <Standardized_SMILES>  (105) 
CN(C)S(=O)(=O)c1ccc(OCc2ccccc2)c(C(=O)Nc2cccnc2)c1

>  <Name>  (105) 
nan

>  <Pocket>  (105) 
nan

>  <ATP_Site>  (105) 
nan

>  <Peripheral>  (105) 
nan

>  <Num_H_Atoms_ProtBoundConf>  (105) 
nan

>  <Num_Resolved_Atoms>  (105) 
nan

>  <Num_Not_Resolved_Atoms>  (105) 
nan

$$$$
CHEMBL4083100
     RDKit          3D

  0  0  0  0  0  0  0  0  0  0999 V3000
M  V30 BEGIN CTAB
M  V30 COUNTS 62 66 0 0 0
M  V30 BEGIN ATOM
M  V30 1 C 4.580538 1.021577 4.818052 0
M  V30 2 N 5.259984 -0.240487 4.934123 0
M  V30 3 C 6.220196 -0.496523 3.903407 0
M  V30 4 C 5.586139 -0.710932 2.571937 0
M  V30 5 N 4.169795 -0.999006 2.674150 0
M  V30 6 C 3.145820 -0.447626 1.863020 0
M  V30 7 C 1.804360 -0.664133 2.065657 0
M  V30 8 C 0.816101 -0.129379 1.278335 0
M  V30 9 N 1.152249 0.656125 0.240909 0
M  V30 10 C 0.379452 1.290978 -0.660362 0
M  V30 11 C -1.069020 1.348254 -0.814176 0
M  V30 12 C -1.668575 2.567873 -1.014973 0
M  V30 13 C -3.032150 2.679376 -1.167386 0
M  V30 14 C -3.723365 1.466382 -1.099757 0
M  V30 15 C -5.149178 1.742575 -1.275000 0
M  V30 16 O -5.794028 2.813346 -1.464478 0
M  V30 17 O -6.434384 1.259740 -1.348402 0
M  V30 18 C -3.172009 0.203762 -0.899549 0
M  V30 19 O -4.039210 -0.721399 -0.883958 0
M  V30 20 C -4.926052 -1.697695 -0.864584 0
M  V30 21 C -4.676221 -2.748656 -1.927505 0
M  V30 22 C -5.336026 -2.581843 -3.129429 0
M  V30 23 C -5.156321 -3.437257 -4.202998 0
M  V30 24 C -4.283148 -4.493326 -4.056805 0
M  V30 25 C -3.651720 -4.616225 -2.839860 0
M  V30 26 C -3.799153 -3.790736 -1.741974 0
M  V30 27 C -3.122904 -4.028451 -0.468952 0
M  V30 28 F -2.303978 -5.153568 -0.642485 0
M  V30 29 F -4.046415 -4.402463 0.527870 0
M  V30 30 F -2.363984 -3.013095 0.012743 0
M  V30 31 C -1.811749 0.198109 -0.759652 0
M  V30 32 C 1.205998 1.972504 -1.520821 0
M  V30 33 N 2.458719 1.722592 -1.104468 0
M  V30 34 C 2.440137 0.913888 -0.021098 0
M  V30 35 C 3.416513 0.352761 0.800920 0
M  V30 36 C 3.975554 -1.943109 3.737127 0
M  V30 37 C 4.343508 -1.358358 5.089276 0
M  V30 38 H 3.512748 0.803765 4.521785 0
M  V30 39 H 4.551153 1.602660 5.738127 0
M  V30 40 H 5.040104 1.670899 4.031975 0
M  V30 41 H 6.792288 -1.402668 4.203177 0
M  V30 42 H 6.917771 0.373861 3.868848 0
M  V30 43 H 5.804201 0.139861 1.863324 0
M  V30 44 H 6.084099 -1.585906 2.075021 0
M  V30 45 H 1.465579 -1.287387 2.885544 0
M  V30 46 H -0.224588 -0.335922 1.490503 0
M  V30 47 H -1.024575 3.422589 -1.046502 0
M  V30 48 H -3.403961 3.659715 -1.317078 0
M  V30 49 H -6.916010 0.823487 -0.551083 0
M  V30 50 H -5.006471 -2.257646 0.140848 0
M  V30 51 H -6.020434 -1.395081 -0.994372 0
M  V30 52 H -6.034174 -1.742487 -3.255847 0
M  V30 53 H -5.677170 -3.296416 -5.137952 0
M  V30 54 H -4.091617 -5.200727 -4.850918 0
M  V30 55 H -2.961964 -5.462889 -2.746513 0
M  V30 56 H -1.293759 -0.724961 -0.607739 0
M  V30 57 H 0.988329 2.605546 -2.384695 0
M  V30 58 H 4.409896 0.625933 0.497347 0
M  V30 59 H 2.932623 -2.300472 3.813787 0
M  V30 60 H 4.594231 -2.855624 3.518297 0
M  V30 61 H 3.461098 -1.095578 5.683137 0
M  V30 62 H 4.903942 -2.142368 5.635832 0
M  V30 END ATOM
M  V30 BEGIN BOND
M  V30 1 1 1 2
M  V30 2 1 2 3
M  V30 3 1 3 4
M  V30 4 1 4 5
M  V30 5 1 5 6
M  V30 6 1 6 7
M  V30 7 2 7 8
M  V30 8 1 8 9
M  V30 9 1 9 10
M  V30 10 1 10 11
M  V30 11 2 11 12
M  V30 12 1 12 13
M  V30 13 2 13 14
M  V30 14 1 14 15
M  V30 15 2 15 16
M  V30 16 1 15 17
M  V30 17 1 14 18
M  V30 18 1 18 19
M  V30 19 1 19 20
M  V30 20 1 20 21
M  V30 21 2 21 22
M  V30 22 1 22 23
M  V30 23 2 23 24
M  V30 24 1 24 25
M  V30 25 2 25 26
M  V30 26 1 26 27
M  V30 27 1 27 28
M  V30 28 1 27 29
M  V30 29 1 27 30
M  V30 30 2 18 31
M  V30 31 2 10 32
M  V30 32 1 32 33
M  V30 33 2 33 34
M  V30 34 1 34 35
M  V30 35 1 5 36
M  V30 36 1 36 37
M  V30 37 1 37 2
M  V30 38 2 35 6
M  V30 39 1 34 9
M  V30 40 1 31 11
M  V30 41 1 26 21
M  V30 42 1 1 38
M  V30 43 1 1 39
M  V30 44 1 1 40
M  V30 45 1 3 41
M  V30 46 1 3 42
M  V30 47 1 4 43
M  V30 48 1 4 44
M  V30 49 1 7 45
M  V30 50 1 8 46
M  V30 51 1 12 47
M  V30 52 1 13 48
M  V30 53 1 17 49
M  V30 54 1 20 50
M  V30 55 1 20 51
M  V30 56 1 22 52
M  V30 57 1 23 53
M  V30 58 1 24 54
M  V30 59 1 25 55
M  V30 60 1 31 56
M  V30 61 1 32 57
M  V30 62 1 35 58
M  V30 63 1 36 59
M  V30 64 1 36 60
M  V30 65 1 37 61
M  V30 66 1 37 62
M  V30 END BOND
M  V30 END CTAB
M  END
>  <Dataset>  (106) 
ChEMBL_Kinases

>  <Ligand_Instance>  (106) 
nan

>  <PDB_ID>  (106) 
nan

>  <Standardized_SMILES>  (106) 
CN1CCN(c2ccn3c(-c4ccc(C(=O)O)c(OCc5ccccc5C(F)(F)F)c4)cnc3c2)CC1

>  <Name>  (106) 
nan

>  <Pocket>  (106) 
nan

>  <ATP_Site>  (106) 
nan

>  <Peripheral>  (106) 
nan

>  <Num_H_Atoms_ProtBoundConf>  (106) 
nan

>  <Num_Resolved_Atoms>  (106) 
nan

>  <Num_Not_Resolved_Atoms>  (106) 
nan

$$$$
CHEMBL4083098
     RDKit          3D

  0  0  0  0  0  0  0  0  0  0999 V3000
M  V30 BEGIN CTAB
M  V30 COUNTS 56 60 0 0 0
M  V30 BEGIN ATOM
M  V30 1 C 0.636156 0.235417 4.150397 0
M  V30 2 C 1.335316 -0.993392 3.729295 0
M  V30 3 C 0.852317 -2.260524 3.970429 0
M  V30 4 C 1.480033 -3.427379 3.544561 0
M  V30 5 C 2.666074 -3.262092 2.838140 0
M  V30 6 C 3.110297 -1.994529 2.616559 0
M  V30 7 C 4.328996 -1.727605 1.707288 0
M  V30 8 N 3.625454 -1.364099 0.429649 0
M  V30 9 C 3.523404 -0.028735 -0.067838 0
M  V30 10 O 4.380263 0.817968 -0.139019 0
M  V30 11 C 2.171214 0.225080 -0.499872 0
M  V30 12 C 1.520949 1.352427 -0.832200 0
M  V30 13 C 0.276074 1.612701 -1.055181 0
M  V30 14 C -1.140671 1.915945 -1.314710 0
M  V30 15 C -1.290177 2.825384 -2.336135 0
M  V30 16 C -2.603280 3.141434 -2.686724 0
M  V30 17 N -3.683374 2.608452 -2.086378 0
M  V30 18 C -3.539507 1.729532 -1.095080 0
M  V30 19 N -4.244383 0.932017 -0.173855 0
M  V30 20 C -4.686918 -0.323031 0.236837 0
M  V30 21 C -5.437039 -0.541839 1.397729 0
M  V30 22 C -5.623110 -1.894484 1.393996 0
M  V30 23 N -5.042661 -2.438005 0.333036 0
M  V30 24 N -4.461825 -1.493875 -0.395297 0
M  V30 25 C -3.749348 -1.775420 -1.610248 0
M  V30 26 N -2.311690 1.491629 -0.835650 0
M  V30 27 C 0.053025 0.164708 -0.782409 0
M  V30 28 N 1.127964 -0.596462 -0.481362 0
M  V30 29 C 1.390447 -2.017591 -0.242979 0
M  V30 30 C 2.871852 -2.310573 -0.307622 0
M  V30 31 C 3.374113 -2.518437 -1.716047 0
M  V30 32 N 2.478043 -0.858929 3.046652 0
M  V30 33 H -0.286414 0.338595 3.519958 0
M  V30 34 H 0.293090 0.127073 5.202902 0
M  V30 35 H 1.297411 1.113585 4.027502 0
M  V30 36 H -0.066046 -2.422989 4.487283 0
M  V30 37 H 1.143932 -4.431111 3.691735 0
M  V30 38 H 3.293432 -4.020980 2.439446 0
M  V30 39 H 4.839601 -2.651510 1.543719 0
M  V30 40 H 4.824185 -0.891359 2.149918 0
M  V30 41 H 1.881245 2.415449 -0.998429 0
M  V30 42 H -0.603007 3.369976 -2.946248 0
M  V30 43 H -2.946943 3.841868 -3.477785 0
M  V30 44 H -4.535538 1.792743 0.431787 0
M  V30 45 H -5.776593 0.159061 2.114349 0
M  V30 46 H -6.181175 -2.384424 2.187636 0
M  V30 47 H -4.206695 -2.655259 -2.134666 0
M  V30 48 H -3.689763 -0.917116 -2.280852 0
M  V30 49 H -2.680194 -2.081553 -1.396661 0
M  V30 50 H -0.811908 -0.618984 -0.748111 0
M  V30 51 H 0.965510 -2.398874 0.673143 0
M  V30 52 H 0.931678 -2.624438 -1.085359 0
M  V30 53 H 3.003668 -3.293788 0.209693 0
M  V30 54 H 4.481237 -2.636140 -1.690730 0
M  V30 55 H 3.063983 -1.698070 -2.374929 0
M  V30 56 H 3.000800 -3.463311 -2.158419 0
M  V30 END ATOM
M  V30 BEGIN BOND
M  V30 1 1 1 2
M  V30 2 2 2 3
M  V30 3 1 3 4
M  V30 4 2 4 5
M  V30 5 1 5 6
M  V30 6 1 6 7
M  V30 7 1 7 8
M  V30 8 1 8 9
M  V30 9 2 9 10
M  V30 10 1 9 11
M  V30 11 2 11 12
M  V30 12 1 12 13
M  V30 13 1 13 14
M  V30 14 2 14 15
M  V30 15 1 15 16
M  V30 16 2 16 17
M  V30 17 1 17 18
M  V30 18 1 18 19
M  V30 19 1 19 20
M  V30 20 2 20 21
M  V30 21 1 21 22
M  V30 22 2 22 23
M  V30 23 1 23 24
M  V30 24 1 24 25
M  V30 25 2 18 26
M  V30 26 2 13 27
M  V30 27 1 27 28
M  V30 28 1 28 29
M  V30 29 1 29 30
M  V30 30 1 30 31
M  V30 31 2 6 32
M  V30 32 1 32 2
M  V30 33 1 30 8
M  V30 34 1 28 11
M  V30 35 1 26 14
M  V30 36 1 24 20
M  V30 37 1 1 33
M  V30 38 1 1 34
M  V30 39 1 1 35
M  V30 40 1 3 36
M  V30 41 1 4 37
M  V30 42 1 5 38
M  V30 43 1 7 39
M  V30 44 1 7 40
M  V30 45 1 12 41
M  V30 46 1 15 42
M  V30 47 1 16 43
M  V30 48 1 19 44
M  V30 49 1 21 45
M  V30 50 1 22 46
M  V30 51 1 25 47
M  V30 52 1 25 48
M  V30 53 1 25 49
M  V30 54 1 27 50
M  V30 55 1 29 51
M  V30 56 1 29 52
M  V30 57 1 30 53
M  V30 58 1 31 54
M  V30 59 1 31 55
M  V30 60 1 31 56
M  V30 END BOND
M  V30 END CTAB
M  END
>  <Dataset>  (107) 
ChEMBL_Kinases

>  <Ligand_Instance>  (107) 
nan

>  <PDB_ID>  (107) 
nan

>  <Standardized_SMILES>  (107) 
Cc1cccc(CN2C(=O)c3cc(-c4ccnc(Nc5ccnn5C)n4)cn3CC2C)n1

>  <Name>  (107) 
nan

>  <Pocket>  (107) 
nan

>  <ATP_Site>  (107) 
nan

>  <Peripheral>  (107) 
nan

>  <Num_H_Atoms_ProtBoundConf>  (107) 
nan

>  <Num_Resolved_Atoms>  (107) 
nan

>  <Num_Not_Resolved_Atoms>  (107) 
nan

$$$$
CHEMBL4083002
     RDKit          3D

  0  0  0  0  0  0  0  0  0  0999 V3000
M  V30 BEGIN CTAB
M  V30 COUNTS 51 55 0 0 0
M  V30 BEGIN ATOM
M  V30 1 C 4.333691 -2.864393 3.933012 0
M  V30 2 C 4.185836 -1.671993 3.083074 0
M  V30 3 N 5.026806 -0.698965 2.722441 0
M  V30 4 N 4.421164 0.186041 1.919894 0
M  V30 5 C 5.241325 1.264024 1.482073 0
M  V30 6 C 5.635941 2.314420 2.284819 0
M  V30 7 C 6.432520 3.332930 1.805180 0
M  V30 8 C 6.834519 3.274084 0.471532 0
M  V30 9 C 6.442157 2.219702 -0.345442 0
M  V30 10 C 5.644966 1.211182 0.154937 0
M  V30 11 C 3.148572 -0.216107 1.748656 0
M  V30 12 O 2.322457 0.558868 0.943322 0
M  V30 13 C 0.989904 0.225506 0.706017 0
M  V30 14 C -0.079195 0.647430 1.470718 0
M  V30 15 C -1.368733 0.262547 1.155054 0
M  V30 16 C -1.608784 -0.553568 0.065168 0
M  V30 17 C -2.938762 -1.012167 -0.346072 0
M  V30 18 N -4.098669 -0.709042 0.262743 0
M  V30 19 C -5.151178 -1.291928 -0.367215 0
M  V30 20 C -6.515924 -1.307187 -0.163633 0
M  V30 21 C -7.274321 -2.035404 -1.042239 0
M  V30 22 C -8.710860 -2.037938 -0.809104 0
M  V30 23 O -9.210998 -1.401355 0.151528 0
M  V30 24 O -9.684979 -2.692361 -1.551412 0
M  V30 25 C -6.692546 -2.722531 -2.084767 0
M  V30 26 C -5.325887 -2.720706 -2.307216 0
M  V30 27 C -4.577288 -1.982263 -1.413039 0
M  V30 28 N -3.244754 -1.809298 -1.394232 0
M  V30 29 C -0.518709 -0.961926 -0.684342 0
M  V30 30 C 0.784114 -0.597424 -0.399180 0
M  V30 31 C 2.982669 -1.381636 2.471951 0
M  V30 32 N 1.703203 -2.002169 2.443396 0 CHG=1 VAL=4
M  V30 33 O 0.791727 -2.094806 3.286646 0
M  V30 34 O 0.741260 -2.053169 3.448813 0 CHG=-1 VAL=1
M  V30 35 H 3.393420 -3.090225 4.481121 0
M  V30 36 H 4.614788 -3.734218 3.296137 0
M  V30 37 H 5.151590 -2.712858 4.682538 0
M  V30 38 H 5.306042 2.329598 3.318002 0
M  V30 39 H 6.713520 4.135907 2.480398 0
M  V30 40 H 7.457611 4.114935 0.180291 0
M  V30 41 H 6.830091 2.307327 -1.357964 0
M  V30 42 H 5.383825 0.427356 -0.546134 0
M  V30 43 H 0.131545 1.283980 2.316832 0
M  V30 44 H -2.217736 0.585855 1.746077 0
M  V30 45 H -6.951813 -0.760974 0.660713 0
M  V30 46 H -10.331463 -3.367350 -1.113171 0
M  V30 47 H -7.354502 -3.268495 -2.728268 0
M  V30 48 H -4.920093 -3.277772 -3.141325 0
M  V30 49 H -2.550093 -2.226004 -2.082878 0
M  V30 50 H -0.670806 -1.597578 -1.539681 0
M  V30 51 H 1.600534 -0.954590 -1.031109 0
M  V30 END ATOM
M  V30 BEGIN BOND
M  V30 1 1 1 2
M  V30 2 2 2 3
M  V30 3 1 3 4
M  V30 4 1 4 5
M  V30 5 2 5 6
M  V30 6 1 6 7
M  V30 7 2 7 8
M  V30 8 1 8 9
M  V30 9 2 9 10
M  V30 10 1 4 11
M  V30 11 1 11 12
M  V30 12 1 12 13
M  V30 13 2 13 14
M  V30 14 1 14 15
M  V30 15 2 15 16
M  V30 16 1 16 17
M  V30 17 2 17 18
M  V30 18 1 18 19
M  V30 19 2 19 20
M  V30 20 1 20 21
M  V30 21 1 21 22
M  V30 22 2 22 23
M  V30 23 1 22 24
M  V30 24 2 21 25
M  V30 25 1 25 26
M  V30 26 2 26 27
M  V30 27 1 27 28
M  V30 28 1 16 29
M  V30 29 2 29 30
M  V30 30 2 11 31
M  V30 31 1 31 32
M  V30 32 2 32 33
M  V30 33 1 32 34
M  V30 34 1 31 2
M  V30 35 1 10 5
M  V30 36 1 30 13
M  V30 37 1 28 17
M  V30 38 1 27 19
M  V30 39 1 1 35
M  V30 40 1 1 36
M  V30 41 1 1 37
M  V30 42 1 6 38
M  V30 43 1 7 39
M  V30 44 1 8 40
M  V30 45 1 9 41
M  V30 46 1 10 42
M  V30 47 1 14 43
M  V30 48 1 15 44
M  V30 49 1 20 45
M  V30 50 1 24 46
M  V30 51 1 25 47
M  V30 52 1 26 48
M  V30 53 1 28 49
M  V30 54 1 29 50
M  V30 55 1 30 51
M  V30 END BOND
M  V30 END CTAB
M  END
>  <Dataset>  (108) 
ChEMBL_Kinases

>  <Ligand_Instance>  (108) 
nan

>  <PDB_ID>  (108) 
nan

>  <Standardized_SMILES>  (108) 
Cc1nn(-c2ccccc2)c(Oc2ccc(-c3nc4cc(C(=O)O)ccc4[nH]3)cc2)c1[N+](=O)[O-]

>  <Name>  (108) 
nan

>  <Pocket>  (108) 
nan

>  <ATP_Site>  (108) 
nan

>  <Peripheral>  (108) 
nan

>  <Num_H_Atoms_ProtBoundConf>  (108) 
nan

>  <Num_Resolved_Atoms>  (108) 
nan

>  <Num_Not_Resolved_Atoms>  (108) 
nan

$$$$
CHEMBL4082990
     RDKit          3D

  0  0  0  0  0  0  0  0  0  0999 V3000
M  V30 BEGIN CTAB
M  V30 COUNTS 65 69 0 0 0
M  V30 BEGIN ATOM
M  V30 1 O 3.343281 3.193781 3.926008 0
M  V30 2 C 3.831476 2.254072 3.252793 0
M  V30 3 N 4.810781 1.475195 3.911270 0
M  V30 4 C 5.164175 1.798100 5.251267 0
M  V30 5 C 4.466549 1.197074 6.296103 0
M  V30 6 C 4.787794 1.493279 7.605519 0
M  V30 7 C 5.801146 2.386113 7.883021 0
M  V30 8 C 6.531183 3.015454 6.867949 0
M  V30 9 C 6.173878 2.687906 5.562735 0
M  V30 10 N 3.381668 2.055711 1.940140 0
M  V30 11 C 2.419410 2.759135 1.176300 0
M  V30 12 C 2.155761 2.346132 -0.093669 0
M  V30 13 C 1.234681 2.977924 -0.896819 0
M  V30 14 C 0.523107 4.070624 -0.457978 0
M  V30 15 C -0.505191 4.801906 -1.268800 0
M  V30 16 N -1.838321 4.294900 -1.036876 0
M  V30 17 C -2.113126 2.929522 -1.326873 0
M  V30 18 N -1.605347 1.870050 -1.771547 0
M  V30 19 C -2.318885 0.763117 -1.845324 0
M  V30 20 C -1.747593 -0.394282 -2.335239 0
M  V30 21 C -2.468811 -1.554073 -2.418658 0
M  V30 22 C -3.787105 -1.658094 -2.030597 0
M  V30 23 O -4.771295 -2.593436 -1.967505 0
M  V30 24 C -4.784313 -3.941837 -2.303210 0
M  V30 25 C -3.825795 -4.711221 -1.471457 0
M  V30 26 N -3.799634 -6.152953 -1.777061 0
M  V30 27 C -3.248740 -6.396904 -3.083889 0
M  V30 28 C -2.990001 -7.896070 -3.184208 0
M  V30 29 O -1.990408 -8.297301 -2.291464 0
M  V30 30 C -2.536678 -8.132159 -1.015973 0
M  V30 31 C -2.799154 -6.673210 -0.828056 0
M  V30 32 C -4.344742 -0.464261 -1.536311 0
M  V30 33 C -3.624492 0.722424 -1.445681 0
M  V30 34 S -3.876113 2.354195 -0.927661 0
M  V30 35 C 0.762613 4.521119 0.826526 0
M  V30 36 C 1.695642 3.850894 1.587111 0
M  V30 37 H 5.248199 0.685294 3.398061 0
M  V30 38 H 3.667064 0.492445 6.099527 0
M  V30 39 H 4.289732 1.064961 8.467133 0
M  V30 40 H 6.087916 2.649647 8.910120 0
M  V30 41 H 7.307190 3.698816 7.127668 0
M  V30 42 H 6.728341 3.165879 4.765546 0
M  V30 43 H 3.873450 1.237377 1.498864 0
M  V30 44 H 2.677783 1.491721 -0.509025 0
M  V30 45 H 1.066943 2.615515 -1.890177 0
M  V30 46 H -0.399173 5.874177 -1.026392 0
M  V30 47 H -0.235574 4.731080 -2.364518 0
M  V30 48 H -2.527362 4.980438 -0.664641 0
M  V30 49 H -0.727148 -0.566319 -2.702280 0
M  V30 50 H -2.125949 -2.505213 -2.794556 0
M  V30 51 H -4.552716 -4.001867 -3.394592 0
M  V30 52 H -5.833519 -4.308407 -2.214107 0
M  V30 53 H -2.807362 -4.374002 -1.641410 0
M  V30 54 H -4.142104 -4.644313 -0.406711 0
M  V30 55 H -2.329846 -5.855536 -3.312820 0
M  V30 56 H -4.005435 -6.181112 -3.890528 0
M  V30 57 H -3.893107 -8.481052 -2.978090 0
M  V30 58 H -2.679925 -8.134048 -4.224935 0
M  V30 59 H -1.715856 -8.391989 -0.314486 0
M  V30 60 H -3.460561 -8.701141 -0.847806 0
M  V30 61 H -1.871623 -6.094772 -1.090231 0
M  V30 62 H -3.135145 -6.390678 0.173589 0
M  V30 63 H -5.362096 -0.252695 -1.158733 0
M  V30 64 H 0.226743 5.391507 1.238563 0
M  V30 65 H 1.842672 4.243652 2.579872 0
M  V30 END ATOM
M  V30 BEGIN BOND
M  V30 1 2 1 2
M  V30 2 1 2 3
M  V30 3 1 3 4
M  V30 4 2 4 5
M  V30 5 1 5 6
M  V30 6 2 6 7
M  V30 7 1 7 8
M  V30 8 2 8 9
M  V30 9 1 2 10
M  V30 10 1 10 11
M  V30 11 2 11 12
M  V30 12 1 12 13
M  V30 13 2 13 14
M  V30 14 1 14 15
M  V30 15 1 15 16
M  V30 16 1 16 17
M  V30 17 2 17 18
M  V30 18 1 18 19
M  V30 19 2 19 20
M  V30 20 1 20 21
M  V30 21 2 21 22
M  V30 22 1 22 23
M  V30 23 1 23 24
M  V30 24 1 24 25
M  V30 25 1 25 26
M  V30 26 1 26 27
M  V30 27 1 27 28
M  V30 28 1 28 29
M  V30 29 1 29 30
M  V30 30 1 30 31
M  V30 31 1 22 32
M  V30 32 2 32 33
M  V30 33 1 33 34
M  V30 34 1 14 35
M  V30 35 2 35 36
M  V30 36 1 9 4
M  V30 37 1 36 11
M  V30 38 1 34 17
M  V30 39 1 33 19
M  V30 40 1 31 26
M  V30 41 1 3 37
M  V30 42 1 5 38
M  V30 43 1 6 39
M  V30 44 1 7 40
M  V30 45 1 8 41
M  V30 46 1 9 42
M  V30 47 1 10 43
M  V30 48 1 12 44
M  V30 49 1 13 45
M  V30 50 1 15 46
M  V30 51 1 15 47
M  V30 52 1 16 48
M  V30 53 1 20 49
M  V30 54 1 21 50
M  V30 55 1 24 51
M  V30 56 1 24 52
M  V30 57 1 25 53
M  V30 58 1 25 54
M  V30 59 1 27 55
M  V30 60 1 27 56
M  V30 61 1 28 57
M  V30 62 1 28 58
M  V30 63 1 30 59
M  V30 64 1 30 60
M  V30 65 1 31 61
M  V30 66 1 31 62
M  V30 67 1 32 63
M  V30 68 1 35 64
M  V30 69 1 36 65
M  V30 END BOND
M  V30 END CTAB
M  END
>  <Dataset>  (109) 
ChEMBL_Kinases

>  <Ligand_Instance>  (109) 
nan

>  <PDB_ID>  (109) 
nan

>  <Standardized_SMILES>  (109) 
O=C(Nc1ccccc1)Nc1ccc(CNc2nc3ccc(OCCN4CCOCC4)cc3s2)cc1

>  <Name>  (109) 
nan

>  <Pocket>  (109) 
nan

>  <ATP_Site>  (109) 
nan

>  <Peripheral>  (109) 
nan

>  <Num_H_Atoms_ProtBoundConf>  (109) 
nan

>  <Num_Resolved_Atoms>  (109) 
nan

>  <Num_Not_Resolved_Atoms>  (109) 
nan

$$$$
CHEMBL485259
     RDKit          3D

  0  0  0  0  0  0  0  0  0  0999 V3000
M  V30 BEGIN CTAB
M  V30 COUNTS 29 30 0 0 0
M  V30 BEGIN ATOM
M  V30 1 C 0.818127 2.063466 1.060668 0
M  V30 2 C 0.391768 0.607781 1.117329 0
M  V30 3 C 0.710267 -0.011446 2.468946 0
M  V30 4 C 0.314908 -1.468798 2.371971 0
M  V30 5 C -0.315809 -1.723053 1.029177 0
M  V30 6 C -1.502850 -0.857071 0.745615 0
M  V30 7 C -1.114725 0.578457 0.996124 0
M  V30 8 C 0.737742 -1.384226 -0.020300 0
M  V30 9 C 0.160795 -1.705640 -1.386392 0
M  V30 10 C 1.927765 -2.286996 0.186226 0
M  V30 11 O 1.037613 -0.041093 0.082955 0
M  V30 12 H 0.253430 2.707818 1.748256 0
M  V30 13 H 0.634329 2.388351 0.011962 0
M  V30 14 H 1.899493 2.173926 1.240001 0
M  V30 15 H 0.047573 0.487271 3.198492 0
M  V30 16 H 1.768194 0.135438 2.726006 0
M  V30 17 H 1.264225 -2.050299 2.398977 0
M  V30 18 H -0.296292 -1.813122 3.216657 0
M  V30 19 H -0.559513 -2.784432 0.881122 0
M  V30 20 H -2.424859 -1.164863 1.257699 0
M  V30 21 H -1.701049 -0.931500 -0.354447 0
M  V30 22 H -1.510101 1.272238 0.243642 0
M  V30 23 H -1.528552 0.844557 2.001004 0
M  V30 24 H 0.935411 -2.209477 -2.021242 0
M  V30 25 H -0.682286 -2.423865 -1.304111 0
M  V30 26 H -0.181133 -0.804920 -1.919976 0
M  V30 27 H 2.296222 -2.684836 -0.795091 0
M  V30 28 H 1.584949 -3.196773 0.740021 0
M  V30 29 H 2.757255 -1.769291 0.727405 0
M  V30 END ATOM
M  V30 BEGIN BOND
M  V30 1 1 1 2
M  V30 2 1 2 3
M  V30 3 1 3 4
M  V30 4 1 4 5
M  V30 5 1 5 6
M  V30 6 1 6 7
M  V30 7 1 5 8
M  V30 8 1 8 9
M  V30 9 1 8 10
M  V30 10 1 8 11
M  V30 11 1 7 2
M  V30 12 1 11 2
M  V30 13 1 1 12
M  V30 14 1 1 13
M  V30 15 1 1 14
M  V30 16 1 3 15
M  V30 17 1 3 16
M  V30 18 1 4 17
M  V30 19 1 4 18
M  V30 20 1 5 19
M  V30 21 1 6 20
M  V30 22 1 6 21
M  V30 23 1 7 22
M  V30 24 1 7 23
M  V30 25 1 9 24
M  V30 26 1 9 25
M  V30 27 1 9 26
M  V30 28 1 10 27
M  V30 29 1 10 28
M  V30 30 1 10 29
M  V30 END BOND
M  V30 END CTAB
M  END
>  <Dataset>  (110) 
ChEMBL_Kinases

>  <Ligand_Instance>  (110) 
nan

>  <PDB_ID>  (110) 
nan

>  <Standardized_SMILES>  (110) 
CC12CCC(CC1)C(C)(C)O2

>  <Name>  (110) 
EUCALYPTOL

>  <Pocket>  (110) 
nan

>  <ATP_Site>  (110) 
nan

>  <Peripheral>  (110) 
nan

>  <Num_H_Atoms_ProtBoundConf>  (110) 
nan

>  <Num_Resolved_Atoms>  (110) 
nan

>  <Num_Not_Resolved_Atoms>  (110) 
nan

$$$$
CHEMBL4084426
     RDKit          3D

  0  0  0  0  0  0  0  0  0  0999 V3000
M  V30 BEGIN CTAB
M  V30 COUNTS 66 69 0 0 0
M  V30 BEGIN ATOM
M  V30 1 C 8.621649 -2.994636 3.209763 0
M  V30 2 N 7.725204 -1.916443 3.565826 0
M  V30 3 C 6.662508 -1.603788 2.628942 0
M  V30 4 O 6.707878 -2.354667 1.639269 0
M  V30 5 C 5.717841 -0.526373 2.912701 0
M  V30 6 C 5.673105 0.341874 3.984222 0
M  V30 7 C 4.690125 1.305479 4.067908 0
M  V30 8 C 3.706663 1.465398 3.109905 0
M  V30 9 C 3.791460 0.576537 2.061129 0
M  V30 10 C 4.752227 -0.425036 1.901646 0
M  V30 11 C 2.830781 0.571115 0.939405 0
M  V30 12 O 3.289628 0.129421 -0.157281 0
M  V30 13 C 1.429214 1.020658 0.983184 0
M  V30 14 C 0.751709 0.548004 -0.113687 0
M  V30 15 C -0.595923 0.922241 -0.174266 0
M  V30 16 C -1.198921 1.719004 0.811882 0
M  V30 17 N -2.577464 1.934145 0.503805 0
M  V30 18 C -3.292600 0.758760 0.107071 0
M  V30 19 C -3.868103 0.524713 -1.115054 0
M  V30 20 C -4.538222 -0.655645 -1.324984 0
M  V30 21 C -5.162640 -0.989758 -2.593162 0
M  V30 22 O -6.013070 -0.362818 -3.290168 0
M  V30 23 N -4.678302 -2.265948 -3.065575 0
M  V30 24 C -3.702260 -3.167814 -2.446037 0
M  V30 25 C -5.142860 -2.854409 -4.321653 0
M  V30 26 C -5.863556 -4.158323 -4.039618 0
M  V30 27 C -3.985118 -3.060702 -5.275751 0
M  V30 28 C -4.603505 -1.569961 -0.276713 0
M  V30 29 C -4.026188 -1.334984 0.948521 0
M  V30 30 C -3.334723 -0.135549 1.187668 0
M  V30 31 C -2.753155 0.054410 2.518510 0
M  V30 32 C -0.437167 2.148972 1.881071 0
M  V30 33 C 0.906608 1.806682 1.994320 0
M  V30 34 C 1.363800 2.410033 3.239554 0
M  V30 35 C 2.812683 2.562888 3.449318 0
M  V30 36 H 9.462470 -2.581419 2.619277 0
M  V30 37 H 8.034802 -3.758869 2.673860 0
M  V30 38 H 9.003166 -3.512499 4.132177 0
M  V30 39 H 7.839951 -1.387962 4.457988 0
M  V30 40 H 6.464692 0.163049 4.693909 0
M  V30 41 H 4.775072 1.924077 4.971571 0
M  V30 42 H 4.680446 -1.052161 1.008885 0
M  V30 43 H 1.240901 -0.062540 -0.855734 0
M  V30 44 H -1.093969 0.526260 -1.056807 0
M  V30 45 H -3.246527 2.727773 0.481309 0
M  V30 46 H -3.774258 1.279620 -1.867028 0
M  V30 47 H -2.992421 -2.577171 -1.804518 0
M  V30 48 H -3.023874 -3.610563 -3.231056 0
M  V30 49 H -4.154041 -4.015118 -1.937546 0
M  V30 50 H -5.870510 -2.181683 -4.804859 0
M  V30 51 H -5.866610 -4.445188 -2.981882 0
M  V30 52 H -5.395579 -4.986540 -4.629542 0
M  V30 53 H -6.931280 -4.144290 -4.358873 0
M  V30 54 H -4.346189 -3.004299 -6.321362 0
M  V30 55 H -3.197279 -2.278974 -5.090119 0
M  V30 56 H -3.487542 -4.046406 -5.162850 0
M  V30 57 H -5.116361 -2.516675 -0.362714 0
M  V30 58 H -4.092343 -2.073596 1.758428 0
M  V30 59 H -2.901378 1.094861 2.887368 0
M  V30 60 H -3.350101 -0.582435 3.239163 0
M  V30 61 H -1.718917 -0.324701 2.639124 0
M  V30 62 H -1.054349 2.748732 2.545493 0
M  V30 63 H 0.954621 1.868014 4.131154 0
M  V30 64 H 0.904185 3.438770 3.345459 0
M  V30 65 H 2.991217 2.926495 4.510597 0
M  V30 66 H 3.159480 3.447657 2.834694 0
M  V30 END ATOM
M  V30 BEGIN BOND
M  V30 1 1 1 2
M  V30 2 1 2 3
M  V30 3 2 3 4
M  V30 4 1 3 5
M  V30 5 2 5 6
M  V30 6 1 6 7
M  V30 7 2 7 8
M  V30 8 1 8 9
M  V30 9 2 9 10
M  V30 10 1 9 11
M  V30 11 2 11 12
M  V30 12 1 11 13
M  V30 13 2 13 14
M  V30 14 1 14 15
M  V30 15 2 15 16
M  V30 16 1 16 17
M  V30 17 1 17 18
M  V30 18 2 18 19
M  V30 19 1 19 20
M  V30 20 1 20 21
M  V30 21 2 21 22
M  V30 22 1 21 23
M  V30 23 1 23 24
M  V30 24 1 23 25
M  V30 25 1 25 26
M  V30 26 1 25 27
M  V30 27 2 20 28
M  V30 28 1 28 29
M  V30 29 2 29 30
M  V30 30 1 30 31
M  V30 31 1 16 32
M  V30 32 2 32 33
M  V30 33 1 33 34
M  V30 34 1 34 35
M  V30 35 1 10 5
M  V30 36 1 33 13
M  V30 37 1 35 8
M  V30 38 1 30 18
M  V30 39 1 1 36
M  V30 40 1 1 37
M  V30 41 1 1 38
M  V30 42 1 2 39
M  V30 43 1 6 40
M  V30 44 1 7 41
M  V30 45 1 10 42
M  V30 46 1 14 43
M  V30 47 1 15 44
M  V30 48 1 17 45
M  V30 49 1 19 46
M  V30 50 1 24 47
M  V30 51 1 24 48
M  V30 52 1 24 49
M  V30 53 1 25 50
M  V30 54 1 26 51
M  V30 55 1 26 52
M  V30 56 1 26 53
M  V30 57 1 27 54
M  V30 58 1 27 55
M  V30 59 1 27 56
M  V30 60 1 28 57
M  V30 61 1 29 58
M  V30 62 1 31 59
M  V30 63 1 31 60
M  V30 64 1 31 61
M  V30 65 1 32 62
M  V30 66 1 34 63
M  V30 67 1 34 64
M  V30 68 1 35 65
M  V30 69 1 35 66
M  V30 END BOND
M  V30 END CTAB
M  END
>  <Dataset>  (111) 
ChEMBL_Kinases

>  <Ligand_Instance>  (111) 
nan

>  <PDB_ID>  (111) 
nan

>  <Standardized_SMILES>  (111) 
CNC(=O)c1ccc2c(c1)C(=O)c1ccc(Nc3cc(C(=O)N(C)C(C)C)ccc3C)cc1CC2

>  <Name>  (111) 
nan

>  <Pocket>  (111) 
nan

>  <ATP_Site>  (111) 
nan

>  <Peripheral>  (111) 
nan

>  <Num_H_Atoms_ProtBoundConf>  (111) 
nan

>  <Num_Resolved_Atoms>  (111) 
nan

>  <Num_Not_Resolved_Atoms>  (111) 
nan

$$$$
CHEMBL4084376
     RDKit          3D

  0  0  0  0  0  0  0  0  0  0999 V3000
M  V30 BEGIN CTAB
M  V30 COUNTS 43 46 0 0 0
M  V30 BEGIN ATOM
M  V30 1 C 2.098809 -4.138768 4.112260 0
M  V30 2 O 3.375297 -3.552450 4.080270 0
M  V30 3 C 3.699445 -2.474016 3.283466 0
M  V30 4 C 5.023216 -2.117332 3.465446 0
M  V30 5 C 5.578732 -1.043334 2.757530 0
M  V30 6 C 4.733921 -0.380713 1.885181 0
M  V30 7 C 3.409352 -0.695581 1.666971 0
M  V30 8 C 2.518017 -0.005565 0.744330 0
M  V30 9 C 2.978450 1.050733 -0.012145 0
M  V30 10 C 2.097396 1.682106 -0.896600 0
M  V30 11 N 2.202131 2.716085 -1.765862 0
M  V30 12 C 1.003119 2.916290 -2.389313 0
M  V30 13 C 0.196273 1.950533 -1.841644 0
M  V30 14 N 0.845908 1.197936 -0.937805 0
M  V30 15 C 0.366572 0.171607 -0.214271 0
M  V30 16 N -0.975398 -0.267172 -0.343137 0
M  V30 17 C -2.171422 0.176679 0.250598 0
M  V30 18 N -2.201319 1.204180 1.102699 0
M  V30 19 C -3.378776 1.619007 1.657184 0
M  V30 20 C -4.561464 0.953620 1.322191 0
M  V30 21 C -4.545941 -0.108315 0.444677 0
M  V30 22 C -3.330811 -0.473298 -0.075646 0
M  V30 23 C -3.340007 -1.582915 -0.989506 0
M  V30 24 N -4.451797 -2.353454 -1.391299 0
M  V30 25 O -2.615747 -2.290794 -1.724131 0
M  V30 26 N 1.238071 -0.408086 0.620708 0
M  V30 27 C 2.933389 -1.760737 2.397160 0
M  V30 28 H 1.632709 -3.857879 5.087877 0
M  V30 29 H 1.452795 -3.814769 3.288209 0
M  V30 30 H 2.139485 -5.262762 4.020291 0
M  V30 31 H 5.762813 -2.586873 4.135387 0
M  V30 32 H 6.604003 -0.711628 2.851319 0
M  V30 33 H 5.153357 0.447294 1.336027 0
M  V30 34 H 3.975070 1.430703 0.026659 0
M  V30 35 H 0.826746 3.680440 -3.126172 0
M  V30 36 H -0.844887 1.924780 -2.206674 0
M  V30 37 H -0.798812 -1.029364 -1.022031 0
M  V30 38 H -3.359210 2.456983 2.343109 0
M  V30 39 H -5.481369 1.299391 1.773419 0
M  V30 40 H -5.469022 -0.635509 0.177272 0
M  V30 41 H -5.214993 -2.415514 -2.130530 0
M  V30 42 H -5.044090 -3.183755 -1.193766 0
M  V30 43 H 1.914957 -2.107166 2.319085 0
M  V30 END ATOM
M  V30 BEGIN BOND
M  V30 1 1 1 2
M  V30 2 1 2 3
M  V30 3 2 3 4
M  V30 4 1 4 5
M  V30 5 2 5 6
M  V30 6 1 6 7
M  V30 7 1 7 8
M  V30 8 2 8 9
M  V30 9 1 9 10
M  V30 10 2 10 11
M  V30 11 1 11 12
M  V30 12 2 12 13
M  V30 13 1 13 14
M  V30 14 1 14 15
M  V30 15 1 15 16
M  V30 16 1 16 17
M  V30 17 2 17 18
M  V30 18 1 18 19
M  V30 19 2 19 20
M  V30 20 1 20 21
M  V30 21 2 21 22
M  V30 22 1 22 23
M  V30 23 1 23 24
M  V30 24 2 23 25
M  V30 25 2 15 26
M  V30 26 2 7 27
M  V30 27 1 27 3
M  V30 28 1 26 8
M  V30 29 1 14 10
M  V30 30 1 22 17
M  V30 31 1 1 28
M  V30 32 1 1 29
M  V30 33 1 1 30
M  V30 34 1 4 31
M  V30 35 1 5 32
M  V30 36 1 6 33
M  V30 37 1 9 34
M  V30 38 1 12 35
M  V30 39 1 13 36
M  V30 40 1 16 37
M  V30 41 1 19 38
M  V30 42 1 20 39
M  V30 43 1 21 40
M  V30 44 1 24 41
M  V30 45 1 24 42
M  V30 46 1 27 43
M  V30 END BOND
M  V30 END CTAB
M  END
>  <Dataset>  (112) 
ChEMBL_Kinases

>  <Ligand_Instance>  (112) 
nan

>  <PDB_ID>  (112) 
nan

>  <Standardized_SMILES>  (112) 
COc1cccc(-c2cc3nccn3c(Nc3ncccc3C(N)=O)n2)c1

>  <Name>  (112) 
nan

>  <Pocket>  (112) 
nan

>  <ATP_Site>  (112) 
nan

>  <Peripheral>  (112) 
nan

>  <Num_H_Atoms_ProtBoundConf>  (112) 
nan

>  <Num_Resolved_Atoms>  (112) 
nan

>  <Num_Not_Resolved_Atoms>  (112) 
nan

$$$$
CHEMBL4084225
     RDKit          3D

  0  0  0  0  0  0  0  0  0  0999 V3000
M  V30 BEGIN CTAB
M  V30 COUNTS 45 47 0 0 0
M  V30 BEGIN ATOM
M  V30 1 C -3.007868 -3.510999 2.175576 0
M  V30 2 N -1.953041 -4.275951 1.546416 0
M  V30 3 C -1.778298 -4.611519 0.174806 0
M  V30 4 C -1.059514 -3.770852 -0.675626 0
M  V30 5 C -0.832832 -4.005141 -2.021268 0
M  V30 6 O -0.101080 -3.066772 -2.709005 0
M  V30 7 C 0.420515 -1.916062 -2.159719 0
M  V30 8 C -0.418421 -0.820350 -2.215301 0
M  V30 9 C 0.049405 0.376019 -1.676484 0
M  V30 10 C 1.319107 0.404141 -1.118518 0
M  V30 11 N 1.695989 1.686419 -0.594961 0
M  V30 12 C 1.375330 1.940879 0.765725 0
M  V30 13 O 0.785137 1.041834 1.434502 0
M  V30 14 N 1.694738 3.169741 1.400297 0
M  V30 15 C 1.315982 3.297391 2.775367 0
M  V30 16 C 2.196593 2.909616 3.782262 0
M  V30 17 C 1.811210 3.041269 5.099480 0
M  V30 18 C 0.586741 3.541892 5.481416 0
M  V30 19 C -0.264967 3.917817 4.467050 0
M  V30 20 Br -2.006561 4.634181 4.810509 0
M  V30 21 C 0.061569 3.811262 3.120125 0
M  V30 22 C 2.123783 -0.722716 -1.086528 0
M  V30 23 C 3.463867 -0.582327 -0.466548 0
M  V30 24 C 1.688681 -1.922192 -1.612041 0
M  V30 25 N -1.365552 -5.140109 -2.495386 0
M  V30 26 C -2.067969 -5.988362 -1.721982 0
M  V30 27 N -2.272466 -5.729795 -0.406194 0
M  V30 28 H -3.001607 -3.802450 3.247998 0
M  V30 29 H -3.972179 -3.788630 1.708293 0
M  V30 30 H -2.780552 -2.438518 2.018597 0
M  V30 31 H -1.090379 -4.752317 1.937442 0
M  V30 32 H -0.666036 -2.879728 -0.211465 0
M  V30 33 H -1.398231 -0.850363 -2.648208 0
M  V30 34 H -0.596632 1.244254 -1.712415 0
M  V30 35 H 2.187750 2.450744 -1.131829 0
M  V30 36 H 2.189077 3.943644 0.868175 0
M  V30 37 H 3.184952 2.504526 3.520277 0
M  V30 38 H 2.492531 2.741127 5.884544 0
M  V30 39 H 0.269777 3.651218 6.516718 0
M  V30 40 H -0.612107 4.108506 2.322324 0
M  V30 41 H 4.091739 0.031631 -1.141286 0
M  V30 42 H 3.905151 -1.567361 -0.241457 0
M  V30 43 H 3.335381 0.024055 0.462034 0
M  V30 44 H 2.311549 -2.798557 -1.588435 0
M  V30 45 H -2.481429 -6.904099 -2.165129 0
M  V30 END ATOM
M  V30 BEGIN BOND
M  V30 1 1 1 2
M  V30 2 1 2 3
M  V30 3 2 3 4
M  V30 4 1 4 5
M  V30 5 1 5 6
M  V30 6 1 6 7
M  V30 7 2 7 8
M  V30 8 1 8 9
M  V30 9 2 9 10
M  V30 10 1 10 11
M  V30 11 1 11 12
M  V30 12 2 12 13
M  V30 13 1 12 14
M  V30 14 1 14 15
M  V30 15 2 15 16
M  V30 16 1 16 17
M  V30 17 2 17 18
M  V30 18 1 18 19
M  V30 19 1 19 20
M  V30 20 2 19 21
M  V30 21 1 10 22
M  V30 22 1 22 23
M  V30 23 2 22 24
M  V30 24 2 5 25
M  V30 25 1 25 26
M  V30 26 2 26 27
M  V30 27 1 27 3
M  V30 28 1 24 7
M  V30 29 1 21 15
M  V30 30 1 1 28
M  V30 31 1 1 29
M  V30 32 1 1 30
M  V30 33 1 2 31
M  V30 34 1 4 32
M  V30 35 1 8 33
M  V30 36 1 9 34
M  V30 37 1 11 35
M  V30 38 1 14 36
M  V30 39 1 16 37
M  V30 40 1 17 38
M  V30 41 1 18 39
M  V30 42 1 21 40
M  V30 43 1 23 41
M  V30 44 1 23 42
M  V30 45 1 23 43
M  V30 46 1 24 44
M  V30 47 1 26 45
M  V30 END BOND
M  V30 END CTAB
M  END
>  <Dataset>  (113) 
ChEMBL_Kinases

>  <Ligand_Instance>  (113) 
nan

>  <PDB_ID>  (113) 
nan

>  <Standardized_SMILES>  (113) 
CNc1cc(Oc2ccc(NC(=O)Nc3cccc(Br)c3)c(C)c2)ncn1

>  <Name>  (113) 
nan

>  <Pocket>  (113) 
nan

>  <ATP_Site>  (113) 
nan

>  <Peripheral>  (113) 
nan

>  <Num_H_Atoms_ProtBoundConf>  (113) 
nan

>  <Num_Resolved_Atoms>  (113) 
nan

>  <Num_Not_Resolved_Atoms>  (113) 
nan

$$$$
CHEMBL4084191
     RDKit          3D

  0  0  0  0  0  0  0  0  0  0999 V3000
M  V30 BEGIN CTAB
M  V30 COUNTS 65 69 0 0 0
M  V30 BEGIN ATOM
M  V30 1 O 2.137282 1.169716 3.678645 0
M  V30 2 C 2.790553 1.547743 4.686877 0
M  V30 3 N 4.109298 1.107841 4.844739 0
M  V30 4 C 4.888560 0.263952 4.018395 0
M  V30 5 C 6.183091 -0.014566 4.391000 0
M  V30 6 C 7.011440 -0.823226 3.648416 0
M  V30 7 C 6.569641 -1.399105 2.476341 0
M  V30 8 C 5.278511 -1.147904 2.062962 0
M  V30 9 Cl 4.666825 -1.852776 0.584408 0
M  V30 10 C 4.496788 -0.331321 2.847483 0
M  V30 11 N 2.022181 2.397153 5.517203 0
M  V30 12 C 0.728648 2.529959 4.889071 0
M  V30 13 C 0.663356 3.559871 3.970058 0
M  V30 14 C -0.556161 3.714120 3.333024 0
M  V30 15 C -1.595685 2.869745 3.634754 0
M  V30 16 C -1.470324 1.842686 4.576097 0
M  V30 17 C -2.713001 1.040697 4.722982 0
M  V30 18 N -2.732550 -0.165890 3.967564 0
M  V30 19 C -2.349443 0.060462 2.452068 0
M  V30 20 N -2.040473 0.785190 1.660635 0
M  V30 21 C -1.772518 0.599426 0.392572 0
M  V30 22 C -1.379870 1.579755 -0.526916 0
M  V30 23 C -1.145291 1.121990 -1.811961 0
M  V30 24 C -1.248748 -0.168024 -2.298295 0
M  V30 25 O -0.964595 -0.375755 -3.598921 0
M  V30 26 C -0.973745 -1.474815 -4.424428 0
M  V30 27 C -2.328417 -2.068529 -4.604263 0
M  V30 28 N -2.376916 -3.225621 -5.485345 0
M  V30 29 C -1.728498 -4.315223 -4.847927 0
M  V30 30 C -2.556555 -4.975206 -3.773608 0
M  V30 31 O -3.850126 -4.479246 -3.683538 0
M  V30 32 C -4.393656 -4.532126 -4.964688 0
M  V30 33 C -3.765449 -3.451482 -5.783892 0
M  V30 34 C -1.635775 -1.096185 -1.363183 0
M  V30 35 C -1.880477 -0.657595 -0.050086 0
M  V30 36 S -2.381095 -1.531210 1.442394 0
M  V30 37 C -0.269278 1.672005 5.220567 0
M  V30 38 H 4.522148 1.494667 5.718624 0
M  V30 39 H 6.572225 0.421334 5.310185 0
M  V30 40 H 8.010622 -0.991257 4.008689 0
M  V30 41 H 7.220213 -2.034900 1.890407 0
M  V30 42 H 3.504200 -0.170076 2.478308 0
M  V30 43 H 2.522051 2.744680 6.383324 0
M  V30 44 H 1.493080 4.220476 3.741431 0
M  V30 45 H -0.607817 4.533255 2.602941 0
M  V30 46 H -2.490369 3.131760 3.048709 0
M  V30 47 H -3.619085 1.658086 4.580613 0
M  V30 48 H -2.730089 0.754211 5.810659 0
M  V30 49 H -2.959148 -1.100923 4.307344 0
M  V30 50 H -1.245161 2.643824 -0.328323 0
M  V30 51 H -0.835388 1.905013 -2.528222 0
M  V30 52 H -0.284449 -2.236691 -3.990772 0
M  V30 53 H -0.582555 -1.154415 -5.425272 0
M  V30 54 H -3.051028 -1.285134 -4.947807 0
M  V30 55 H -2.679627 -2.462714 -3.631900 0
M  V30 56 H -1.593792 -5.109400 -5.646869 0
M  V30 57 H -0.720607 -4.116060 -4.459388 0
M  V30 58 H -2.577440 -6.065341 -3.881887 0
M  V30 59 H -2.078727 -4.752642 -2.789993 0
M  V30 60 H -4.284930 -5.555309 -5.371709 0
M  V30 61 H -5.476940 -4.305704 -4.866664 0
M  V30 62 H -3.807156 -3.773835 -6.856350 0
M  V30 63 H -4.371462 -2.536418 -5.707503 0
M  V30 64 H -1.748846 -2.123214 -1.572487 0
M  V30 65 H -0.218516 0.882415 5.927497 0
M  V30 END ATOM
M  V30 BEGIN BOND
M  V30 1 2 1 2
M  V30 2 1 2 3
M  V30 3 1 3 4
M  V30 4 2 4 5
M  V30 5 1 5 6
M  V30 6 2 6 7
M  V30 7 1 7 8
M  V30 8 1 8 9
M  V30 9 2 8 10
M  V30 10 1 2 11
M  V30 11 1 11 12
M  V30 12 2 12 13
M  V30 13 1 13 14
M  V30 14 2 14 15
M  V30 15 1 15 16
M  V30 16 1 16 17
M  V30 17 1 17 18
M  V30 18 1 18 19
M  V30 19 2 19 20
M  V30 20 1 20 21
M  V30 21 2 21 22
M  V30 22 1 22 23
M  V30 23 2 23 24
M  V30 24 1 24 25
M  V30 25 1 25 26
M  V30 26 1 26 27
M  V30 27 1 27 28
M  V30 28 1 28 29
M  V30 29 1 29 30
M  V30 30 1 30 31
M  V30 31 1 31 32
M  V30 32 1 32 33
M  V30 33 1 24 34
M  V30 34 2 34 35
M  V30 35 1 35 36
M  V30 36 2 16 37
M  V30 37 1 10 4
M  V30 38 1 37 12
M  V30 39 1 36 19
M  V30 40 1 35 21
M  V30 41 1 33 28
M  V30 42 1 3 38
M  V30 43 1 5 39
M  V30 44 1 6 40
M  V30 45 1 7 41
M  V30 46 1 10 42
M  V30 47 1 11 43
M  V30 48 1 13 44
M  V30 49 1 14 45
M  V30 50 1 15 46
M  V30 51 1 17 47
M  V30 52 1 17 48
M  V30 53 1 18 49
M  V30 54 1 22 50
M  V30 55 1 23 51
M  V30 56 1 26 52
M  V30 57 1 26 53
M  V30 58 1 27 54
M  V30 59 1 27 55
M  V30 60 1 29 56
M  V30 61 1 29 57
M  V30 62 1 30 58
M  V30 63 1 30 59
M  V30 64 1 32 60
M  V30 65 1 32 61
M  V30 66 1 33 62
M  V30 67 1 33 63
M  V30 68 1 34 64
M  V30 69 1 37 65
M  V30 END BOND
M  V30 END CTAB
M  END
>  <Dataset>  (114) 
ChEMBL_Kinases

>  <Ligand_Instance>  (114) 
nan

>  <PDB_ID>  (114) 
nan

>  <Standardized_SMILES>  (114) 
O=C(Nc1cccc(Cl)c1)Nc1cccc(CNc2nc3ccc(OCCN4CCOCC4)cc3s2)c1

>  <Name>  (114) 
nan

>  <Pocket>  (114) 
nan

>  <ATP_Site>  (114) 
nan

>  <Peripheral>  (114) 
nan

>  <Num_H_Atoms_ProtBoundConf>  (114) 
nan

>  <Num_Resolved_Atoms>  (114) 
nan

>  <Num_Not_Resolved_Atoms>  (114) 
nan

$$$$
CHEMBL408417
     RDKit          3D

  0  0  0  0  0  0  0  0  0  0999 V3000
M  V30 BEGIN CTAB
M  V30 COUNTS 36 38 0 0 0
M  V30 BEGIN ATOM
M  V30 1 C 0.365515 -3.499917 2.442279 0
M  V30 2 C 1.650042 -3.609099 1.712774 0
M  V30 3 C 2.529070 -4.606008 2.106253 0
M  V30 4 C 3.727776 -4.751943 1.467678 0
M  V30 5 C 4.057438 -3.893559 0.421954 0
M  V30 6 C 3.170311 -2.886890 0.024338 0
M  V30 7 C 1.943406 -2.740786 0.681106 0
M  V30 8 N 0.989862 -1.744499 0.337100 0
M  V30 9 N -0.080481 -2.033136 -0.395606 0
M  V30 10 C -0.806989 -0.891292 -0.563222 0
M  V30 11 C -0.154054 0.127295 0.091659 0
M  V30 12 C -0.439470 1.541334 0.253226 0
M  V30 13 O 0.410405 2.236480 0.890564 0
M  V30 14 C -1.570284 2.323856 -0.206575 0
M  V30 15 C -1.358047 3.681887 -0.468934 0
M  V30 16 C -2.393425 4.509569 -0.908397 0
M  V30 17 C -3.663099 4.016311 -1.099154 0
M  V30 18 C -3.895637 2.702087 -0.851429 0
M  V30 19 C -2.862135 1.903866 -0.419151 0
M  V30 20 C 0.978471 -0.416628 0.657413 0
M  V30 21 N 2.040828 0.111158 1.443777 0
M  V30 22 H -0.133599 -4.492468 2.533247 0
M  V30 23 H -0.352744 -2.832338 1.971579 0
M  V30 24 H 0.638865 -3.204188 3.483466 0
M  V30 25 H 2.335224 -5.308795 2.912872 0
M  V30 26 H 4.492847 -5.506129 1.700120 0
M  V30 27 H 5.010128 -3.979845 -0.114577 0
M  V30 28 H 3.403936 -2.213700 -0.779568 0
M  V30 29 H -1.710084 -0.807082 -1.105376 0
M  V30 30 H -0.395093 4.139428 -0.343426 0
M  V30 31 H -2.208591 5.552453 -1.104740 0
M  V30 32 H -4.439265 4.681944 -1.439075 0
M  V30 33 H -4.887187 2.263762 -0.987953 0
M  V30 34 H -3.081186 0.879711 -0.226746 0
M  V30 35 H 2.945976 0.606365 1.195450 0
M  V30 36 H 1.954935 0.013921 2.482060 0
M  V30 END ATOM
M  V30 BEGIN BOND
M  V30 1 1 1 2
M  V30 2 2 2 3
M  V30 3 1 3 4
M  V30 4 2 4 5
M  V30 5 1 5 6
M  V30 6 2 6 7
M  V30 7 1 7 8
M  V30 8 1 8 9
M  V30 9 2 9 10
M  V30 10 1 10 11
M  V30 11 1 11 12
M  V30 12 2 12 13
M  V30 13 1 12 14
M  V30 14 2 14 15
M  V30 15 1 15 16
M  V30 16 2 16 17
M  V30 17 1 17 18
M  V30 18 2 18 19
M  V30 19 2 11 20
M  V30 20 1 20 21
M  V30 21 1 7 2
M  V30 22 1 20 8
M  V30 23 1 19 14
M  V30 24 1 1 22
M  V30 25 1 1 23
M  V30 26 1 1 24
M  V30 27 1 3 25
M  V30 28 1 4 26
M  V30 29 1 5 27
M  V30 30 1 6 28
M  V30 31 1 10 29
M  V30 32 1 15 30
M  V30 33 1 16 31
M  V30 34 1 17 32
M  V30 35 1 18 33
M  V30 36 1 19 34
M  V30 37 1 21 35
M  V30 38 1 21 36
M  V30 END BOND
M  V30 END CTAB
M  END
>  <Dataset>  (115) 
ChEMBL_Kinases

>  <Ligand_Instance>  (115) 
nan

>  <PDB_ID>  (115) 
nan

>  <Standardized_SMILES>  (115) 
Cc1ccccc1-n1ncc(C(=O)c2ccccc2)c1N

>  <Name>  (115) 
nan

>  <Pocket>  (115) 
nan

>  <ATP_Site>  (115) 
nan

>  <Peripheral>  (115) 
nan

>  <Num_H_Atoms_ProtBoundConf>  (115) 
nan

>  <Num_Resolved_Atoms>  (115) 
nan

>  <Num_Not_Resolved_Atoms>  (115) 
nan

$$$$
CHEMBL4084151
     RDKit          3D

  0  0  0  0  0  0  0  0  0  0999 V3000
M  V30 BEGIN CTAB
M  V30 COUNTS 49 54 0 0 0
M  V30 BEGIN ATOM
M  V30 1 O -1.253235 -4.341800 4.525920 0
M  V30 2 C -0.614586 -3.409005 3.967873 0
M  V30 3 N 0.613187 -2.875577 4.445105 0
M  V30 4 C 0.933418 -1.864848 3.497045 0
M  V30 5 O 2.003606 -1.178438 3.640036 0
M  V30 6 C -0.101733 -1.782624 2.441225 0
M  V30 7 C 0.019089 -0.791897 1.386379 0
M  V30 8 C 1.218712 -0.532931 0.704819 0
M  V30 9 N 1.065613 0.421287 -0.202148 0
M  V30 10 C 2.069605 0.972331 -1.109131 0
M  V30 11 C 2.760698 2.153174 -0.451902 0
M  V30 12 C 3.452356 1.748477 0.833099 0
M  V30 13 N 4.090672 2.909876 1.416711 0
M  V30 14 C 5.354819 2.677462 1.495958 0
M  V30 15 C 5.656576 1.336104 0.968141 0
M  V30 16 N 4.541444 0.845271 0.602441 0
M  V30 17 C -0.214689 0.845725 -0.179728 0
M  V30 18 C -0.906346 1.800276 -0.891558 0
M  V30 19 C -2.242014 2.000411 -0.616363 0
M  V30 20 C -2.888364 1.250916 0.366904 0
M  V30 21 C -2.168267 0.315542 1.049004 0
M  V30 22 C -0.838285 0.097361 0.792847 0
M  V30 23 C -1.008639 -2.698330 2.729242 0
M  V30 24 C -2.209209 -3.036578 1.984734 0
M  V30 25 N -3.389283 -3.228741 2.641509 0
M  V30 26 O -4.322741 -3.528459 1.795165 0
M  V30 27 C -3.882255 -3.563301 0.567860 0
M  V30 28 C -4.344742 -3.804607 -0.700009 0
M  V30 29 C -3.562947 -3.755355 -1.836388 0
M  V30 30 C -2.212406 -3.436824 -1.662615 0
M  V30 31 C -1.694079 -3.184547 -0.410614 0
M  V30 32 C -2.543717 -3.254249 0.667851 0
M  V30 33 H 1.131749 -3.172091 5.289556 0
M  V30 34 H 2.185089 -1.033279 0.869193 0
M  V30 35 H 2.811248 0.198048 -1.400644 0
M  V30 36 H 1.569248 1.316202 -2.020131 0
M  V30 37 H 3.518818 2.519856 -1.162553 0
M  V30 38 H 2.038219 2.951429 -0.252395 0
M  V30 39 H 2.706022 1.332955 1.564984 0
M  V30 40 H 5.870107 3.544592 1.937352 0
M  V30 41 H 6.725105 1.142475 1.036825 0
M  V30 42 H -0.375245 2.374684 -1.658061 0
M  V30 43 H -2.702943 2.766709 -1.221875 0
M  V30 44 H -3.935460 1.449721 0.541013 0
M  V30 45 H -2.685157 -0.241025 1.802834 0
M  V30 46 H -5.396993 -4.049687 -0.805622 0
M  V30 47 H -3.967382 -3.953416 -2.828056 0
M  V30 48 H -1.625105 -3.407596 -2.585271 0
M  V30 49 H -0.656681 -2.953134 -0.320962 0
M  V30 END ATOM
M  V30 BEGIN BOND
M  V30 1 2 1 2
M  V30 2 1 2 3
M  V30 3 1 3 4
M  V30 4 2 4 5
M  V30 5 1 4 6
M  V30 6 1 6 7
M  V30 7 2 7 8
M  V30 8 1 8 9
M  V30 9 1 9 10
M  V30 10 1 10 11
M  V30 11 1 11 12
M  V30 12 1 12 13
M  V30 13 2 13 14
M  V30 14 1 14 15
M  V30 15 2 15 16
M  V30 16 1 9 17
M  V30 17 2 17 18
M  V30 18 1 18 19
M  V30 19 2 19 20
M  V30 20 1 20 21
M  V30 21 2 21 22
M  V30 22 2 6 23
M  V30 23 1 23 24
M  V30 24 2 24 25
M  V30 25 1 25 26
M  V30 26 1 26 27
M  V30 27 2 27 28
M  V30 28 1 28 29
M  V30 29 2 29 30
M  V30 30 1 30 31
M  V30 31 2 31 32
M  V30 32 1 23 2
M  V30 33 1 32 24
M  V30 34 1 22 7
M  V30 35 1 32 27
M  V30 36 1 16 12
M  V30 37 1 22 17
M  V30 38 1 3 33
M  V30 39 1 8 34
M  V30 40 1 10 35
M  V30 41 1 10 36
M  V30 42 1 11 37
M  V30 43 1 11 38
M  V30 44 1 12 39
M  V30 45 1 14 40
M  V30 46 1 15 41
M  V30 47 1 18 42
M  V30 48 1 19 43
M  V30 49 1 20 44
M  V30 50 1 21 45
M  V30 51 1 28 46
M  V30 52 1 29 47
M  V30 53 1 30 48
M  V30 54 1 31 49
M  V30 END BOND
M  V30 END CTAB
M  END
>  <Dataset>  (116) 
ChEMBL_Kinases

>  <Ligand_Instance>  (116) 
nan

>  <PDB_ID>  (116) 
nan

>  <Standardized_SMILES>  (116) 
O=C1NC(=O)C(c2cn(CCC3N=CC=N3)c3ccccc23)=C1c1noc2ccccc12

>  <Name>  (116) 
nan

>  <Pocket>  (116) 
nan

>  <ATP_Site>  (116) 
nan

>  <Peripheral>  (116) 
nan

>  <Num_H_Atoms_ProtBoundConf>  (116) 
nan

>  <Num_Resolved_Atoms>  (116) 
nan

>  <Num_Not_Resolved_Atoms>  (116) 
nan

$$$$
CHEMBL4851835
     RDKit          3D

  0  0  0  0  0  0  0  0  0  0999 V3000
M  V30 BEGIN CTAB
M  V30 COUNTS 70 74 0 0 0
M  V30 BEGIN ATOM
M  V30 1 O 1.894112 -4.496712 4.183112 0
M  V30 2 C 1.241795 -3.624418 3.553588 0
M  V30 3 N 1.522696 -3.386669 2.179427 0
M  V30 4 C 2.546469 -4.116753 1.455222 0
M  V30 5 C 2.609093 -3.640313 0.009780 0
M  V30 6 C 1.305061 -3.852109 -0.685055 0
M  V30 7 C 1.548842 -3.875610 -2.190173 0
M  V30 8 N 2.709467 -3.096796 -2.493207 0
M  V30 9 C 2.817828 -2.669271 -3.866710 0
M  V30 10 C 1.650604 -1.841974 -4.240523 0
M  V30 11 C 1.699719 -0.469215 -3.991123 0
M  V30 12 C 0.706459 0.440249 -4.284449 0
M  V30 13 C -0.444851 -0.032421 -4.877300 0
M  V30 14 C -0.542716 -1.393967 -5.146648 0
M  V30 15 C 0.481767 -2.260986 -4.832547 0
M  V30 16 C 3.905750 -3.850363 -2.093153 0
M  V30 17 C 3.754026 -4.350190 -0.680665 0
M  V30 18 C 0.216803 -2.899803 4.297748 0
M  V30 19 C 0.037806 -3.222233 5.627159 0
M  V30 20 N -0.897938 -2.594238 6.399334 0
M  V30 21 C -1.675097 -1.630970 5.861237 0
M  V30 22 C -1.540252 -1.265680 4.533075 0
M  V30 23 N -2.308138 -0.266099 3.878291 0
M  V30 24 C -3.532279 -0.305753 3.170236 0
M  V30 25 O -4.184454 -1.365635 3.006386 0
M  V30 26 C -4.067187 0.928066 2.604042 0
M  V30 27 C -5.265812 0.828813 1.927057 0
M  V30 28 C -5.863340 1.953613 1.346429 0
M  V30 29 N -5.245324 3.132576 1.461799 0
M  V30 30 C -4.065481 3.279275 2.117932 0
M  V30 31 N -3.368338 4.516742 2.266925 0
M  V30 32 C -2.456363 4.717421 1.180106 0
M  V30 33 O -2.361354 3.850581 0.264930 0
M  V30 34 C -1.581757 5.912524 1.043565 0
M  V30 35 C -0.177608 5.741741 0.574990 0
M  V30 36 C -1.218914 6.442363 -0.299068 0
M  V30 37 C -3.476624 2.155048 2.693521 0
M  V30 38 C -0.578609 -1.915059 3.750293 0
M  V30 39 H 0.971889 -2.659853 1.672214 0
M  V30 40 H 2.413996 -5.198955 1.446725 0
M  V30 41 H 3.546392 -3.879210 1.909212 0
M  V30 42 H 2.895053 -2.552979 0.005878 0
M  V30 43 H 0.585945 -3.014502 -0.501197 0
M  V30 44 H 0.772442 -4.761008 -0.364377 0
M  V30 45 H 0.678620 -3.448903 -2.693339 0
M  V30 46 H 1.672358 -4.918398 -2.555534 0
M  V30 47 H 2.948855 -3.535627 -4.562569 0
M  V30 48 H 3.725184 -2.008762 -3.928016 0
M  V30 49 H 2.601337 -0.073451 -3.522718 0
M  V30 50 H 0.844218 1.477546 -4.050765 0
M  V30 51 H -1.257036 0.615439 -5.133233 0
M  V30 52 H -1.424950 -1.812515 -5.610580 0
M  V30 53 H 0.408895 -3.324304 -5.047199 0
M  V30 54 H 4.067685 -4.693878 -2.767678 0
M  V30 55 H 4.778696 -3.146361 -2.154010 0
M  V30 56 H 3.619418 -5.449537 -0.676995 0
M  V30 57 H 4.684765 -4.139105 -0.123142 0
M  V30 58 H 0.600133 -3.978270 6.174455 0
M  V30 59 H -2.441338 -1.082382 6.402691 0
M  V30 60 H -1.730233 0.587866 4.040819 0
M  V30 61 H -5.836327 -0.089873 1.785133 0
M  V30 62 H -6.804132 1.883099 0.813522 0
M  V30 63 H -3.361646 5.295783 2.961475 0
M  V30 64 H -1.706692 6.633995 1.866272 0
M  V30 65 H 0.211319 4.757611 0.243733 0
M  V30 66 H 0.624646 6.390128 0.983951 0
M  V30 67 H -1.489871 5.863566 -1.210008 0
M  V30 68 H -1.103500 7.556207 -0.425025 0
M  V30 69 H -2.555463 2.249221 3.209683 0
M  V30 70 H -0.454747 -1.652686 2.723561 0
M  V30 END ATOM
M  V30 BEGIN BOND
M  V30 1 2 1 2
M  V30 2 1 2 3
M  V30 3 1 3 4
M  V30 4 1 4 5
M  V30 5 1 5 6
M  V30 6 1 6 7
M  V30 7 1 7 8
M  V30 8 1 8 9
M  V30 9 1 9 10
M  V30 10 2 10 11
M  V30 11 1 11 12
M  V30 12 2 12 13
M  V30 13 1 13 14
M  V30 14 2 14 15
M  V30 15 1 8 16
M  V30 16 1 16 17
M  V30 17 1 2 18
M  V30 18 2 18 19
M  V30 19 1 19 20
M  V30 20 2 20 21
M  V30 21 1 21 22
M  V30 22 1 22 23
M  V30 23 1 23 24
M  V30 24 2 24 25
M  V30 25 1 24 26
M  V30 26 2 26 27
M  V30 27 1 27 28
M  V30 28 2 28 29
M  V30 29 1 29 30
M  V30 30 1 30 31
M  V30 31 1 31 32
M  V30 32 2 32 33
M  V30 33 1 32 34
M  V30 34 1 34 35
M  V30 35 1 35 36
M  V30 36 2 30 37
M  V30 37 2 22 38
M  V30 38 1 17 5
M  V30 39 1 38 18
M  V30 40 1 15 10
M  V30 41 1 37 26
M  V30 42 1 36 34
M  V30 43 1 3 39
M  V30 44 1 4 40
M  V30 45 1 4 41
M  V30 46 1 5 42
M  V30 47 1 6 43
M  V30 48 1 6 44
M  V30 49 1 7 45
M  V30 50 1 7 46
M  V30 51 1 9 47
M  V30 52 1 9 48
M  V30 53 1 11 49
M  V30 54 1 12 50
M  V30 55 1 13 51
M  V30 56 1 14 52
M  V30 57 1 15 53
M  V30 58 1 16 54
M  V30 59 1 16 55
M  V30 60 1 17 56
M  V30 61 1 17 57
M  V30 62 1 19 58
M  V30 63 1 21 59
M  V30 64 1 23 60
M  V30 65 1 27 61
M  V30 66 1 28 62
M  V30 67 1 31 63
M  V30 68 1 34 64
M  V30 69 1 35 65
M  V30 70 1 35 66
M  V30 71 1 36 67
M  V30 72 1 36 68
M  V30 73 1 37 69
M  V30 74 1 38 70
M  V30 END BOND
M  V30 END CTAB
M  END
>  <Dataset>  (117) 
ChEMBL_Kinases

>  <Ligand_Instance>  (117) 
nan

>  <PDB_ID>  (117) 
nan

>  <Standardized_SMILES>  (117) 
O=C(NCC1CCN(Cc2ccccc2)CC1)c1cncc(NC(=O)c2ccnc(NC(=O)C3CC3)c2)c1

>  <Name>  (117) 
nan

>  <Pocket>  (117) 
nan

>  <ATP_Site>  (117) 
nan

>  <Peripheral>  (117) 
nan

>  <Num_H_Atoms_ProtBoundConf>  (117) 
nan

>  <Num_Resolved_Atoms>  (117) 
nan

>  <Num_Not_Resolved_Atoms>  (117) 
nan

$$$$
CHEMBL4084103
     RDKit          3D

  0  0  0  0  0  0  0  0  0  0999 V3000
M  V30 BEGIN CTAB
M  V30 COUNTS 60 62 0 0 0
M  V30 BEGIN ATOM
M  V30 1 C -3.493996 -4.628355 7.883175 0
M  V30 2 O -2.532298 -3.590771 7.943332 0
M  V30 3 C -1.480228 -3.444386 7.054310 0
M  V30 4 O -1.586070 -4.398511 6.236480 0
M  V30 5 N -0.531165 -2.376586 7.156172 0
M  V30 6 C 0.442124 -2.479722 6.103034 0
M  V30 7 C 0.221503 -1.851285 4.894562 0
M  V30 8 C 1.086536 -1.884325 3.817698 0
M  V30 9 C 0.758025 -1.183067 2.579285 0
M  V30 10 C 1.821504 -0.696097 1.853279 0
M  V30 11 C 1.487454 -0.039710 0.692412 0
M  V30 12 C 0.222766 0.172522 0.196967 0
M  V30 13 O -0.319235 0.759114 -0.863817 0
M  V30 14 C -0.065713 1.421689 -1.990479 0
M  V30 15 C 0.722052 0.758430 -3.097983 0 CFG=1
M  V30 16 C 2.150697 0.618679 -2.684937 0
M  V30 17 N 0.098905 -0.449104 -3.564843 0
M  V30 18 C 0.695024 1.755108 -4.249398 0
M  V30 19 C 1.411528 1.311816 -5.472247 0
M  V30 20 C 0.803655 0.015064 -6.017777 0
M  V30 21 C 1.135963 2.360959 -6.564586 0
M  V30 22 C -0.802852 -0.353404 0.994467 0
M  V30 23 C -2.266642 -0.259990 0.692996 0
M  V30 24 C -2.900305 -1.295137 -0.165177 0
M  V30 25 C -3.218756 -1.228110 1.282928 0
M  V30 26 C -0.553943 -1.031474 2.184095 0
M  V30 27 C 2.263162 -2.618303 4.001255 0
M  V30 28 C 2.480861 -3.246687 5.213572 0
M  V30 29 N 1.592860 -3.170409 6.217604 0
M  V30 30 H -3.249643 -5.508006 8.480470 0
M  V30 31 H -3.603428 -4.896153 6.792350 0
M  V30 32 H -4.522355 -4.241468 8.144914 0
M  V30 33 H -0.677019 -1.708561 7.944849 0
M  V30 34 H -0.695766 -1.298492 4.798136 0
M  V30 35 H 2.865699 -0.781565 2.107567 0
M  V30 36 H 2.261695 0.368000 0.096749 0
M  V30 37 H 0.442513 2.415022 -1.788076 0
M  V30 38 H -1.063664 1.713704 -2.468510 0
M  V30 39 H 2.281366 -0.378432 -2.170318 0
M  V30 40 H 2.884081 0.596325 -3.511155 0
M  V30 41 H 2.491885 1.445629 -2.024434 0
M  V30 42 H 0.224735 -1.245377 -2.879288 0
M  V30 43 H -0.943852 -0.263512 -3.567731 0
M  V30 44 H 1.098834 2.702614 -3.854460 0
M  V30 45 H -0.366469 1.985755 -4.556351 0
M  V30 46 H 2.483293 1.161582 -5.388202 0
M  V30 47 H 1.275844 -0.887230 -5.578811 0
M  V30 48 H -0.282730 0.042785 -5.855335 0
M  V30 49 H 0.963459 -0.047111 -7.116027 0
M  V30 50 H 0.047885 2.596206 -6.573037 0
M  V30 51 H 1.758427 3.248364 -6.469177 0
M  V30 52 H 1.334471 1.896104 -7.553016 0
M  V30 53 H -2.667057 0.767707 0.572828 0
M  V30 54 H -2.232722 -2.067833 -0.578807 0
M  V30 55 H -3.699723 -0.985232 -0.855024 0
M  V30 56 H -4.250491 -0.869983 1.573766 0
M  V30 57 H -2.936662 -2.110578 1.860824 0
M  V30 58 H -1.288641 -1.461410 2.848606 0
M  V30 59 H 2.963979 -2.665383 3.177089 0
M  V30 60 H 3.415316 -3.816385 5.328099 0
M  V30 END ATOM
M  V30 BEGIN BOND
M  V30 1 1 1 2
M  V30 2 1 2 3
M  V30 3 2 3 4
M  V30 4 1 3 5
M  V30 5 1 5 6
M  V30 6 2 6 7
M  V30 7 1 7 8
M  V30 8 1 8 9
M  V30 9 2 9 10
M  V30 10 1 10 11
M  V30 11 2 11 12
M  V30 12 1 12 13
M  V30 13 1 13 14
M  V30 14 1 14 15
M  V30 15 1 15 16
M  V30 16 1 15 17 CFG=3
M  V30 17 1 15 18
M  V30 18 1 18 19
M  V30 19 1 19 20
M  V30 20 1 19 21
M  V30 21 1 12 22
M  V30 22 1 22 23
M  V30 23 1 23 24
M  V30 24 1 24 25
M  V30 25 2 22 26
M  V30 26 2 8 27
M  V30 27 1 27 28
M  V30 28 2 28 29
M  V30 29 1 29 6
M  V30 30 1 26 9
M  V30 31 1 25 23
M  V30 32 1 1 30
M  V30 33 1 1 31
M  V30 34 1 1 32
M  V30 35 1 5 33
M  V30 36 1 7 34
M  V30 37 1 10 35
M  V30 38 1 11 36
M  V30 39 1 14 37
M  V30 40 1 14 38
M  V30 41 1 16 39
M  V30 42 1 16 40
M  V30 43 1 16 41
M  V30 44 1 17 42
M  V30 45 1 17 43
M  V30 46 1 18 44
M  V30 47 1 18 45
M  V30 48 1 19 46
M  V30 49 1 20 47
M  V30 50 1 20 48
M  V30 51 1 20 49
M  V30 52 1 21 50
M  V30 53 1 21 51
M  V30 54 1 21 52
M  V30 55 1 23 53
M  V30 56 1 24 54
M  V30 57 1 24 55
M  V30 58 1 25 56
M  V30 59 1 25 57
M  V30 60 1 26 58
M  V30 61 1 27 59
M  V30 62 1 28 60
M  V30 END BOND
M  V30 END CTAB
M  END
>  <Dataset>  (118) 
ChEMBL_Kinases

>  <Ligand_Instance>  (118) 
nan

>  <PDB_ID>  (118) 
nan

>  <Standardized_SMILES>  (118) 
COC(=O)Nc1cc(-c2ccc(OC[C@@](C)(N)CC(C)C)c(C3CC3)c2)ccn1

>  <Name>  (118) 
nan

>  <Pocket>  (118) 
nan

>  <ATP_Site>  (118) 
nan

>  <Peripheral>  (118) 
nan

>  <Num_H_Atoms_ProtBoundConf>  (118) 
nan

>  <Num_Resolved_Atoms>  (118) 
nan

>  <Num_Not_Resolved_Atoms>  (118) 
nan

$$$$
CHEMBL4851865
     RDKit          3D

  0  0  0  0  0  0  0  0  0  0999 V3000
M  V30 BEGIN CTAB
M  V30 COUNTS 73 77 0 0 0
M  V30 BEGIN ATOM
M  V30 1 C 1.030142 3.132347 4.090733 0
M  V30 2 C 0.528571 4.116753 3.110517 0
M  V30 3 C -0.286842 5.139364 3.535243 0
M  V30 4 C -0.742533 6.048335 2.592684 0
M  V30 5 C -0.354130 5.883245 1.263123 0
M  V30 6 C 0.472734 4.840261 0.851687 0
M  V30 7 C 0.725560 4.905198 -0.604362 0
M  V30 8 N -0.252249 4.195142 -1.358724 0
M  V30 9 C -0.325066 2.802405 -1.081242 0
M  V30 10 C -0.764600 1.981779 -2.274675 0
M  V30 11 C 0.163709 2.149066 -3.447951 0
M  V30 12 C 1.501247 1.496715 -3.242393 0
M  V30 13 N 1.408011 0.073584 -3.019825 0
M  V30 14 C 2.638144 -0.612967 -2.816667 0
M  V30 15 O 3.741387 -0.015156 -2.831602 0
M  V30 16 C 2.681958 -2.053027 -2.579363 0
M  V30 17 C 3.913667 -2.653442 -2.407270 0
M  V30 18 N 4.062594 -3.991254 -2.178106 0
M  V30 19 C 2.961945 -4.791896 -2.111602 0
M  V30 20 C 1.711139 -4.230731 -2.278277 0
M  V30 21 N 0.534284 -5.065314 -2.208728 0
M  V30 22 C 0.141600 -5.061917 -0.820948 0
M  V30 23 O 0.949137 -4.339187 -0.143155 0
M  V30 24 C -1.023576 -5.791329 -0.282282 0
M  V30 25 C -1.925386 -6.578764 -0.989738 0
M  V30 26 C -2.949787 -7.170918 -0.261450 0
M  V30 27 N -3.060672 -6.990155 1.058606 0
M  V30 28 C -2.202786 -6.234218 1.766759 0
M  V30 29 N -2.354684 -6.067491 3.171130 0
M  V30 30 C -3.433022 -6.711368 3.843168 0
M  V30 31 O -4.251557 -7.424451 3.212188 0
M  V30 32 C -3.523499 -6.489899 5.302345 0
M  V30 33 C -3.353497 -5.050600 5.786539 0
M  V30 34 C -2.369131 -6.152854 6.141218 0
M  V30 35 C -1.174929 -5.629728 1.088046 0
M  V30 36 C 1.569719 -2.866098 -2.511485 0
M  V30 37 C 0.343829 3.609249 -3.688475 0
M  V30 38 C -0.356838 4.518075 -2.738924 0
M  V30 39 C 0.910782 3.956141 1.795641 0
M  V30 40 H 1.808817 3.571522 4.770472 0
M  V30 41 H 0.194138 2.855933 4.783618 0
M  V30 42 H 1.401843 2.209507 3.615278 0
M  V30 43 H -0.543068 5.200552 4.577015 0
M  V30 44 H -1.370003 6.825005 2.956691 0
M  V30 45 H -0.779791 6.659286 0.637382 0
M  V30 46 H 0.879445 5.932416 -0.967151 0
M  V30 47 H 1.706116 4.365040 -0.764759 0
M  V30 48 H -1.061682 2.627196 -0.272801 0
M  V30 49 H 0.664491 2.492327 -0.703633 0
M  V30 50 H -1.745031 2.397019 -2.590055 0
M  V30 51 H -0.929575 0.956952 -1.948657 0
M  V30 52 H -0.331108 1.703550 -4.333603 0
M  V30 53 H 2.027111 2.044747 -2.440500 0
M  V30 54 H 2.095649 1.642446 -4.167854 0
M  V30 55 H 0.502887 -0.415958 -3.008736 0
M  V30 56 H 4.864149 -2.136424 -2.435690 0
M  V30 57 H 3.059641 -5.868410 -1.928434 0
M  V30 58 H -0.072596 -5.639318 -2.868944 0
M  V30 59 H -1.717910 -6.636028 -2.034320 0
M  V30 60 H -3.619242 -7.769988 -0.860495 0
M  V30 61 H -1.671999 -5.474951 3.686597 0
M  V30 62 H -4.378738 -7.008237 5.797965 0
M  V30 63 H -3.998130 -4.674870 6.591351 0
M  V30 64 H -3.068089 -4.324717 4.991585 0
M  V30 65 H -2.346440 -6.500337 7.195615 0
M  V30 66 H -1.350315 -6.024008 5.718545 0
M  V30 67 H -0.497451 -5.021336 1.705310 0
M  V30 68 H 0.594468 -2.417563 -2.643320 0
M  V30 69 H 1.435772 3.880434 -3.643433 0
M  V30 70 H 0.041684 3.918128 -4.720718 0
M  V30 71 H -1.442266 4.522487 -2.996092 0
M  V30 72 H 0.055944 5.544533 -2.863372 0
M  V30 73 H 1.546641 3.182545 1.395888 0
M  V30 END ATOM
M  V30 BEGIN BOND
M  V30 1 1 1 2
M  V30 2 2 2 3
M  V30 3 1 3 4
M  V30 4 2 4 5
M  V30 5 1 5 6
M  V30 6 1 6 7
M  V30 7 1 7 8
M  V30 8 1 8 9
M  V30 9 1 9 10
M  V30 10 1 10 11
M  V30 11 1 11 12
M  V30 12 1 12 13
M  V30 13 1 13 14
M  V30 14 2 14 15
M  V30 15 1 14 16
M  V30 16 2 16 17
M  V30 17 1 17 18
M  V30 18 2 18 19
M  V30 19 1 19 20
M  V30 20 1 20 21
M  V30 21 1 21 22
M  V30 22 2 22 23
M  V30 23 1 22 24
M  V30 24 2 24 25
M  V30 25 1 25 26
M  V30 26 2 26 27
M  V30 27 1 27 28
M  V30 28 1 28 29
M  V30 29 1 29 30
M  V30 30 2 30 31
M  V30 31 1 30 32
M  V30 32 1 32 33
M  V30 33 1 33 34
M  V30 34 2 28 35
M  V30 35 2 20 36
M  V30 36 1 11 37
M  V30 37 1 37 38
M  V30 38 2 6 39
M  V30 39 1 39 2
M  V30 40 1 38 8
M  V30 41 1 36 16
M  V30 42 1 35 24
M  V30 43 1 34 32
M  V30 44 1 1 40
M  V30 45 1 1 41
M  V30 46 1 1 42
M  V30 47 1 3 43
M  V30 48 1 4 44
M  V30 49 1 5 45
M  V30 50 1 7 46
M  V30 51 1 7 47
M  V30 52 1 9 48
M  V30 53 1 9 49
M  V30 54 1 10 50
M  V30 55 1 10 51
M  V30 56 1 11 52
M  V30 57 1 12 53
M  V30 58 1 12 54
M  V30 59 1 13 55
M  V30 60 1 17 56
M  V30 61 1 19 57
M  V30 62 1 21 58
M  V30 63 1 25 59
M  V30 64 1 26 60
M  V30 65 1 29 61
M  V30 66 1 32 62
M  V30 67 1 33 63
M  V30 68 1 33 64
M  V30 69 1 34 65
M  V30 70 1 34 66
M  V30 71 1 35 67
M  V30 72 1 36 68
M  V30 73 1 37 69
M  V30 74 1 37 70
M  V30 75 1 38 71
M  V30 76 1 38 72
M  V30 77 1 39 73
M  V30 END BOND
M  V30 END CTAB
M  END
>  <Dataset>  (119) 
ChEMBL_Kinases

>  <Ligand_Instance>  (119) 
nan

>  <PDB_ID>  (119) 
nan

>  <Standardized_SMILES>  (119) 
Cc1cccc(CN2CCC(CNC(=O)c3cncc(NC(=O)c4ccnc(NC(=O)C5CC5)c4)c3)CC2)c1

>  <Name>  (119) 
nan

>  <Pocket>  (119) 
nan

>  <ATP_Site>  (119) 
nan

>  <Peripheral>  (119) 
nan

>  <Num_H_Atoms_ProtBoundConf>  (119) 
nan

>  <Num_Resolved_Atoms>  (119) 
nan

>  <Num_Not_Resolved_Atoms>  (119) 
nan

$$$$
CHEMBL4084097
     RDKit          3D

  0  0  0  0  0  0  0  0  0  0999 V3000
M  V30 BEGIN CTAB
M  V30 COUNTS 35 37 0 0 0
M  V30 BEGIN ATOM
M  V30 1 N 1.236562 -3.071065 4.012545 0
M  V30 2 C 1.856898 -2.731565 3.093985 0
M  V30 3 C 2.642515 -2.324179 1.969982 0
M  V30 4 C 3.992540 -2.662006 1.866504 0
M  V30 5 N 4.497848 -2.162774 0.726002 0
M  V30 6 C 3.488642 -1.522537 0.120652 0
M  V30 7 N 3.399450 -0.835231 -1.043359 0
M  V30 8 C 2.255303 -0.276164 -1.435820 0
M  V30 9 N 2.184330 0.445893 -2.670415 0
M  V30 10 N 1.138983 -0.376726 -0.681269 0
M  V30 11 C 1.134761 -1.040746 0.490033 0
M  V30 12 N -0.062664 -1.118514 1.246269 0
M  V30 13 C -1.219612 -0.456476 0.696498 0
M  V30 14 C -2.411098 -0.702171 1.625378 0
M  V30 15 C -3.511373 0.296725 1.357814 0
M  V30 16 C -3.336600 0.930233 0.015653 0
M  V30 17 C -2.077130 1.798389 0.045025 0
M  V30 18 C -0.994181 1.056294 0.763916 0
M  V30 19 C 2.340805 -1.600672 0.852007 0
M  V30 20 H 4.596642 -3.227360 2.549526 0
M  V30 21 H 5.468538 -2.236253 0.353263 0
M  V30 22 H 2.388886 1.453759 -2.559969 0
M  V30 23 H 1.975892 0.227356 -3.685306 0
M  V30 24 H -0.146376 -1.614990 2.152085 0
M  V30 25 H -1.387612 -0.814182 -0.319138 0
M  V30 26 H -2.727553 -1.754461 1.464753 0
M  V30 27 H -2.059393 -0.530419 2.659109 0
M  V30 28 H -3.572821 1.103286 2.105221 0
M  V30 29 H -4.501673 -0.210962 1.378635 0
M  V30 30 H -3.232006 0.125524 -0.736204 0
M  V30 31 H -4.190263 1.543878 -0.272834 0
M  V30 32 H -2.390202 2.736754 0.547263 0
M  V30 33 H -1.787314 2.017988 -0.997308 0
M  V30 34 H -1.113320 1.317867 1.857368 0
M  V30 35 H 0.016759 1.344053 0.481424 0
M  V30 END ATOM
M  V30 BEGIN BOND
M  V30 1 3 1 2
M  V30 2 1 2 3
M  V30 3 2 3 4
M  V30 4 1 4 5
M  V30 5 1 5 6
M  V30 6 2 6 7
M  V30 7 1 7 8
M  V30 8 1 8 9
M  V30 9 2 8 10
M  V30 10 1 10 11
M  V30 11 1 11 12
M  V30 12 1 12 13
M  V30 13 1 13 14
M  V30 14 1 14 15
M  V30 15 1 15 16
M  V30 16 1 16 17
M  V30 17 1 17 18
M  V30 18 2 11 19
M  V30 19 1 19 3
M  V30 20 1 19 6
M  V30 21 1 18 13
M  V30 22 1 4 20
M  V30 23 1 5 21
M  V30 24 1 9 22
M  V30 25 1 9 23
M  V30 26 1 12 24
M  V30 27 1 13 25
M  V30 28 1 14 26
M  V30 29 1 14 27
M  V30 30 1 15 28
M  V30 31 1 15 29
M  V30 32 1 16 30
M  V30 33 1 16 31
M  V30 34 1 17 32
M  V30 35 1 17 33
M  V30 36 1 18 34
M  V30 37 1 18 35
M  V30 END BOND
M  V30 END CTAB
M  END
>  <Dataset>  (120) 
ChEMBL_Kinases

>  <Ligand_Instance>  (120) 
nan

>  <PDB_ID>  (120) 
nan

>  <Standardized_SMILES>  (120) 
N#Cc1c[nH]c2nc(N)nc(NC3CCCCC3)c12

>  <Name>  (120) 
nan

>  <Pocket>  (120) 
nan

>  <ATP_Site>  (120) 
nan

>  <Peripheral>  (120) 
nan

>  <Num_H_Atoms_ProtBoundConf>  (120) 
nan

>  <Num_Resolved_Atoms>  (120) 
nan

>  <Num_Not_Resolved_Atoms>  (120) 
nan

$$$$
CHEMBL4084054
     RDKit          3D

  0  0  0  0  0  0  0  0  0  0999 V3000
M  V30 BEGIN CTAB
M  V30 COUNTS 45 48 0 0 0
M  V30 BEGIN ATOM
M  V30 1 C -0.254818 -6.585677 3.382350 0
M  V30 2 N -0.351956 -5.135345 3.428915 0
M  V30 3 C -0.462057 -4.453035 4.593550 0
M  V30 4 N -0.544850 -3.136828 4.379409 0
M  V30 5 C -0.489321 -2.925359 3.029471 0
M  V30 6 N -0.565552 -1.664969 2.454196 0
M  V30 7 C -0.478409 -1.009933 1.209632 0
M  V30 8 N 0.568396 -0.180034 0.906269 0
M  V30 9 C 0.622438 0.454854 -0.291641 0
M  V30 10 N 1.709160 1.312874 -0.612710 0
M  V30 11 C 1.568566 2.379327 -1.624135 0
M  V30 12 C 1.744612 3.730850 -0.977713 0
M  V30 13 C 2.198569 3.647672 0.445437 0
M  V30 14 N 2.696765 4.918681 0.937985 0
M  V30 15 C 3.231207 2.588981 0.694027 0
M  V30 16 C 3.057528 1.318630 -0.069265 0
M  V30 17 N -0.347634 0.282382 -1.202345 0
M  V30 18 C -1.398310 -0.520825 -0.962684 0
M  V30 19 C -2.363010 -0.650880 -1.967694 0
M  V30 20 C -3.435276 -1.499948 -1.680505 0
M  V30 21 C -3.555942 -2.177326 -0.486031 0
M  V30 22 Cl -4.906291 -3.230708 -0.165975 0
M  V30 23 C -2.558319 -2.009385 0.488382 0
M  V30 24 C -1.469221 -1.174351 0.251050 0
M  V30 25 C -0.370802 -4.171687 2.490811 0
M  V30 26 H -1.294616 -6.958523 3.525935 0
M  V30 27 H 0.213967 -6.889596 2.438890 0
M  V30 28 H 0.394086 -6.889182 4.244026 0
M  V30 29 H -0.492559 -4.756830 5.649476 0
M  V30 30 H -0.754952 -0.811596 3.071818 0
M  V30 31 H 0.569932 2.256664 -2.069853 0
M  V30 32 H 2.341449 2.167889 -2.388125 0
M  V30 33 H 0.803943 4.295253 -1.105719 0
M  V30 34 H 2.526266 4.264764 -1.555091 0
M  V30 35 H 1.304018 3.395816 1.065283 0
M  V30 36 H 2.480519 5.027567 1.972679 0
M  V30 37 H 3.722030 5.017312 0.761943 0
M  V30 38 H 3.365707 2.412208 1.767314 0
M  V30 39 H 4.222366 3.027944 0.361310 0
M  V30 40 H 3.794041 1.212898 -0.893989 0
M  V30 41 H 3.175165 0.456598 0.627052 0
M  V30 42 H -2.281758 -0.127419 -2.903530 0
M  V30 43 H -4.221994 -1.652574 -2.410477 0
M  V30 44 H -2.587318 -2.521008 1.460302 0
M  V30 45 H -0.296933 -4.409150 1.450116 0
M  V30 END ATOM
M  V30 BEGIN BOND
M  V30 1 1 1 2
M  V30 2 1 2 3
M  V30 3 2 3 4
M  V30 4 1 4 5
M  V30 5 1 5 6
M  V30 6 1 6 7
M  V30 7 2 7 8
M  V30 8 1 8 9
M  V30 9 1 9 10
M  V30 10 1 10 11
M  V30 11 1 11 12
M  V30 12 1 12 13
M  V30 13 1 13 14
M  V30 14 1 13 15
M  V30 15 1 15 16
M  V30 16 2 9 17
M  V30 17 1 17 18
M  V30 18 2 18 19
M  V30 19 1 19 20
M  V30 20 2 20 21
M  V30 21 1 21 22
M  V30 22 1 21 23
M  V30 23 2 23 24
M  V30 24 2 5 25
M  V30 25 1 25 2
M  V30 26 1 24 7
M  V30 27 1 16 10
M  V30 28 1 24 18
M  V30 29 1 1 26
M  V30 30 1 1 27
M  V30 31 1 1 28
M  V30 32 1 3 29
M  V30 33 1 6 30
M  V30 34 1 11 31
M  V30 35 1 11 32
M  V30 36 1 12 33
M  V30 37 1 12 34
M  V30 38 1 13 35
M  V30 39 1 14 36
M  V30 40 1 14 37
M  V30 41 1 15 38
M  V30 42 1 15 39
M  V30 43 1 16 40
M  V30 44 1 16 41
M  V30 45 1 19 42
M  V30 46 1 20 43
M  V30 47 1 23 44
M  V30 48 1 25 45
M  V30 END BOND
M  V30 END CTAB
M  END
>  <Dataset>  (121) 
ChEMBL_Kinases

>  <Ligand_Instance>  (121) 
nan

>  <PDB_ID>  (121) 
nan

>  <Standardized_SMILES>  (121) 
Cn1cnc(Nc2nc(N3CCC(N)CC3)nc3ccc(Cl)cc23)c1

>  <Name>  (121) 
nan

>  <Pocket>  (121) 
nan

>  <ATP_Site>  (121) 
nan

>  <Peripheral>  (121) 
nan

>  <Num_H_Atoms_ProtBoundConf>  (121) 
nan

>  <Num_Resolved_Atoms>  (121) 
nan

>  <Num_Not_Resolved_Atoms>  (121) 
nan

$$$$
CHEMBL4083348
     RDKit          3D

  0  0  0  0  0  0  0  0  0  0999 V3000
M  V30 BEGIN CTAB
M  V30 COUNTS 45 48 0 0 0
M  V30 BEGIN ATOM
M  V30 1 N 0.097064 -3.930202 4.077758 0
M  V30 2 C 0.376402 -2.552331 4.271090 0
M  V30 3 O 0.723737 -2.313697 5.450924 0
M  V30 4 C 0.295388 -1.487106 3.281825 0
M  V30 5 C 0.617511 -0.238187 3.721192 0
M  V30 6 N 0.613512 0.887877 2.988431 0
M  V30 7 C 0.251416 0.752155 1.686576 0
M  V30 8 N 0.206914 1.867265 0.805488 0
M  V30 9 C 0.573781 3.128667 1.408087 0 CFG=1
M  V30 10 C 1.970428 3.126304 1.956273 0
M  V30 11 C 2.871908 3.860359 0.954509 0
M  V30 12 C 2.463055 3.363552 -0.416586 0
M  V30 13 N 1.245861 4.077367 -0.746416 0
M  V30 14 C 0.364292 4.239414 0.391180 0
M  V30 15 C -0.079964 -0.523933 1.229026 0
M  V30 16 S -0.592480 -1.038312 -0.408333 0
M  V30 17 C -0.770122 -2.780247 0.020333 0
M  V30 18 C -1.186004 -3.799834 -0.924704 0
M  V30 19 C -1.289289 -5.103299 -0.490124 0
M  V30 20 C -1.687755 -6.105787 -1.379332 0
M  V30 21 C -1.958103 -5.714824 -2.665219 0
M  V30 22 C -1.863493 -4.410016 -3.133909 0
M  V30 23 F -2.137685 -4.058472 -4.409430 0
M  V30 24 C -1.467498 -3.446953 -2.229056 0
M  V30 25 C -0.439123 -2.806096 1.305915 0
M  V30 26 C -0.079313 -1.683030 1.969997 0
M  V30 27 H -0.652474 -4.643860 4.210454 0
M  V30 28 H 0.771362 -4.617438 3.668141 0
M  V30 29 H 0.918916 -0.048778 4.756166 0
M  V30 30 H -0.076586 1.712024 -0.182112 0
M  V30 31 H -0.133691 3.337441 2.229830 0
M  V30 32 H 2.416462 2.113648 2.034264 0
M  V30 33 H 1.987839 3.685276 2.894028 0
M  V30 34 H 2.666378 4.952090 0.988821 0
M  V30 35 H 3.929856 3.624123 1.076716 0
M  V30 36 H 3.207283 3.603674 -1.201473 0
M  V30 37 H 2.240744 2.278894 -0.440415 0
M  V30 38 H 1.436316 4.976812 -1.234474 0
M  V30 39 H -0.658733 4.270978 0.016788 0
M  V30 40 H 0.621778 5.196670 0.884776 0
M  V30 41 H -1.060212 -5.355921 0.549372 0
M  V30 42 H -1.774383 -7.121467 -1.064285 0
M  V30 43 H -2.277917 -6.433081 -3.433981 0
M  V30 44 H -1.374812 -2.412719 -2.532682 0
M  V30 45 H -0.479734 -3.802004 1.784717 0
M  V30 END ATOM
M  V30 BEGIN BOND
M  V30 1 1 1 2
M  V30 2 2 2 3
M  V30 3 1 2 4
M  V30 4 2 4 5
M  V30 5 1 5 6
M  V30 6 2 6 7
M  V30 7 1 7 8
M  V30 8 1 8 9
M  V30 9 1 9 10
M  V30 10 1 10 11
M  V30 11 1 11 12
M  V30 12 1 12 13
M  V30 13 1 13 14
M  V30 14 1 7 15
M  V30 15 1 15 16
M  V30 16 1 16 17
M  V30 17 1 17 18
M  V30 18 2 18 19
M  V30 19 1 19 20
M  V30 20 2 20 21
M  V30 21 1 21 22
M  V30 22 1 22 23
M  V30 23 2 22 24
M  V30 24 2 17 25
M  V30 25 1 25 26
M  V30 26 1 26 4
M  V30 27 1 14 9
M  V30 28 2 26 15
M  V30 29 1 24 18
M  V30 30 1 1 27
M  V30 31 1 1 28
M  V30 32 1 5 29
M  V30 33 1 8 30
M  V30 34 1 9 31 CFG=1
M  V30 35 1 10 32
M  V30 36 1 10 33
M  V30 37 1 11 34
M  V30 38 1 11 35
M  V30 39 1 12 36
M  V30 40 1 12 37
M  V30 41 1 13 38
M  V30 42 1 14 39
M  V30 43 1 14 40
M  V30 44 1 19 41
M  V30 45 1 20 42
M  V30 46 1 21 43
M  V30 47 1 24 44
M  V30 48 1 25 45
M  V30 END BOND
M  V30 END CTAB
M  END
>  <Dataset>  (122) 
ChEMBL_Kinases

>  <Ligand_Instance>  (122) 
nan

>  <PDB_ID>  (122) 
nan

>  <Standardized_SMILES>  (122) 
NC(=O)c1cnc(N[C@H]2CCCNC2)c2sc(-c3cccc(F)c3)cc12

>  <Name>  (122) 
nan

>  <Pocket>  (122) 
nan

>  <ATP_Site>  (122) 
nan

>  <Peripheral>  (122) 
nan

>  <Num_H_Atoms_ProtBoundConf>  (122) 
nan

>  <Num_Resolved_Atoms>  (122) 
nan

>  <Num_Not_Resolved_Atoms>  (122) 
nan

$$$$
CHEMBL4083975
     RDKit          3D

  0  0  0  0  0  0  0  0  0  0999 V3000
M  V30 BEGIN CTAB
M  V30 COUNTS 51 55 0 0 0
M  V30 BEGIN ATOM
M  V30 1 C -2.268714 3.997927 2.440615 0
M  V30 2 O -1.966386 2.789576 1.800263 0
M  V30 3 C -1.405411 1.739984 2.485152 0
M  V30 4 C -1.054944 1.648491 3.809864 0
M  V30 5 C -0.493560 0.555721 4.429231 0
M  V30 6 C -0.257569 -0.558648 3.650888 0
M  V30 7 C -0.590600 -0.520425 2.315225 0
M  V30 8 C -1.162871 0.606362 1.705154 0
M  V30 9 C -1.444106 0.463366 0.266757 0
M  V30 10 N -0.464982 1.071056 -0.524011 0
M  V30 11 C -0.580036 1.075616 -1.930323 0
M  V30 12 C 0.488509 1.957171 -2.588821 0
M  V30 13 N 0.502175 3.274842 -2.038504 0
M  V30 14 C 0.541165 3.292326 -0.613076 0
M  V30 15 C 0.537092 1.887521 0.005324 0
M  V30 16 O -0.236182 -1.780454 1.796980 0
M  V30 17 C 0.300744 -2.602296 2.738695 0
M  V30 18 C 0.702048 -3.847688 2.436211 0
M  V30 19 C 0.541240 -4.305151 1.037291 0
M  V30 20 C -0.604581 -3.964760 0.341472 0
M  V30 21 N -0.459370 -4.503060 -0.882449 0
M  V30 22 C 0.722475 -5.147451 -0.941865 0
M  V30 23 N 1.281762 -5.830824 -1.977060 0
M  V30 24 C 2.503197 -6.385800 -1.748820 0
M  V30 25 F 3.050468 -7.062629 -2.785883 0
M  V30 26 C 3.181520 -6.285858 -0.538441 0
M  V30 27 C 2.605290 -5.590286 0.506005 0
M  V30 28 C 1.384726 -5.042753 0.259209 0
M  V30 29 C 0.316719 -1.857703 3.990213 0
M  V30 30 O 0.745518 -2.308150 5.068078 0
M  V30 31 H -3.362002 4.267494 2.329867 0
M  V30 32 H -1.753620 4.870285 1.942209 0
M  V30 33 H -2.094895 4.018969 3.526635 0
M  V30 34 H -1.228362 2.503529 4.441278 0
M  V30 35 H -0.246196 0.562346 5.478086 0
M  V30 36 H -1.551444 -0.608960 -0.028807 0
M  V30 37 H -2.429992 0.950801 0.020674 0
M  V30 38 H -0.368474 0.049887 -2.346908 0
M  V30 39 H -1.574201 1.355435 -2.324927 0
M  V30 40 H 0.276270 2.003915 -3.667186 0
M  V30 41 H 1.505446 1.515046 -2.410267 0
M  V30 42 H -0.175626 3.908077 -2.474430 0
M  V30 43 H -0.340731 3.856933 -0.235444 0
M  V30 44 H 1.428555 3.831653 -0.226124 0
M  V30 45 H 1.533971 1.454674 -0.265883 0
M  V30 46 H 0.546066 1.996619 1.095688 0
M  V30 47 H 1.122444 -4.432163 3.259994 0
M  V30 48 H -1.483880 -3.382631 0.664517 0
M  V30 49 H -1.157639 -4.431045 -1.663535 0
M  V30 50 H 4.151458 -6.733640 -0.380286 0
M  V30 51 H 3.035218 -5.449951 1.476132 0
M  V30 END ATOM
M  V30 BEGIN BOND
M  V30 1 1 1 2
M  V30 2 1 2 3
M  V30 3 2 3 4
M  V30 4 1 4 5
M  V30 5 2 5 6
M  V30 6 1 6 7
M  V30 7 2 7 8
M  V30 8 1 8 9
M  V30 9 1 9 10
M  V30 10 1 10 11
M  V30 11 1 11 12
M  V30 12 1 12 13
M  V30 13 1 13 14
M  V30 14 1 14 15
M  V30 15 1 7 16
M  V30 16 1 16 17
M  V30 17 2 17 18
M  V30 18 1 18 19
M  V30 19 2 19 20
M  V30 20 1 20 21
M  V30 21 1 21 22
M  V30 22 2 22 23
M  V30 23 1 23 24
M  V30 24 1 24 25
M  V30 25 2 24 26
M  V30 26 1 26 27
M  V30 27 2 27 28
M  V30 28 1 17 29
M  V30 29 2 29 30
M  V30 30 1 8 3
M  V30 31 1 15 10
M  V30 32 1 28 19
M  V30 33 1 29 6
M  V30 34 1 28 22
M  V30 35 1 1 31
M  V30 36 1 1 32
M  V30 37 1 1 33
M  V30 38 1 4 34
M  V30 39 1 5 35
M  V30 40 1 9 36
M  V30 41 1 9 37
M  V30 42 1 11 38
M  V30 43 1 11 39
M  V30 44 1 12 40
M  V30 45 1 12 41
M  V30 46 1 13 42
M  V30 47 1 14 43
M  V30 48 1 14 44
M  V30 49 1 15 45
M  V30 50 1 15 46
M  V30 51 1 18 47
M  V30 52 1 20 48
M  V30 53 1 21 49
M  V30 54 1 26 50
M  V30 55 1 27 51
M  V30 END BOND
M  V30 END CTAB
M  END
>  <Dataset>  (123) 
ChEMBL_Kinases

>  <Ligand_Instance>  (123) 
nan

>  <PDB_ID>  (123) 
nan

>  <Standardized_SMILES>  (123) 
COc1ccc2c(c1CN1CCNCC1)O/C(=C\c1c[nH]c3nc(F)ccc13)C2=O

>  <Name>  (123) 
nan

>  <Pocket>  (123) 
nan

>  <ATP_Site>  (123) 
nan

>  <Peripheral>  (123) 
nan

>  <Num_H_Atoms_ProtBoundConf>  (123) 
nan

>  <Num_Resolved_Atoms>  (123) 
nan

>  <Num_Not_Resolved_Atoms>  (123) 
nan

$$$$
CHEMBL4083922
     RDKit          3D

  0  0  0  0  0  0  0  0  0  0999 V3000
M  V30 BEGIN CTAB
M  V30 COUNTS 74 78 0 0 0
M  V30 BEGIN ATOM
M  V30 1 C 9.809106 1.447680 1.140196 0
M  V30 2 N 8.509383 1.736509 1.687895 0
M  V30 3 C 7.281201 1.666106 0.979709 0
M  V30 4 O 7.391898 1.315768 -0.245270 0
M  V30 5 C 5.970347 1.955833 1.543555 0
M  V30 6 C 5.843114 2.330827 2.888661 0
M  V30 7 C 4.615287 2.612460 3.482328 0
M  V30 8 C 3.510257 2.503868 2.670766 0
M  V30 9 C 3.585134 2.142336 1.350609 0
M  V30 10 C 4.813594 1.871493 0.804471 0
M  V30 11 C 2.227356 2.122838 0.859443 0
M  V30 12 C 1.927176 1.893512 -0.395361 0
M  V30 13 N 0.552233 1.885202 -0.756635 0
M  V30 14 C -0.369460 0.816001 -0.886683 0
M  V30 15 C -0.036941 -0.491990 -0.672483 0
M  V30 16 C -0.987989 -1.492139 -0.816563 0
M  V30 17 C -2.291463 -1.164692 -1.181380 0
M  V30 18 N -3.300367 -2.152726 -1.343489 0
M  V30 19 C -3.606594 -2.826123 -2.594548 0
M  V30 20 C -3.969548 -2.392156 -0.115268 0
M  V30 21 O -3.080596 -1.504549 0.133308 0
M  V30 22 C -4.698184 -2.689779 1.100411 0
M  V30 23 N -5.734856 -3.670715 0.969927 0
M  V30 24 C -6.362971 -3.874900 2.253230 0
M  V30 25 C -7.448637 -4.888715 2.282693 0
M  V30 26 N -7.297574 -6.010712 1.408771 0
M  V30 27 C -8.633490 -6.475179 1.084844 0
M  V30 28 C -6.622016 -5.720149 0.183106 0
M  V30 29 C -5.361115 -4.927191 0.429040 0
M  V30 30 C -2.606031 0.184430 -1.395341 0
M  V30 31 C -1.647767 1.164559 -1.247709 0
M  V30 32 C 2.791002 1.757804 -1.553169 0
M  V30 33 C 2.987726 0.735903 -2.456981 0
M  V30 34 C 3.817120 0.921243 -3.542281 0
M  V30 35 C 4.481634 2.076908 -3.801040 0
M  V30 36 C 4.294753 3.113622 -2.902759 0
M  V30 37 C 3.466762 2.971054 -1.794126 0
M  V30 38 C 1.314799 2.481367 1.930587 0
M  V30 39 O 0.071038 2.562965 1.864955 0
M  V30 40 N 2.137825 2.718969 3.065745 0
M  V30 41 H 9.831339 1.625169 0.045660 0
M  V30 42 H 10.131381 0.402594 1.385357 0
M  V30 43 H 10.561873 2.110077 1.601302 0
M  V30 44 H 8.489222 2.019087 2.691308 0
M  V30 45 H 6.693177 2.420189 3.531075 0
M  V30 46 H 4.534656 2.898466 4.520455 0
M  V30 47 H 5.006469 1.548452 -0.196501 0
M  V30 48 H 0.339271 2.873575 -0.914386 0
M  V30 49 H 0.967019 -0.772326 -0.385652 0
M  V30 50 H -0.724439 -2.540060 -0.645267 0
M  V30 51 H -4.594335 -3.322688 -2.520014 0
M  V30 52 H -2.820777 -3.577852 -2.834655 0
M  V30 53 H -3.715271 -2.075484 -3.425629 0
M  V30 54 H -5.140210 -1.766350 1.492334 0
M  V30 55 H -3.990960 -3.053725 1.892764 0
M  V30 56 H -6.798279 -2.920967 2.640841 0
M  V30 57 H -5.544633 -4.205381 2.956347 0
M  V30 58 H -8.474708 -4.422369 2.199473 0
M  V30 59 H -7.471243 -5.319372 3.328430 0
M  V30 60 H -8.639528 -7.060081 0.139830 0
M  V30 61 H -9.317883 -5.601728 0.897112 0
M  V30 62 H -9.085290 -7.052804 1.917808 0
M  V30 63 H -7.327040 -5.196199 -0.485746 0
M  V30 64 H -6.334242 -6.668233 -0.311068 0
M  V30 65 H -4.757911 -5.484329 1.172075 0
M  V30 66 H -4.764952 -4.874788 -0.500981 0
M  V30 67 H -3.631006 0.384077 -1.676733 0
M  V30 68 H -1.952727 2.177626 -1.425382 0
M  V30 69 H 2.421993 -0.137372 -2.171575 0
M  V30 70 H 3.872109 0.018484 -4.170172 0
M  V30 71 H 5.113676 2.132882 -4.677862 0
M  V30 72 H 4.833209 4.040070 -3.118276 0
M  V30 73 H 3.422606 3.877972 -1.182151 0
M  V30 74 H 1.760498 3.000640 4.008182 0
M  V30 END ATOM
M  V30 BEGIN BOND
M  V30 1 1 1 2
M  V30 2 1 2 3
M  V30 3 2 3 4
M  V30 4 1 3 5
M  V30 5 2 5 6
M  V30 6 1 6 7
M  V30 7 2 7 8
M  V30 8 1 8 9
M  V30 9 2 9 10
M  V30 10 1 9 11
M  V30 11 2 11 12
M  V30 12 1 12 13
M  V30 13 1 13 14
M  V30 14 2 14 15
M  V30 15 1 15 16
M  V30 16 2 16 17
M  V30 17 1 17 18
M  V30 18 1 18 19
M  V30 19 1 18 20
M  V30 20 2 20 21
M  V30 21 1 20 22
M  V30 22 1 22 23
M  V30 23 1 23 24
M  V30 24 1 24 25
M  V30 25 1 25 26
M  V30 26 1 26 27
M  V30 27 1 26 28
M  V30 28 1 28 29
M  V30 29 1 17 30
M  V30 30 2 30 31
M  V30 31 1 12 32
M  V30 32 2 32 33
M  V30 33 1 33 34
M  V30 34 2 34 35
M  V30 35 1 35 36
M  V30 36 2 36 37
M  V30 37 1 11 38
M  V30 38 2 38 39
M  V30 39 1 38 40
M  V30 40 1 10 5
M  V30 41 1 31 14
M  V30 42 1 37 32
M  V30 43 1 40 8
M  V30 44 1 29 23
M  V30 45 1 1 41
M  V30 46 1 1 42
M  V30 47 1 1 43
M  V30 48 1 2 44
M  V30 49 1 6 45
M  V30 50 1 7 46
M  V30 51 1 10 47
M  V30 52 1 13 48
M  V30 53 1 15 49
M  V30 54 1 16 50
M  V30 55 1 19 51
M  V30 56 1 19 52
M  V30 57 1 19 53
M  V30 58 1 22 54
M  V30 59 1 22 55
M  V30 60 1 24 56
M  V30 61 1 24 57
M  V30 62 1 25 58
M  V30 63 1 25 59
M  V30 64 1 27 60
M  V30 65 1 27 61
M  V30 66 1 27 62
M  V30 67 1 28 63
M  V30 68 1 28 64
M  V30 69 1 29 65
M  V30 70 1 29 66
M  V30 71 1 30 67
M  V30 72 1 31 68
M  V30 73 1 33 69
M  V30 74 1 34 70
M  V30 75 1 35 71
M  V30 76 1 36 72
M  V30 77 1 37 73
M  V30 78 1 40 74
M  V30 END BOND
M  V30 END CTAB
M  END
>  <Dataset>  (124) 
ChEMBL_Kinases

>  <Ligand_Instance>  (124) 
nan

>  <PDB_ID>  (124) 
nan

>  <Standardized_SMILES>  (124) 
CNC(=O)c1ccc2c(c1)/C(=C(/Nc1ccc(N(C)C(=O)CN3CCN(C)CC3)cc1)c1ccccc1)C(=O)N2

>  <Name>  (124) 
nan

>  <Pocket>  (124) 
nan

>  <ATP_Site>  (124) 
nan

>  <Peripheral>  (124) 
nan

>  <Num_H_Atoms_ProtBoundConf>  (124) 
nan

>  <Num_Resolved_Atoms>  (124) 
nan

>  <Num_Not_Resolved_Atoms>  (124) 
nan

$$$$
CHEMBL4083921
     RDKit          3D

  0  0  0  0  0  0  0  0  0  0999 V3000
M  V30 BEGIN CTAB
M  V30 COUNTS 57 61 0 0 0
M  V30 BEGIN ATOM
M  V30 1 C 6.230386 3.044040 6.310526 0
M  V30 2 O 5.283626 2.580605 5.356494 0
M  V30 3 C 5.406716 1.329907 4.752954 0
M  V30 4 O 6.406920 0.675056 5.125653 0
M  V30 5 C 4.482347 0.780876 3.767936 0
M  V30 6 C 4.794571 -0.477677 3.299906 0
M  V30 7 C 3.941652 -1.034451 2.363329 0
M  V30 8 C 2.804418 -0.377868 1.890274 0
M  V30 9 C 2.550303 0.893651 2.408275 0
M  V30 10 C 3.385342 1.475494 3.345592 0
M  V30 11 C 1.451041 1.846548 2.127461 0
M  V30 12 O 1.430421 2.918004 2.784819 0
M  V30 13 C 0.414860 1.585229 1.133549 0
M  V30 14 C -0.637150 2.426057 1.332276 0
M  V30 15 C -1.736828 2.361283 0.510850 0
M  V30 16 C -1.847307 1.456161 -0.551407 0
M  V30 17 N -2.966802 1.393080 -1.413713 0
M  V30 18 C -3.667248 0.361900 -2.070383 0
M  V30 19 C -3.425180 -0.985198 -1.983866 0
M  V30 20 C -4.119107 -1.960841 -2.651944 0
M  V30 21 N -3.880769 -3.352753 -2.573745 0
M  V30 22 C -2.945330 -4.102633 -1.855669 0
M  V30 23 O -2.140852 -3.489069 -1.128441 0
M  V30 24 C -2.817984 -5.533826 -1.873734 0
M  V30 25 C -3.506591 -6.484673 -2.533390 0
M  V30 26 C -3.204064 -7.814074 -2.395907 0
M  V30 27 C -2.110575 -8.091301 -1.504252 0
M  V30 28 S -1.607526 -6.367458 -0.932611 0
M  V30 29 C -5.136891 -1.531281 -3.469461 0
M  V30 30 F -5.902517 -2.414584 -4.189625 0
M  V30 31 C -5.423908 -0.193801 -3.593878 0
M  V30 32 C -4.696761 0.741380 -2.901765 0
M  V30 33 F -5.057095 2.053095 -3.089962 0
M  V30 34 C -0.747271 0.638906 -0.692835 0
M  V30 35 C 0.378952 0.664852 0.104711 0
M  V30 36 C 1.435385 -0.294663 -0.221193 0
M  V30 37 C 1.995110 -1.072864 0.909392 0
M  V30 38 H 7.047415 2.287288 6.456395 0
M  V30 39 H 6.691688 4.002120 5.984699 0
M  V30 40 H 5.729963 3.205012 7.292745 0
M  V30 41 H 5.652656 -1.080589 3.597284 0
M  V30 42 H 4.133271 -2.021330 1.957212 0
M  V30 43 H 3.170021 2.466898 3.736745 0
M  V30 44 H -0.620683 3.144036 2.126570 0
M  V30 45 H -2.579444 3.036366 0.671489 0
M  V30 46 H -3.295626 2.392529 -1.552111 0
M  V30 47 H -2.636897 -1.288297 -1.331853 0
M  V30 48 H -4.500350 -3.999483 -3.149165 0
M  V30 49 H -4.311915 -6.164130 -3.179937 0
M  V30 50 H -3.708785 -8.629006 -2.889696 0
M  V30 51 H -1.763946 -9.153821 -1.306603 0
M  V30 52 H -6.226928 0.105852 -4.242143 0
M  V30 53 H -0.659980 -0.098081 -1.460843 0
M  V30 54 H 1.008648 -1.018641 -0.940177 0
M  V30 55 H 2.280423 0.208464 -0.771320 0
M  V30 56 H 2.663615 -1.850822 0.435893 0
M  V30 57 H 1.174572 -1.705224 1.359690 0
M  V30 END ATOM
M  V30 BEGIN BOND
M  V30 1 1 1 2
M  V30 2 1 2 3
M  V30 3 2 3 4
M  V30 4 1 3 5
M  V30 5 2 5 6
M  V30 6 1 6 7
M  V30 7 2 7 8
M  V30 8 1 8 9
M  V30 9 2 9 10
M  V30 10 1 9 11
M  V30 11 2 11 12
M  V30 12 1 11 13
M  V30 13 2 13 14
M  V30 14 1 14 15
M  V30 15 2 15 16
M  V30 16 1 16 17
M  V30 17 1 17 18
M  V30 18 2 18 19
M  V30 19 1 19 20
M  V30 20 1 20 21
M  V30 21 1 21 22
M  V30 22 2 22 23
M  V30 23 1 22 24
M  V30 24 2 24 25
M  V30 25 1 25 26
M  V30 26 2 26 27
M  V30 27 1 27 28
M  V30 28 2 20 29
M  V30 29 1 29 30
M  V30 30 1 29 31
M  V30 31 2 31 32
M  V30 32 1 32 33
M  V30 33 1 16 34
M  V30 34 2 34 35
M  V30 35 1 35 36
M  V30 36 1 36 37
M  V30 37 1 10 5
M  V30 38 1 35 13
M  V30 39 1 37 8
M  V30 40 1 32 18
M  V30 41 1 28 24
M  V30 42 1 1 38
M  V30 43 1 1 39
M  V30 44 1 1 40
M  V30 45 1 6 41
M  V30 46 1 7 42
M  V30 47 1 10 43
M  V30 48 1 14 44
M  V30 49 1 15 45
M  V30 50 1 17 46
M  V30 51 1 19 47
M  V30 52 1 21 48
M  V30 53 1 25 49
M  V30 54 1 26 50
M  V30 55 1 27 51
M  V30 56 1 31 52
M  V30 57 1 34 53
M  V30 58 1 36 54
M  V30 59 1 36 55
M  V30 60 1 37 56
M  V30 61 1 37 57
M  V30 END BOND
M  V30 END CTAB
M  END
>  <Dataset>  (125) 
ChEMBL_Kinases

>  <Ligand_Instance>  (125) 
nan

>  <PDB_ID>  (125) 
nan

>  <Standardized_SMILES>  (125) 
COC(=O)c1ccc2c(c1)C(=O)c1ccc(Nc3cc(NC(=O)c4cccs4)c(F)cc3F)cc1CC2

>  <Name>  (125) 
nan

>  <Pocket>  (125) 
nan

>  <ATP_Site>  (125) 
nan

>  <Peripheral>  (125) 
nan

>  <Num_H_Atoms_ProtBoundConf>  (125) 
nan

>  <Num_Resolved_Atoms>  (125) 
nan

>  <Num_Not_Resolved_Atoms>  (125) 
nan

$$$$
CHEMBL4083792
     RDKit          3D

  0  0  0  0  0  0  0  0  0  0999 V3000
M  V30 BEGIN CTAB
M  V30 COUNTS 44 46 0 0 0
M  V30 BEGIN ATOM
M  V30 1 O 5.368300 -2.623349 3.093955 0
M  V30 2 C 4.124728 -2.737425 2.879952 0
M  V30 3 O 3.399699 -3.424983 3.846611 0
M  V30 4 C 3.357835 -2.209549 1.696779 0
M  V30 5 C 4.240444 -1.493453 0.734027 0
M  V30 6 N 3.439148 -1.015774 -0.371457 0
M  V30 7 C 2.369995 -0.106279 -0.164021 0
M  V30 8 C 2.802370 1.221761 -0.248553 0
M  V30 9 F 4.068003 1.616231 -0.493599 0
M  V30 10 C 1.903158 2.270378 -0.075274 0
M  V30 11 C 0.564071 2.038243 0.184097 0
M  V30 12 C -0.357376 3.062643 0.363708 0
M  V30 13 O 0.026507 4.243645 0.288450 0
M  V30 14 C -1.646789 2.643810 0.615769 0
M  V30 15 C -2.632144 3.700236 0.808262 0
M  V30 16 O -2.314491 4.914839 0.746334 0
M  V30 17 O -3.983118 3.563924 1.071768 0
M  V30 18 C -2.027260 1.320449 0.690479 0
M  V30 19 N -1.088730 0.344219 0.507490 0
M  V30 20 C -1.643319 -0.959271 0.619759 0
M  V30 21 C -1.613782 -1.882857 1.656513 0
M  V30 22 C -2.253836 -3.093978 1.507916 0
M  V30 23 C -2.925603 -3.408714 0.346113 0
M  V30 24 F -3.537780 -4.612581 0.252111 0
M  V30 25 C -2.970054 -2.509243 -0.698710 0
M  V30 26 C -2.329315 -1.290523 -0.556438 0
M  V30 27 C 0.178264 0.717589 0.259756 0
M  V30 28 C 1.050238 -0.335193 0.091452 0
M  V30 29 N 0.707174 -1.712584 0.157209 0 CHG=1 VAL=4
M  V30 30 O 0.660087 -2.453074 -0.872067 0
M  V30 31 O 0.665630 -2.495210 -0.994392 0 CHG=-1 VAL=1
M  V30 32 H 3.634482 -3.433419 4.840777 0
M  V30 33 H 2.859106 -3.101184 1.279867 0
M  V30 34 H 2.668791 -1.458946 2.136095 0
M  V30 35 H 4.603761 -0.573593 1.250874 0
M  V30 36 H 5.124144 -2.048853 0.418496 0
M  V30 37 H 3.402236 -1.152635 -1.403819 0
M  V30 38 H 2.204503 3.316324 -0.134401 0
M  V30 39 H -4.432638 4.087176 1.813825 0
M  V30 40 H -3.089171 1.132470 0.897890 0
M  V30 41 H -1.052918 -1.495266 2.494674 0
M  V30 42 H -2.175883 -3.748439 2.369500 0
M  V30 43 H -3.511890 -2.814559 -1.582759 0
M  V30 44 H -2.438691 -0.673823 -1.447427 0
M  V30 END ATOM
M  V30 BEGIN BOND
M  V30 1 2 1 2
M  V30 2 1 2 3
M  V30 3 1 2 4
M  V30 4 1 4 5
M  V30 5 1 5 6
M  V30 6 1 6 7
M  V30 7 2 7 8
M  V30 8 1 8 9
M  V30 9 1 8 10
M  V30 10 2 10 11
M  V30 11 1 11 12
M  V30 12 2 12 13
M  V30 13 1 12 14
M  V30 14 1 14 15
M  V30 15 2 15 16
M  V30 16 1 15 17
M  V30 17 2 14 18
M  V30 18 1 18 19
M  V30 19 1 19 20
M  V30 20 2 20 21
M  V30 21 1 21 22
M  V30 22 2 22 23
M  V30 23 1 23 24
M  V30 24 1 23 25
M  V30 25 2 25 26
M  V30 26 1 19 27
M  V30 27 2 27 28
M  V30 28 1 28 29
M  V30 29 2 29 30
M  V30 30 1 29 31
M  V30 31 1 28 7
M  V30 32 1 27 11
M  V30 33 1 26 20
M  V30 34 1 3 32
M  V30 35 1 4 33
M  V30 36 1 4 34
M  V30 37 1 5 35
M  V30 38 1 5 36
M  V30 39 1 6 37
M  V30 40 1 10 38
M  V30 41 1 17 39
M  V30 42 1 18 40
M  V30 43 1 21 41
M  V30 44 1 22 42
M  V30 45 1 25 43
M  V30 46 1 26 44
M  V30 END BOND
M  V30 END CTAB
M  END
>  <Dataset>  (126) 
ChEMBL_Kinases

>  <Ligand_Instance>  (126) 
nan

>  <PDB_ID>  (126) 
nan

>  <Standardized_SMILES>  (126) 
O=C(O)CCNc1c(F)cc2c(=O)c(C(=O)O)cn(-c3ccc(F)cc3)c2c1[N+](=O)[O-]

>  <Name>  (126) 
nan

>  <Pocket>  (126) 
nan

>  <ATP_Site>  (126) 
nan

>  <Peripheral>  (126) 
nan

>  <Num_H_Atoms_ProtBoundConf>  (126) 
nan

>  <Num_Resolved_Atoms>  (126) 
nan

>  <Num_Not_Resolved_Atoms>  (126) 
nan

$$$$
CHEMBL4083726
     RDKit          3D

  0  0  0  0  0  0  0  0  0  0999 V3000
M  V30 BEGIN CTAB
M  V30 COUNTS 28 30 0 0 0
M  V30 BEGIN ATOM
M  V30 1 O 4.793779 -3.679964 0.917287 0
M  V30 2 C 4.115577 -2.811535 1.539458 0
M  V30 3 N 4.199217 -2.584749 2.907841 0
M  V30 4 C 3.381840 -1.583946 3.459872 0
M  V30 5 S 3.375524 -0.923562 4.952620 0
M  V30 6 S 2.257886 -1.119343 2.137161 0
M  V30 7 C 3.180604 -1.975494 0.835717 0
M  V30 8 C 2.887450 -1.728651 -0.413042 0
M  V30 9 C 1.840669 -0.787463 -0.871788 0
M  V30 10 C 2.017690 0.002549 -2.009108 0
M  V30 11 S 0.400189 0.916554 -2.037042 0
M  V30 12 C -0.182008 0.015153 -0.471058 0
M  V30 13 C -1.532431 0.389329 0.000775 0
M  V30 14 C -2.363715 1.298551 -0.586613 0
M  V30 15 C -3.614142 1.539560 -0.015041 0
M  V30 16 C -3.937728 0.830551 1.129152 0
M  V30 17 C -3.102372 -0.102137 1.743993 0
M  V30 18 O -3.489623 -0.772005 2.882485 0
M  V30 19 C -1.873415 -0.305678 1.139431 0
M  V30 20 N 0.708112 -0.690614 -0.195626 0
M  V30 21 H 4.837322 -3.111551 3.576128 0
M  V30 22 H 3.496408 -2.290978 -1.138509 0
M  V30 23 H 2.858975 0.020132 -2.626577 0
M  V30 24 H -2.011939 1.790615 -1.472771 0
M  V30 25 H -4.270095 2.246607 -0.465409 0
M  V30 26 H -4.908643 0.990162 1.610331 0
M  V30 27 H -3.608773 -1.792570 2.933292 0
M  V30 28 H -1.250754 -1.032509 1.639647 0
M  V30 END ATOM
M  V30 BEGIN BOND
M  V30 1 2 1 2
M  V30 2 1 2 3
M  V30 3 1 3 4
M  V30 4 2 4 5
M  V30 5 1 4 6
M  V30 6 1 6 7
M  V30 7 2 7 8
M  V30 8 1 8 9
M  V30 9 2 9 10
M  V30 10 1 10 11
M  V30 11 1 11 12
M  V30 12 1 12 13
M  V30 13 2 13 14
M  V30 14 1 14 15
M  V30 15 2 15 16
M  V30 16 1 16 17
M  V30 17 1 17 18
M  V30 18 2 17 19
M  V30 19 2 12 20
M  V30 20 1 7 2
M  V30 21 1 20 9
M  V30 22 1 19 13
M  V30 23 1 3 21
M  V30 24 1 8 22
M  V30 25 1 10 23
M  V30 26 1 14 24
M  V30 27 1 15 25
M  V30 28 1 16 26
M  V30 29 1 18 27
M  V30 30 1 19 28
M  V30 END BOND
M  V30 END CTAB
M  END
>  <Dataset>  (127) 
ChEMBL_Kinases

>  <Ligand_Instance>  (127) 
nan

>  <PDB_ID>  (127) 
nan

>  <Standardized_SMILES>  (127) 
O=C1NC(=S)S/C1=C\c1csc(-c2cccc(O)c2)n1

>  <Name>  (127) 
nan

>  <Pocket>  (127) 
nan

>  <ATP_Site>  (127) 
nan

>  <Peripheral>  (127) 
nan

>  <Num_H_Atoms_ProtBoundConf>  (127) 
nan

>  <Num_Resolved_Atoms>  (127) 
nan

>  <Num_Not_Resolved_Atoms>  (127) 
nan

$$$$
CHEMBL4083675
     RDKit          3D

  0  0  0  0  0  0  0  0  0  0999 V3000
M  V30 BEGIN CTAB
M  V30 COUNTS 35 37 0 0 0
M  V30 BEGIN ATOM
M  V30 1 C -1.198549 -0.212924 3.181588 0
M  V30 2 C -1.834819 -1.332291 2.726864 0
M  V30 3 C -1.093315 -2.352578 2.188909 0
M  V30 4 C 0.301222 -2.355401 2.057306 0
M  V30 5 C 0.893513 -3.565824 1.485430 0
M  V30 6 N 0.958004 -3.739577 0.112784 0
M  V30 7 C 1.620532 -2.904501 -0.778770 0
M  V30 8 C 0.976739 -1.585354 -0.985847 0
M  V30 9 N 1.066957 -0.347400 -0.524926 0
M  V30 10 C 0.183001 0.480782 -1.092017 0
M  V30 11 C 0.124190 1.893737 -0.715921 0
M  V30 12 C 1.087446 2.866204 -0.834704 0
M  V30 13 C 0.782495 4.151574 -0.397978 0
M  V30 14 N -0.424095 4.433219 0.126516 0
M  V30 15 C -1.381166 3.510555 0.255448 0
M  V30 16 C -1.119072 2.225892 -0.164976 0
M  V30 17 N -0.519733 -0.284367 -1.976701 0
M  V30 18 N -0.036825 -1.532201 -1.909324 0
M  V30 19 C 0.906537 -1.195674 2.533460 0
M  V30 20 C 0.173402 -0.163697 3.076001 0
M  V30 21 H -1.667114 0.644188 3.619083 0
M  V30 22 H -2.910385 -1.390453 2.800650 0
M  V30 23 H -1.681627 -3.216298 1.847128 0
M  V30 24 H 0.302838 -4.453762 1.906696 0
M  V30 25 H 1.926952 -3.749963 1.914909 0
M  V30 26 H 0.415889 -4.532356 -0.294697 0
M  V30 27 H 1.724800 -3.386981 -1.793781 0
M  V30 28 H 2.693556 -2.691377 -0.486275 0
M  V30 29 H 1.998443 2.503111 -1.268395 0
M  V30 30 H 1.594149 4.874341 -0.522279 0
M  V30 31 H -2.337833 3.811032 0.690632 0
M  V30 32 H -1.957743 1.532630 -0.023124 0
M  V30 33 H -0.482156 -2.246220 -2.539816 0
M  V30 34 H 1.992379 -1.221186 2.420296 0
M  V30 35 H 0.815550 0.661665 3.395121 0
M  V30 END ATOM
M  V30 BEGIN BOND
M  V30 1 2 1 2
M  V30 2 1 2 3
M  V30 3 2 3 4
M  V30 4 1 4 5
M  V30 5 1 5 6
M  V30 6 1 6 7
M  V30 7 1 7 8
M  V30 8 2 8 9
M  V30 9 1 9 10
M  V30 10 1 10 11
M  V30 11 2 11 12
M  V30 12 1 12 13
M  V30 13 2 13 14
M  V30 14 1 14 15
M  V30 15 2 15 16
M  V30 16 2 10 17
M  V30 17 1 17 18
M  V30 18 1 4 19
M  V30 19 2 19 20
M  V30 20 1 20 1
M  V30 21 1 18 8
M  V30 22 1 16 11
M  V30 23 1 1 21
M  V30 24 1 2 22
M  V30 25 1 3 23
M  V30 26 1 5 24
M  V30 27 1 5 25
M  V30 28 1 6 26
M  V30 29 1 7 27
M  V30 30 1 7 28
M  V30 31 1 12 29
M  V30 32 1 13 30
M  V30 33 1 15 31
M  V30 34 1 16 32
M  V30 35 1 18 33
M  V30 36 1 19 34
M  V30 37 1 20 35
M  V30 END BOND
M  V30 END CTAB
M  END
>  <Dataset>  (128) 
ChEMBL_Kinases

>  <Ligand_Instance>  (128) 
nan

>  <PDB_ID>  (128) 
nan

>  <Standardized_SMILES>  (128) 
c1ccc(CNCc2nc(-c3ccncc3)n[nH]2)cc1

>  <Name>  (128) 
nan

>  <Pocket>  (128) 
nan

>  <ATP_Site>  (128) 
nan

>  <Peripheral>  (128) 
nan

>  <Num_H_Atoms_ProtBoundConf>  (128) 
nan

>  <Num_Resolved_Atoms>  (128) 
nan

>  <Num_Not_Resolved_Atoms>  (128) 
nan

$$$$
CHEMBL4083650
     RDKit          3D

  0  0  0  0  0  0  0  0  0  0999 V3000
M  V30 BEGIN CTAB
M  V30 COUNTS 43 45 0 0 0
M  V30 BEGIN ATOM
M  V30 1 C -1.348333 -4.271028 0.141518 0
M  V30 2 N -0.511746 -3.961119 1.281183 0
M  V30 3 C -0.470982 -5.135600 2.114985 0
M  V30 4 C 0.810348 -3.520854 0.850433 0 CFG=1
M  V30 5 C 0.551603 -2.276099 0.001430 0
M  V30 6 C 0.044042 -1.231951 1.008962 0
M  V30 7 C 1.315737 -0.563990 1.560296 0 CFG=2
M  V30 8 N 1.790732 0.421618 0.653962 0
M  V30 9 C 1.742896 1.638255 -0.032933 0
M  V30 10 N 2.635541 2.065659 -0.970186 0
M  V30 11 C 2.568992 3.230247 -1.601949 0
M  V30 12 N 1.566991 4.062997 -1.319294 0
M  V30 13 C 0.620509 3.772639 -0.419970 0
M  V30 14 C -0.350994 4.727744 -0.219937 0
M  V30 15 C -1.322082 4.435749 0.714690 0
M  V30 16 C -1.294918 3.238363 1.399383 0
M  V30 17 C -2.313478 2.955042 2.366891 0
M  V30 18 N -3.151993 2.710374 3.143593 0
M  V30 19 C -0.275424 2.356274 1.118324 0
M  V30 20 C 0.739090 2.550608 0.205745 0
M  V30 21 C 2.288708 -1.720990 1.761856 0
M  V30 22 C 1.565789 -2.999538 2.066577 0
M  V30 23 H -0.778821 -4.718310 -0.689365 0
M  V30 24 H -2.140311 -4.991551 0.433399 0
M  V30 25 H -1.914594 -3.362591 -0.206963 0
M  V30 26 H -1.519176 -5.527714 2.148611 0
M  V30 27 H 0.163954 -5.950799 1.706801 0
M  V30 28 H -0.226909 -4.913064 3.176169 0
M  V30 29 H 1.358743 -4.285617 0.301397 0
M  V30 30 H 1.471077 -1.909822 -0.485463 0
M  V30 31 H -0.182991 -2.456466 -0.791983 0
M  V30 32 H -0.469909 -1.730165 1.856500 0
M  V30 33 H -0.598146 -0.544861 0.459067 0
M  V30 34 H 1.119022 -0.137914 2.574757 0
M  V30 35 H 2.684236 -0.034074 0.310312 0
M  V30 36 H 3.391221 3.334741 -2.295929 0
M  V30 37 H -0.338638 5.655484 -0.776358 0
M  V30 38 H -2.110919 5.146976 0.914668 0
M  V30 39 H -0.305393 1.455434 1.689947 0
M  V30 40 H 2.973062 -1.819000 0.890307 0
M  V30 41 H 2.924925 -1.475200 2.632416 0
M  V30 42 H 0.911384 -2.843374 2.924367 0
M  V30 43 H 2.362123 -3.755896 2.290575 0
M  V30 END ATOM
M  V30 BEGIN BOND
M  V30 1 1 1 2
M  V30 2 1 2 3
M  V30 3 1 2 4
M  V30 4 1 4 5
M  V30 5 1 5 6
M  V30 6 1 6 7
M  V30 7 1 7 8
M  V30 8 1 8 9
M  V30 9 2 9 10
M  V30 10 1 10 11
M  V30 11 2 11 12
M  V30 12 1 12 13
M  V30 13 2 13 14
M  V30 14 1 14 15
M  V30 15 2 15 16
M  V30 16 1 16 17
M  V30 17 3 17 18
M  V30 18 1 16 19
M  V30 19 2 19 20
M  V30 20 1 7 21
M  V30 21 1 21 22
M  V30 22 1 22 4
M  V30 23 1 20 9
M  V30 24 1 20 13
M  V30 25 1 1 23
M  V30 26 1 1 24
M  V30 27 1 1 25
M  V30 28 1 3 26
M  V30 29 1 3 27
M  V30 30 1 3 28
M  V30 31 1 4 29 CFG=3
M  V30 32 1 5 30
M  V30 33 1 5 31
M  V30 34 1 6 32
M  V30 35 1 6 33
M  V30 36 1 7 34 CFG=1
M  V30 37 1 8 35
M  V30 38 1 11 36
M  V30 39 1 14 37
M  V30 40 1 15 38
M  V30 41 1 19 39
M  V30 42 1 21 40
M  V30 43 1 21 41
M  V30 44 1 22 42
M  V30 45 1 22 43
M  V30 END BOND
M  V30 END CTAB
M  END
>  <Dataset>  (129) 
ChEMBL_Kinases

>  <Ligand_Instance>  (129) 
nan

>  <PDB_ID>  (129) 
nan

>  <Standardized_SMILES>  (129) 
CN(C)[C@H]1CC[C@H](Nc2ncnc3ccc(C#N)cc23)CC1

>  <Name>  (129) 
nan

>  <Pocket>  (129) 
nan

>  <ATP_Site>  (129) 
nan

>  <Peripheral>  (129) 
nan

>  <Num_H_Atoms_ProtBoundConf>  (129) 
nan

>  <Num_Resolved_Atoms>  (129) 
nan

>  <Num_Not_Resolved_Atoms>  (129) 
nan

$$$$
CHEMBL4083599
     RDKit          3D

  0  0  0  0  0  0  0  0  0  0999 V3000
M  V30 BEGIN CTAB
M  V30 COUNTS 39 41 0 0 0
M  V30 BEGIN ATOM
M  V30 1 C -0.264714 -4.741282 1.474250 0
M  V30 2 N 0.992915 -4.042981 1.283101 0
M  V30 3 C 1.107450 -3.053577 0.376210 0
M  V30 4 C 2.385559 -2.555949 0.386017 0
M  V30 5 C 3.165320 -1.530115 -0.292526 0
M  V30 6 C 4.422461 -1.858029 -0.814791 0
M  V30 7 C 5.263893 -0.997353 -1.488401 0
M  V30 8 N 4.826537 0.249800 -1.646625 0
M  V30 9 C 3.627052 0.625407 -1.166894 0
M  V30 10 C 2.777065 -0.222291 -0.492717 0
M  V30 11 C 1.489003 0.209879 0.026939 0
M  V30 12 C 0.968070 1.411695 -0.085191 0
M  V30 13 C -0.320270 1.864249 0.428219 0
M  V30 14 O -0.744175 3.038180 0.275473 0
M  V30 15 N -1.213763 1.037161 1.142327 0
M  V30 16 C -2.474934 1.457974 1.651880 0
M  V30 17 C -2.666147 1.995528 2.910173 0
M  V30 18 C -3.922619 2.380052 3.331278 0
M  V30 19 C -5.010532 2.233217 2.499842 0
M  V30 20 C -4.851509 1.696537 1.229960 0
M  V30 21 C -3.577486 1.306429 0.802442 0
M  V30 22 C 3.050162 -3.307742 1.361625 0
M  V30 23 N 2.159419 -4.200874 1.879796 0
M  V30 24 H -0.271551 -5.219001 2.474158 0
M  V30 25 H -1.071826 -3.968133 1.487245 0
M  V30 26 H -0.409683 -5.506951 0.676549 0
M  V30 27 H 0.402997 -2.620107 -0.314409 0
M  V30 28 H 4.750905 -2.892474 -0.666605 0
M  V30 29 H 6.218284 -1.396824 -1.839742 0
M  V30 30 H 3.372762 1.656463 -1.350635 0
M  V30 31 H 0.846143 -0.465220 0.570658 0
M  V30 32 H 1.555098 2.162260 -0.619456 0
M  V30 33 H -0.970635 0.038928 1.331896 0
M  V30 34 H -1.793540 2.088526 3.515290 0
M  V30 35 H -4.031269 2.803240 4.339782 0
M  V30 36 H -5.984947 2.558311 2.893450 0
M  V30 37 H -5.727897 1.590247 0.590084 0
M  V30 38 H -3.541471 0.894228 -0.209736 0
M  V30 39 H 4.054837 -3.360210 1.795199 0
M  V30 END ATOM
M  V30 BEGIN BOND
M  V30 1 1 1 2
M  V30 2 1 2 3
M  V30 3 2 3 4
M  V30 4 1 4 5
M  V30 5 2 5 6
M  V30 6 1 6 7
M  V30 7 2 7 8
M  V30 8 1 8 9
M  V30 9 2 9 10
M  V30 10 1 10 11
M  V30 11 2 11 12
M  V30 12 1 12 13
M  V30 13 2 13 14
M  V30 14 1 13 15
M  V30 15 1 15 16
M  V30 16 2 16 17
M  V30 17 1 17 18
M  V30 18 2 18 19
M  V30 19 1 19 20
M  V30 20 2 20 21
M  V30 21 1 4 22
M  V30 22 2 22 23
M  V30 23 1 23 2
M  V30 24 1 10 5
M  V30 25 1 21 16
M  V30 26 1 1 24
M  V30 27 1 1 25
M  V30 28 1 1 26
M  V30 29 1 3 27
M  V30 30 1 6 28
M  V30 31 1 7 29
M  V30 32 1 9 30
M  V30 33 1 11 31
M  V30 34 1 12 32
M  V30 35 1 15 33
M  V30 36 1 17 34
M  V30 37 1 18 35
M  V30 38 1 19 36
M  V30 39 1 20 37
M  V30 40 1 21 38
M  V30 41 1 22 39
M  V30 END BOND
M  V30 END CTAB
M  END
>  <Dataset>  (130) 
ChEMBL_Kinases

>  <Ligand_Instance>  (130) 
nan

>  <PDB_ID>  (130) 
nan

>  <Standardized_SMILES>  (130) 
Cn1cc(-c2ccncc2/C=C/C(=O)Nc2ccccc2)cn1

>  <Name>  (130) 
nan

>  <Pocket>  (130) 
nan

>  <ATP_Site>  (130) 
nan

>  <Peripheral>  (130) 
nan

>  <Num_H_Atoms_ProtBoundConf>  (130) 
nan

>  <Num_Resolved_Atoms>  (130) 
nan

>  <Num_Not_Resolved_Atoms>  (130) 
nan

$$$$
CHEMBL4083585
     RDKit          3D

  0  0  0  0  0  0  0  0  0  0999 V3000
M  V30 BEGIN CTAB
M  V30 COUNTS 40 42 0 0 0
M  V30 BEGIN ATOM
M  V30 1 O -1.209157 -3.118807 -0.449229 0
M  V30 2 C -0.675030 -1.985434 -0.239079 0
M  V30 3 N 0.711110 -2.198608 -0.124024 0
M  V30 4 C 1.264641 -3.504004 -0.244569 0
M  V30 5 C 1.430116 -4.334417 0.846415 0
M  V30 6 C 1.983802 -5.600261 0.623619 0
M  V30 7 C 2.356227 -6.014910 -0.644616 0
M  V30 8 C 2.185194 -5.172220 -1.732267 0
M  V30 9 Cl 2.642778 -5.657676 -3.351876 0
M  V30 10 C 1.644934 -3.935852 -1.517988 0
M  V30 11 C -1.424783 -0.753565 -0.148999 0
M  V30 12 C -2.806128 -0.944572 -0.318573 0
M  V30 13 C -3.707674 0.091349 -0.270945 0
M  V30 14 Br -5.574456 -0.199439 -0.504465 0
M  V30 15 C -3.278365 1.382768 -0.050265 0
M  V30 16 C -1.918182 1.546355 0.113307 0
M  V30 17 C -0.975209 0.540912 0.074283 0
M  V30 18 O 0.344200 0.662853 0.227610 0
M  V30 19 C 1.246724 1.659359 0.460113 0
M  V30 20 C 1.132979 2.439465 1.689559 0
M  V30 21 C 1.747178 1.939338 2.848473 0
M  V30 22 C 1.763100 2.529691 4.094902 0
M  V30 23 C 1.107658 3.735080 4.212376 0
M  V30 24 C 0.480812 4.294080 3.126861 0
M  V30 25 C 0.509549 3.642795 1.914526 0
M  V30 26 H 1.304062 -1.358434 0.052274 0
M  V30 27 H 1.132308 -3.995538 1.841858 0
M  V30 28 H 2.126461 -6.275467 1.459958 0
M  V30 29 H 2.788157 -7.012347 -0.792974 0
M  V30 30 H 1.500256 -3.252868 -2.361635 0
M  V30 31 H -3.261088 -1.919095 -0.498764 0
M  V30 32 H -3.956659 2.223711 -0.006042 0
M  V30 33 H -1.593257 2.547104 0.280048 0
M  V30 34 H 2.276657 1.183351 0.495069 0
M  V30 35 H 1.329660 2.327860 -0.451877 0
M  V30 36 H 2.275154 0.978579 2.774448 0
M  V30 37 H 2.263691 2.059743 4.913785 0
M  V30 38 H 1.069802 4.267175 5.152121 0
M  V30 39 H -0.057631 5.252147 3.158477 0
M  V30 40 H 0.023890 4.081352 1.053931 0
M  V30 END ATOM
M  V30 BEGIN BOND
M  V30 1 2 1 2
M  V30 2 1 2 3
M  V30 3 1 3 4
M  V30 4 2 4 5
M  V30 5 1 5 6
M  V30 6 2 6 7
M  V30 7 1 7 8
M  V30 8 1 8 9
M  V30 9 2 8 10
M  V30 10 1 2 11
M  V30 11 2 11 12
M  V30 12 1 12 13
M  V30 13 1 13 14
M  V30 14 2 13 15
M  V30 15 1 15 16
M  V30 16 2 16 17
M  V30 17 1 17 18
M  V30 18 1 18 19
M  V30 19 1 19 20
M  V30 20 2 20 21
M  V30 21 1 21 22
M  V30 22 2 22 23
M  V30 23 1 23 24
M  V30 24 2 24 25
M  V30 25 1 10 4
M  V30 26 1 17 11
M  V30 27 1 25 20
M  V30 28 1 3 26
M  V30 29 1 5 27
M  V30 30 1 6 28
M  V30 31 1 7 29
M  V30 32 1 10 30
M  V30 33 1 12 31
M  V30 34 1 15 32
M  V30 35 1 16 33
M  V30 36 1 19 34
M  V30 37 1 19 35
M  V30 38 1 21 36
M  V30 39 1 22 37
M  V30 40 1 23 38
M  V30 41 1 24 39
M  V30 42 1 25 40
M  V30 END BOND
M  V30 END CTAB
M  END
>  <Dataset>  (131) 
ChEMBL_Kinases

>  <Ligand_Instance>  (131) 
nan

>  <PDB_ID>  (131) 
nan

>  <Standardized_SMILES>  (131) 
O=C(Nc1cccc(Cl)c1)c1cc(Br)ccc1OCc1ccccc1

>  <Name>  (131) 
nan

>  <Pocket>  (131) 
nan

>  <ATP_Site>  (131) 
nan

>  <Peripheral>  (131) 
nan

>  <Num_H_Atoms_ProtBoundConf>  (131) 
nan

>  <Num_Resolved_Atoms>  (131) 
nan

>  <Num_Not_Resolved_Atoms>  (131) 
nan

$$$$
CHEMBL4083562
     RDKit          3D

  0  0  0  0  0  0  0  0  0  0999 V3000
M  V30 BEGIN CTAB
M  V30 COUNTS 65 70 0 0 0
M  V30 BEGIN ATOM
M  V30 1 C 6.701145 1.414090 3.195599 0
M  V30 2 C 6.120310 2.610745 3.934359 0
M  V30 3 N 6.192652 3.774409 3.102412 0
M  V30 4 C 7.252783 4.526437 2.774241 0
M  V30 5 N 6.865469 5.514440 1.974196 0
M  V30 6 N 5.569462 5.389848 1.796448 0
M  V30 7 C 5.124221 4.319567 2.483803 0
M  V30 8 C 3.714015 3.902292 2.494444 0
M  V30 9 N 3.205582 2.900864 1.774610 0
M  V30 10 C 1.900153 2.699960 1.940034 0
M  V30 11 N 1.364311 1.619476 1.158522 0
M  V30 12 C 0.007012 1.230570 1.161406 0
M  V30 13 O -0.847239 1.820550 1.866966 0
M  V30 14 C -0.502896 0.123898 0.351987 0
M  V30 15 C -1.825871 -0.240415 0.344719 0
M  V30 16 C -2.249340 -1.290763 -0.442556 0
M  V30 17 N -3.640390 -1.541983 -0.363415 0
M  V30 18 C -4.239895 -2.006519 0.776845 0
M  V30 19 N -5.573916 -2.161370 0.639317 0
M  V30 20 C -5.876607 -1.792450 -0.622389 0
M  V30 21 C -7.205565 -1.767952 -1.306595 0
M  V30 22 C -8.221278 -2.816336 -0.901852 0
M  V30 23 C -8.397710 -1.413659 -0.438131 0
M  V30 24 C -4.694541 -1.417066 -1.225223 0
M  V30 25 C -1.430376 -2.036144 -1.253349 0
M  V30 26 N -1.810504 -3.137122 -2.054979 0
M  V30 27 C -0.860950 -3.606744 -3.046153 0
M  V30 28 C -0.235009 -4.917709 -2.594624 0
M  V30 29 C -1.334411 -5.840745 -2.081460 0
M  V30 30 C -2.686854 -5.362132 -2.568775 0
M  V30 31 C -2.996084 -3.937761 -2.065291 0
M  V30 32 C -0.122062 -1.622507 -1.201281 0
M  V30 33 N 0.330822 -0.605394 -0.449266 0
M  V30 34 C 1.099111 3.434373 2.770294 0
M  V30 35 S 2.352475 4.618626 3.453847 0
M  V30 36 C 6.893066 2.776886 5.201413 0
M  V30 37 F 8.221737 2.992288 4.895346 0
M  V30 38 F 6.864308 1.601170 5.941130 0
M  V30 39 F 6.459182 3.852201 5.954109 0
M  V30 40 H 7.771346 1.334445 3.442243 0
M  V30 41 H 6.633368 1.512883 2.092176 0
M  V30 42 H 6.216626 0.466331 3.537535 0
M  V30 43 H 5.056662 2.320298 4.158430 0
M  V30 44 H 8.275289 4.386917 3.086968 0
M  V30 45 H 1.906860 0.989556 0.494256 0
M  V30 46 H -2.468453 0.328526 0.968166 0
M  V30 47 H -3.838938 -2.269139 1.758944 0
M  V30 48 H -7.220978 -1.420423 -2.378477 0
M  V30 49 H -7.860783 -3.542813 -0.149963 0
M  V30 50 H -8.943764 -3.166496 -1.670698 0
M  V30 51 H -8.268386 -1.212243 0.626533 0
M  V30 52 H -9.122477 -0.732413 -0.934938 0
M  V30 53 H -4.487239 -1.051635 -2.244453 0
M  V30 54 H -1.459418 -3.811750 -3.984738 0
M  V30 55 H -0.104580 -2.858133 -3.333274 0
M  V30 56 H 0.282317 -5.373647 -3.435693 0
M  V30 57 H 0.435358 -4.697466 -1.744191 0
M  V30 58 H -1.174342 -6.834759 -2.544640 0
M  V30 59 H -1.283756 -5.975220 -0.988053 0
M  V30 60 H -2.672260 -5.412642 -3.675462 0
M  V30 61 H -3.457092 -6.061141 -2.231973 0
M  V30 62 H -3.663397 -3.534005 -2.854810 0
M  V30 63 H -3.514883 -4.028900 -1.089573 0
M  V30 64 H 0.710284 -2.049050 -1.738377 0
M  V30 65 H 0.085256 3.477192 3.068145 0
M  V30 END ATOM
M  V30 BEGIN BOND
M  V30 1 1 1 2
M  V30 2 1 2 3
M  V30 3 1 3 4
M  V30 4 2 4 5
M  V30 5 1 5 6
M  V30 6 2 6 7
M  V30 7 1 7 8
M  V30 8 2 8 9
M  V30 9 1 9 10
M  V30 10 1 10 11
M  V30 11 1 11 12
M  V30 12 2 12 13
M  V30 13 1 12 14
M  V30 14 2 14 15
M  V30 15 1 15 16
M  V30 16 1 16 17
M  V30 17 1 17 18
M  V30 18 2 18 19
M  V30 19 1 19 20
M  V30 20 1 20 21
M  V30 21 1 21 22
M  V30 22 1 22 23
M  V30 23 2 20 24
M  V30 24 2 16 25
M  V30 25 1 25 26
M  V30 26 1 26 27
M  V30 27 1 27 28
M  V30 28 1 28 29
M  V30 29 1 29 30
M  V30 30 1 30 31
M  V30 31 1 25 32
M  V30 32 2 32 33
M  V30 33 2 10 34
M  V30 34 1 34 35
M  V30 35 1 2 36
M  V30 36 1 36 37
M  V30 37 1 36 38
M  V30 38 1 36 39
M  V30 39 1 7 3
M  V30 40 1 35 8
M  V30 41 1 33 14
M  V30 42 1 24 17
M  V30 43 1 31 26
M  V30 44 1 23 21
M  V30 45 1 1 40
M  V30 46 1 1 41
M  V30 47 1 1 42
M  V30 48 1 2 43
M  V30 49 1 4 44
M  V30 50 1 11 45
M  V30 51 1 15 46
M  V30 52 1 18 47
M  V30 53 1 21 48
M  V30 54 1 22 49
M  V30 55 1 22 50
M  V30 56 1 23 51
M  V30 57 1 23 52
M  V30 58 1 24 53
M  V30 59 1 27 54
M  V30 60 1 27 55
M  V30 61 1 28 56
M  V30 62 1 28 57
M  V30 63 1 29 58
M  V30 64 1 29 59
M  V30 65 1 30 60
M  V30 66 1 30 61
M  V30 67 1 31 62
M  V30 68 1 31 63
M  V30 69 1 32 64
M  V30 70 1 34 65
M  V30 END BOND
M  V30 END CTAB
M  END
>  <Dataset>  (132) 
ChEMBL_Kinases

>  <Ligand_Instance>  (132) 
nan

>  <PDB_ID>  (132) 
nan

>  <Standardized_SMILES>  (132) 
CC(n1cnnc1-c1nc(NC(=O)c2cc(-n3cnc(C4CC4)c3)c(N3CCCCC3)cn2)cs1)C(F)(F)F

>  <Name>  (132) 
nan

>  <Pocket>  (132) 
nan

>  <ATP_Site>  (132) 
nan

>  <Peripheral>  (132) 
nan

>  <Num_H_Atoms_ProtBoundConf>  (132) 
nan

>  <Num_Resolved_Atoms>  (132) 
nan

>  <Num_Not_Resolved_Atoms>  (132) 
nan

$$$$
CHEMBL4083552
     RDKit          3D

  0  0  0  0  0  0  0  0  0  0999 V3000
M  V30 BEGIN CTAB
M  V30 COUNTS 34 37 0 0 0
M  V30 BEGIN ATOM
M  V30 1 N 1.403389 -4.215766 1.971727 0
M  V30 2 C 0.214874 -3.530101 2.336051 0
M  V30 3 O -0.439363 -4.173405 3.191150 0
M  V30 4 C -0.062528 -2.212291 1.678661 0
M  V30 5 S 1.087255 -1.480179 0.431453 0
M  V30 6 C 0.065415 -0.048734 0.204495 0
M  V30 7 O 0.453166 0.985096 -0.720702 0
M  V30 8 C 1.664146 0.800305 -1.421097 0
M  V30 9 C 1.619155 0.143596 -2.634958 0
M  V30 10 C 2.814711 -0.027875 -3.305963 0
M  V30 11 C 4.016021 0.434821 -2.793724 0
M  V30 12 C 4.050691 1.098772 -1.563301 0
M  V30 13 C 2.860734 1.278403 -0.878689 0
M  V30 14 C -0.964988 -0.213145 1.006733 0
M  V30 15 C -1.085416 -1.304699 1.788508 0
M  V30 16 C -2.183858 -1.605539 2.730741 0
M  V30 17 C -3.294845 -0.652271 2.833989 0
M  V30 18 C -3.080700 0.507225 1.956810 0
M  V30 19 C -4.047802 1.469933 1.990123 0
M  V30 20 N -3.998877 2.651863 1.204129 0
M  V30 21 S -2.379995 2.324372 0.330050 0
M  V30 22 C -2.072221 0.806548 1.091718 0
M  V30 23 H 2.297172 -4.325691 2.538085 0
M  V30 24 H 1.779465 -4.769388 1.159150 0
M  V30 25 H 0.664470 -0.208569 -3.012995 0
M  V30 26 H 2.787473 -0.541981 -4.258567 0
M  V30 27 H 4.913055 0.258658 -3.385949 0
M  V30 28 H 5.005822 1.449731 -1.187647 0
M  V30 29 H 2.891223 1.790182 0.068636 0
M  V30 30 H -2.638919 -2.593116 2.376732 0
M  V30 31 H -1.718784 -1.826531 3.742153 0
M  V30 32 H -3.367965 -0.349746 3.915973 0
M  V30 33 H -4.259704 -1.178612 2.607799 0
M  V30 34 H -4.993879 1.714648 2.466970 0
M  V30 END ATOM
M  V30 BEGIN BOND
M  V30 1 1 1 2
M  V30 2 2 2 3
M  V30 3 1 2 4
M  V30 4 1 4 5
M  V30 5 1 5 6
M  V30 6 1 6 7
M  V30 7 1 7 8
M  V30 8 2 8 9
M  V30 9 1 9 10
M  V30 10 2 10 11
M  V30 11 1 11 12
M  V30 12 2 12 13
M  V30 13 2 6 14
M  V30 14 1 14 15
M  V30 15 1 15 16
M  V30 16 1 16 17
M  V30 17 1 17 18
M  V30 18 1 18 19
M  V30 19 2 19 20
M  V30 20 1 20 21
M  V30 21 1 21 22
M  V30 22 2 15 4
M  V30 23 2 22 18
M  V30 24 1 13 8
M  V30 25 1 22 14
M  V30 26 1 1 23
M  V30 27 1 1 24
M  V30 28 1 9 25
M  V30 29 1 10 26
M  V30 30 1 11 27
M  V30 31 1 12 28
M  V30 32 1 13 29
M  V30 33 1 16 30
M  V30 34 1 16 31
M  V30 35 1 17 32
M  V30 36 1 17 33
M  V30 37 1 19 34
M  V30 END BOND
M  V30 END CTAB
M  END
>  <Dataset>  (133) 
ChEMBL_Kinases

>  <Ligand_Instance>  (133) 
nan

>  <PDB_ID>  (133) 
nan

>  <Standardized_SMILES>  (133) 
NC(=O)c1sc(Oc2ccccc2)c2c1CCc1cnsc1-2

>  <Name>  (133) 
nan

>  <Pocket>  (133) 
nan

>  <ATP_Site>  (133) 
nan

>  <Peripheral>  (133) 
nan

>  <Num_H_Atoms_ProtBoundConf>  (133) 
nan

>  <Num_Resolved_Atoms>  (133) 
nan

>  <Num_Not_Resolved_Atoms>  (133) 
nan

$$$$
CHEMBL4083545
     RDKit          3D

  0  0  0  0  0  0  0  0  0  0999 V3000
M  V30 BEGIN CTAB
M  V30 COUNTS 49 51 0 0 0
M  V30 BEGIN ATOM
M  V30 1 C 4.075368 -2.499996 4.597241 0
M  V30 2 C 3.283122 -2.425665 3.311154 0
M  V30 3 C 1.815444 -2.623633 3.717220 0
M  V30 4 C 3.605764 -3.525267 2.362067 0
M  V30 5 C 3.333545 -1.035443 2.712385 0 CFG=1
M  V30 6 C 4.694704 -0.554394 2.375359 0
M  V30 7 O 5.299518 -1.211301 1.328391 0
M  V30 8 N 2.344033 -0.952219 1.696244 0
M  V30 9 C 1.086822 -0.365258 1.441938 0
M  V30 10 O 0.666118 0.310407 2.392482 0
M  V30 11 C 0.422402 -0.585710 0.161335 0
M  V30 12 C 0.873660 -1.333874 -0.921050 0
M  V30 13 C 0.101494 -1.427897 -2.059688 0
M  V30 14 C -1.122743 -0.810491 -2.196583 0
M  V30 15 C -1.542212 -0.075919 -1.105421 0
M  V30 16 C -0.800601 0.044495 0.054090 0
M  V30 17 C -2.839409 0.475032 -1.475556 0
M  V30 18 C -3.675764 1.228463 -0.782579 0
M  V30 19 C -4.965715 1.780001 -1.153687 0
M  V30 20 C -6.021690 1.633296 -0.240399 0
M  V30 21 C -7.153512 2.218497 -0.716126 0
M  V30 22 C -6.815918 2.740298 -1.937812 0
M  V30 23 N -5.528566 2.464906 -2.159833 0
M  V30 24 C -3.165648 0.035804 -2.824585 0
M  V30 25 O -4.178460 0.274757 -3.523977 0
M  V30 26 N -2.072343 -0.769928 -3.256477 0
M  V30 27 H 5.068655 -2.968649 4.446797 0
M  V30 28 H 4.193655 -1.438421 4.936843 0
M  V30 29 H 3.505050 -2.996257 5.407966 0
M  V30 30 H 1.467829 -1.755760 4.322656 0
M  V30 31 H 1.182570 -2.627665 2.795576 0
M  V30 32 H 1.666542 -3.596677 4.211890 0
M  V30 33 H 4.494574 -3.367045 1.735375 0
M  V30 34 H 2.763379 -3.770254 1.671736 0
M  V30 35 H 3.705353 -4.458231 2.991297 0
M  V30 36 H 2.952796 -0.377302 3.551809 0
M  V30 37 H 5.328696 -0.747821 3.275567 0
M  V30 38 H 4.659228 0.549915 2.278115 0
M  V30 39 H 5.872592 -0.540460 0.839500 0
M  V30 40 H 2.839041 -1.559585 0.982517 0
M  V30 41 H 1.836697 -1.798299 -0.767749 0
M  V30 42 H 0.491014 -2.022627 -2.884128 0
M  V30 43 H -1.233934 0.650264 0.849023 0
M  V30 44 H -3.286776 1.446848 0.227634 0
M  V30 45 H -6.054666 1.144822 0.735407 0
M  V30 46 H -8.143382 2.318889 -0.326445 0
M  V30 47 H -7.433784 3.290614 -2.651803 0
M  V30 48 H -4.981782 2.737382 -2.985916 0
M  V30 49 H -2.019860 -1.230094 -4.194200 0
M  V30 END ATOM
M  V30 BEGIN BOND
M  V30 1 1 1 2
M  V30 2 1 2 3
M  V30 3 1 2 4
M  V30 4 1 2 5
M  V30 5 1 5 6
M  V30 6 1 6 7
M  V30 7 1 5 8
M  V30 8 1 8 9
M  V30 9 2 9 10
M  V30 10 1 9 11
M  V30 11 2 11 12
M  V30 12 1 12 13
M  V30 13 2 13 14
M  V30 14 1 14 15
M  V30 15 2 15 16
M  V30 16 1 15 17
M  V30 17 2 17 18
M  V30 18 1 18 19
M  V30 19 2 19 20
M  V30 20 1 20 21
M  V30 21 2 21 22
M  V30 22 1 22 23
M  V30 23 1 17 24
M  V30 24 2 24 25
M  V30 25 1 24 26
M  V30 26 1 16 11
M  V30 27 1 23 19
M  V30 28 1 26 14
M  V30 29 1 1 27
M  V30 30 1 1 28
M  V30 31 1 1 29
M  V30 32 1 3 30
M  V30 33 1 3 31
M  V30 34 1 3 32
M  V30 35 1 4 33
M  V30 36 1 4 34
M  V30 37 1 4 35
M  V30 38 1 5 36 CFG=1
M  V30 39 1 6 37
M  V30 40 1 6 38
M  V30 41 1 7 39
M  V30 42 1 8 40
M  V30 43 1 12 41
M  V30 44 1 13 42
M  V30 45 1 16 43
M  V30 46 1 18 44
M  V30 47 1 20 45
M  V30 48 1 21 46
M  V30 49 1 22 47
M  V30 50 1 23 48
M  V30 51 1 26 49
M  V30 END BOND
M  V30 END CTAB
M  END
>  <Dataset>  (134) 
ChEMBL_Kinases

>  <Ligand_Instance>  (134) 
nan

>  <PDB_ID>  (134) 
nan

>  <Standardized_SMILES>  (134) 
CC(C)(C)[C@@H](CO)NC(=O)c1ccc2c(c1)/C(=C/c1ccc[nH]1)C(=O)N2

>  <Name>  (134) 
nan

>  <Pocket>  (134) 
nan

>  <ATP_Site>  (134) 
nan

>  <Peripheral>  (134) 
nan

>  <Num_H_Atoms_ProtBoundConf>  (134) 
nan

>  <Num_Resolved_Atoms>  (134) 
nan

>  <Num_Not_Resolved_Atoms>  (134) 
nan

$$$$
CHEMBL4083979
     RDKit          3D

  0  0  0  0  0  0  0  0  0  0999 V3000
M  V30 BEGIN CTAB
M  V30 COUNTS 33 35 0 0 0
M  V30 BEGIN ATOM
M  V30 1 C -0.849078 -0.425757 5.049568 0
M  V30 2 S 0.576289 0.434201 4.341817 0
M  V30 3 C 0.763993 -0.053842 2.555399 0
M  V30 4 S 1.699142 -1.410871 1.927024 0
M  V30 5 C 1.317860 -1.094934 0.272076 0
M  V30 6 C 1.905585 -2.033468 -0.768341 0
M  V30 7 O 2.997212 -1.798314 -1.369712 0
M  V30 8 N 1.117915 -3.190639 -0.998124 0
M  V30 9 C -0.148709 -3.485531 -0.317622 0
M  V30 10 C 1.619171 -4.149076 -1.985038 0
M  V30 11 C 0.526948 -0.015315 0.248216 0
M  V30 12 C 0.258189 0.500598 1.455805 0
M  V30 13 C -0.683955 1.722028 1.493287 0
M  V30 14 S -1.283178 2.710662 2.685877 0
M  V30 15 N -2.266800 3.836311 1.551259 0
M  V30 16 C -1.938009 3.211640 0.394830 0
M  V30 17 C -1.122468 2.107140 0.272823 0
M  V30 18 C -0.915613 1.569384 -1.084521 0
M  V30 19 C 0.084709 0.486819 -1.074526 0
M  V30 20 H -1.727463 0.250775 5.168699 0
M  V30 21 H -1.160753 -1.224309 4.344808 0
M  V30 22 H -0.597123 -0.952385 5.992558 0
M  V30 23 H -0.599315 -4.405266 -0.695439 0
M  V30 24 H 0.105668 -3.666775 0.746744 0
M  V30 25 H -0.825127 -2.607960 -0.351556 0
M  V30 26 H 2.110422 -3.585627 -2.804312 0
M  V30 27 H 2.429679 -4.699252 -1.441573 0
M  V30 28 H 0.870292 -4.879069 -2.300454 0
M  V30 29 H -2.518742 3.877094 -0.270531 0
M  V30 30 H -1.909586 1.145731 -1.391039 0
M  V30 31 H -0.588658 2.346972 -1.814797 0
M  V30 32 H 1.011758 0.829089 -1.658394 0
M  V30 33 H -0.319275 -0.332125 -1.739705 0
M  V30 END ATOM
M  V30 BEGIN BOND
M  V30 1 1 1 2
M  V30 2 1 2 3
M  V30 3 1 3 4
M  V30 4 1 4 5
M  V30 5 1 5 6
M  V30 6 2 6 7
M  V30 7 1 6 8
M  V30 8 1 8 9
M  V30 9 1 8 10
M  V30 10 2 5 11
M  V30 11 1 11 12
M  V30 12 1 12 13
M  V30 13 1 13 14
M  V30 14 1 14 15
M  V30 15 2 15 16
M  V30 16 1 16 17
M  V30 17 1 17 18
M  V30 18 1 18 19
M  V30 19 2 12 3
M  V30 20 2 17 13
M  V30 21 1 19 11
M  V30 22 1 1 20
M  V30 23 1 1 21
M  V30 24 1 1 22
M  V30 25 1 9 23
M  V30 26 1 9 24
M  V30 27 1 9 25
M  V30 28 1 10 26
M  V30 29 1 10 27
M  V30 30 1 10 28
M  V30 31 1 16 29
M  V30 32 1 18 30
M  V30 33 1 18 31
M  V30 34 1 19 32
M  V30 35 1 19 33
M  V30 END BOND
M  V30 END CTAB
M  END
>  <Dataset>  (135) 
ChEMBL_Kinases

>  <Ligand_Instance>  (135) 
nan

>  <PDB_ID>  (135) 
nan

>  <Standardized_SMILES>  (135) 
CSc1sc(C(=O)N(C)C)c2c1-c1sncc1CC2

>  <Name>  (135) 
nan

>  <Pocket>  (135) 
nan

>  <ATP_Site>  (135) 
nan

>  <Peripheral>  (135) 
nan

>  <Num_H_Atoms_ProtBoundConf>  (135) 
nan

>  <Num_Resolved_Atoms>  (135) 
nan

>  <Num_Not_Resolved_Atoms>  (135) 
nan

$$$$
CHEMBL4856131
     RDKit          3D

  0  0  0  0  0  0  0  0  0  0999 V3000
M  V30 BEGIN CTAB
M  V30 COUNTS 40 41 0 0 0
M  V30 BEGIN ATOM
M  V30 1 C 1.638161 -3.886526 2.833276 0
M  V30 2 C 1.058389 -5.007718 2.054683 0
M  V30 3 C 0.690071 -4.724255 0.637352 0
M  V30 4 C -0.354549 -3.702848 0.398303 0 CFG=2
M  V30 5 N -0.516233 -3.628088 -1.080441 0
M  V30 6 C -0.195723 -2.369962 0.931896 0
M  V30 7 O -0.008748 -2.359985 -0.344768 0
M  V30 8 N -0.143916 -1.320257 1.855759 0
M  V30 9 C 0.170853 -0.026547 1.355373 0
M  V30 10 C 1.506259 0.316878 1.311633 0
M  V30 11 C 1.746671 1.591589 0.815305 0
M  V30 12 C 0.728472 2.428311 0.406334 0
M  V30 13 C 1.089278 3.748305 -0.099697 0
M  V30 14 C 0.342111 4.796148 -0.575136 0
M  V30 15 N 1.195368 5.800773 -0.919102 0
M  V30 16 C 2.443728 5.360899 -0.652796 0
M  V30 17 O 2.329253 4.165985 -0.179496 0
M  V30 18 C -0.580928 2.006606 0.483471 0
M  V30 19 O -1.631424 2.815667 0.083469 0
M  V30 20 C -2.983487 2.405505 0.153390 0
M  V30 21 C -0.897102 0.753295 0.965713 0
M  V30 22 H 2.550450 -4.280795 3.377762 0
M  V30 23 H 0.983102 -3.550740 3.680242 0
M  V30 24 H 1.970451 -3.081167 2.175035 0
M  V30 25 H 1.816383 -5.852735 2.048176 0
M  V30 26 H 0.167206 -5.368288 2.626738 0
M  V30 27 H 1.616851 -4.558437 0.017200 0
M  V30 28 H 0.333231 -5.725279 0.228694 0
M  V30 29 H -1.347998 -4.113396 0.751573 0
M  V30 30 H -1.308254 -4.181894 -1.414955 0
M  V30 31 H 0.385204 -3.820790 -1.546453 0
M  V30 32 H -0.388081 -1.905902 2.682654 0
M  V30 33 H 2.292256 -0.339733 1.631468 0
M  V30 34 H 2.810661 1.876846 0.775657 0
M  V30 35 H -0.725046 4.800529 -0.653014 0
M  V30 36 H 3.435858 5.778581 -0.750192 0
M  V30 37 H -3.273356 2.120187 1.191501 0
M  V30 38 H -3.639169 3.251899 -0.108432 0
M  V30 39 H -3.191114 1.541560 -0.479647 0
M  V30 40 H -1.911661 0.397335 1.037301 0
M  V30 END ATOM
M  V30 BEGIN BOND
M  V30 1 1 1 2
M  V30 2 1 2 3
M  V30 3 1 3 4
M  V30 4 1 4 5
M  V30 5 1 4 6
M  V30 6 2 6 7
M  V30 7 1 6 8
M  V30 8 1 8 9
M  V30 9 2 9 10
M  V30 10 1 10 11
M  V30 11 2 11 12
M  V30 12 1 12 13
M  V30 13 2 13 14
M  V30 14 1 14 15
M  V30 15 2 15 16
M  V30 16 1 16 17
M  V30 17 1 12 18
M  V30 18 1 18 19
M  V30 19 1 19 20
M  V30 20 2 18 21
M  V30 21 1 21 9
M  V30 22 1 17 13
M  V30 23 1 1 22
M  V30 24 1 1 23
M  V30 25 1 1 24
M  V30 26 1 2 25
M  V30 27 1 2 26
M  V30 28 1 3 27
M  V30 29 1 3 28
M  V30 30 1 4 29 CFG=1
M  V30 31 1 5 30
M  V30 32 1 5 31
M  V30 33 1 8 32
M  V30 34 1 10 33
M  V30 35 1 11 34
M  V30 36 1 14 35
M  V30 37 1 16 36
M  V30 38 1 20 37
M  V30 39 1 20 38
M  V30 40 1 20 39
M  V30 41 1 21 40
M  V30 END BOND
M  V30 END CTAB
M  END
>  <Dataset>  (136) 
ChEMBL_Kinases

>  <Ligand_Instance>  (136) 
nan

>  <PDB_ID>  (136) 
nan

>  <Standardized_SMILES>  (136) 
CCC[C@H](N)C(=O)Nc1ccc(-c2cnco2)c(OC)c1

>  <Name>  (136) 
nan

>  <Pocket>  (136) 
nan

>  <ATP_Site>  (136) 
nan

>  <Peripheral>  (136) 
nan

>  <Num_H_Atoms_ProtBoundConf>  (136) 
nan

>  <Num_Resolved_Atoms>  (136) 
nan

>  <Num_Not_Resolved_Atoms>  (136) 
nan

$$$$
CHEMBL4856136
     RDKit          3D

  0  0  0  0  0  0  0  0  0  0999 V3000
M  V30 BEGIN CTAB
M  V30 COUNTS 40 42 0 0 0
M  V30 BEGIN ATOM
M  V30 1 C -1.639688 -4.946544 0.774904 0
M  V30 2 C -0.180283 -4.723956 0.990160 0
M  V30 3 C 0.243542 -3.300157 0.647929 0
M  V30 4 C -0.102459 -3.116219 -0.811360 0
M  V30 5 N -0.427296 -2.330121 1.495455 0
M  V30 6 C -0.113878 -0.951071 1.348953 0
M  V30 7 C 0.821139 -0.540098 0.423073 0
M  V30 8 C 1.147280 0.786677 0.263419 0
M  V30 9 C 2.081797 1.197306 -0.662142 0
M  V30 10 C 2.440560 2.512693 -0.857641 0
M  V30 11 C 3.438398 2.878133 -1.855969 0
M  V30 12 O 3.992692 1.994607 -2.560498 0
M  V30 13 O 3.776955 4.210606 -2.027899 0
M  V30 14 C 1.835640 3.467645 -0.089993 0
M  V30 15 C 0.888651 3.097353 0.854247 0
M  V30 16 C 0.561234 1.779471 1.016453 0
M  V30 17 C -0.373780 1.392658 1.945842 0
M  V30 18 C -0.988152 2.333983 2.721576 0
M  V30 19 N -1.917571 1.983142 3.649986 0
M  V30 20 C -2.258294 0.685813 3.828938 0
M  V30 21 C -1.632002 -0.254496 3.040819 0
M  V30 22 C -0.685079 0.060952 2.089128 0
M  V30 23 H -2.156845 -4.090417 0.296826 0
M  V30 24 H -2.153482 -5.280795 1.702661 0
M  V30 25 H -1.778787 -5.793440 0.058388 0
M  V30 26 H 0.418222 -5.463947 0.445652 0
M  V30 27 H 0.038878 -4.908036 2.073934 0
M  V30 28 H 1.336193 -3.212973 0.811331 0
M  V30 29 H 0.817469 -3.218733 -1.423317 0
M  V30 30 H -0.769138 -3.931126 -1.189864 0
M  V30 31 H -0.679223 -2.185756 -1.017246 0
M  V30 32 H -1.110402 -2.731093 2.169344 0
M  V30 33 H 1.355629 -1.217610 -0.228061 0
M  V30 34 H 2.589787 0.461001 -1.297723 0
M  V30 35 H 4.562977 4.523121 -2.580407 0
M  V30 36 H 2.125664 4.515082 -0.250234 0
M  V30 37 H 0.476056 3.917229 1.401097 0
M  V30 38 H -0.833442 3.395566 2.705577 0
M  V30 39 H -2.999340 0.425612 4.571879 0
M  V30 40 H -1.946143 -1.270504 3.230613 0
M  V30 END ATOM
M  V30 BEGIN BOND
M  V30 1 1 1 2
M  V30 2 1 2 3
M  V30 3 1 3 4
M  V30 4 1 3 5
M  V30 5 1 5 6
M  V30 6 2 6 7
M  V30 7 1 7 8
M  V30 8 2 8 9
M  V30 9 1 9 10
M  V30 10 1 10 11
M  V30 11 2 11 12
M  V30 12 1 11 13
M  V30 13 2 10 14
M  V30 14 1 14 15
M  V30 15 2 15 16
M  V30 16 1 16 17
M  V30 17 2 17 18
M  V30 18 1 18 19
M  V30 19 2 19 20
M  V30 20 1 20 21
M  V30 21 2 21 22
M  V30 22 1 22 6
M  V30 23 1 16 8
M  V30 24 1 22 17
M  V30 25 1 1 23
M  V30 26 1 1 24
M  V30 27 1 1 25
M  V30 28 1 2 26
M  V30 29 1 2 27
M  V30 30 1 3 28
M  V30 31 1 4 29
M  V30 32 1 4 30
M  V30 33 1 4 31
M  V30 34 1 5 32
M  V30 35 1 7 33
M  V30 36 1 9 34
M  V30 37 1 13 35
M  V30 38 1 14 36
M  V30 39 1 15 37
M  V30 40 1 18 38
M  V30 41 1 20 39
M  V30 42 1 21 40
M  V30 END BOND
M  V30 END CTAB
M  END
>  <Dataset>  (137) 
ChEMBL_Kinases

>  <Ligand_Instance>  (137) 
nan

>  <PDB_ID>  (137) 
nan

>  <Standardized_SMILES>  (137) 
CCC(C)Nc1cc2cc(C(=O)O)ccc2c2cnccc12

>  <Name>  (137) 
nan

>  <Pocket>  (137) 
nan

>  <ATP_Site>  (137) 
nan

>  <Peripheral>  (137) 
nan

>  <Num_H_Atoms_ProtBoundConf>  (137) 
nan

>  <Num_Resolved_Atoms>  (137) 
nan

>  <Num_Not_Resolved_Atoms>  (137) 
nan

$$$$
CHEMBL4076977
     RDKit          3D

  0  0  0  0  0  0  0  0  0  0999 V3000
M  V30 BEGIN CTAB
M  V30 COUNTS 33 36 0 0 0
M  V30 BEGIN ATOM
M  V30 1 O 1.364031 -6.446648 -0.715327 0
M  V30 2 C 1.276562 -5.549601 0.166443 0
M  V30 3 N 1.529837 -5.662716 1.576039 0
M  V30 4 C 1.277290 -4.356362 2.074340 0
M  V30 5 S 1.458674 -4.059612 3.686422 0
M  V30 6 N 0.886949 -3.470650 1.036643 0
M  V30 7 C 0.886443 -4.192759 -0.118367 0
M  V30 8 C 0.535521 -3.552159 -1.299502 0
M  V30 9 C 0.207447 -2.216381 -1.228351 0
M  V30 10 C -0.143095 -1.581693 -2.416597 0
M  V30 11 C -0.485670 -0.247173 -2.438546 0
M  V30 12 C -0.487851 0.492865 -1.271818 0
M  V30 13 S -0.925704 2.231664 -1.247023 0
M  V30 14 C -0.817550 2.855498 0.427113 0
M  V30 15 C 0.289062 3.413137 1.034925 0
M  V30 16 C 0.212654 3.849320 2.339270 0
M  V30 17 C -0.955888 3.744155 3.069265 0
M  V30 18 C -2.085500 3.190557 2.493155 0
M  V30 19 C -1.989128 2.758616 1.183273 0
M  V30 20 C -0.132514 -0.172895 -0.103027 0
M  V30 21 C 0.206535 -1.491236 -0.077414 0
M  V30 22 C 0.562283 -2.167004 1.077934 0
M  V30 23 O 0.570697 -1.517376 2.166973 0
M  V30 24 H 1.827382 -6.550395 2.028029 0
M  V30 25 H 0.532190 -4.117726 -2.222558 0
M  V30 26 H -0.171863 -2.078408 -3.389536 0
M  V30 27 H -0.766360 0.298246 -3.330705 0
M  V30 28 H 1.170487 3.463161 0.401184 0
M  V30 29 H 1.124688 4.284654 2.771418 0
M  V30 30 H -0.988571 4.100704 4.109276 0
M  V30 31 H -3.013528 3.095133 3.039150 0
M  V30 32 H -2.902707 2.325850 0.759757 0
M  V30 33 H -0.111823 0.345160 0.853270 0
M  V30 END ATOM
M  V30 BEGIN BOND
M  V30 1 2 1 2
M  V30 2 1 2 3
M  V30 3 1 3 4
M  V30 4 2 4 5
M  V30 5 1 4 6
M  V30 6 1 6 7
M  V30 7 2 7 8
M  V30 8 1 8 9
M  V30 9 2 9 10
M  V30 10 1 10 11
M  V30 11 2 11 12
M  V30 12 1 12 13
M  V30 13 1 13 14
M  V30 14 2 14 15
M  V30 15 1 15 16
M  V30 16 2 16 17
M  V30 17 1 17 18
M  V30 18 2 18 19
M  V30 19 1 12 20
M  V30 20 2 20 21
M  V30 21 1 21 22
M  V30 22 2 22 23
M  V30 23 1 7 2
M  V30 24 1 21 9
M  V30 25 1 22 6
M  V30 26 1 19 14
M  V30 27 1 3 24
M  V30 28 1 8 25
M  V30 29 1 10 26
M  V30 30 1 11 27
M  V30 31 1 15 28
M  V30 32 1 16 29
M  V30 33 1 17 30
M  V30 34 1 18 31
M  V30 35 1 19 32
M  V30 36 1 20 33
M  V30 END BOND
M  V30 END CTAB
M  END
>  <Dataset>  (138) 
ChEMBL_Kinases

>  <Ligand_Instance>  (138) 
nan

>  <PDB_ID>  (138) 
nan

>  <Standardized_SMILES>  (138) 
O=C1NC(=S)n2c1cc1ccc(Sc3ccccc3)cc1c2=O

>  <Name>  (138) 
nan

>  <Pocket>  (138) 
nan

>  <ATP_Site>  (138) 
nan

>  <Peripheral>  (138) 
nan

>  <Num_H_Atoms_ProtBoundConf>  (138) 
nan

>  <Num_Resolved_Atoms>  (138) 
nan

>  <Num_Not_Resolved_Atoms>  (138) 
nan

$$$$
CHEMBL4076950
     RDKit          3D

  0  0  0  0  0  0  0  0  0  0999 V3000
M  V30 BEGIN CTAB
M  V30 COUNTS 72 77 0 0 0
M  V30 BEGIN ATOM
M  V30 1 O -3.320706 -2.862946 5.801499 0
M  V30 2 C -3.506568 -2.591317 4.599948 0
M  V30 3 N -4.658703 -3.028622 3.897461 0
M  V30 4 C -5.576912 -3.816140 4.728668 0
M  V30 5 C -6.750846 -4.234803 3.870193 0
M  V30 6 N -6.296217 -5.038962 2.744927 0
M  V30 7 C -7.421441 -5.436389 1.946473 0
M  V30 8 C -6.996661 -6.435668 0.881422 0
M  V30 9 O -6.491607 -7.539468 1.532892 0
M  V30 10 C -5.326537 -7.219209 2.182261 0
M  V30 11 C -5.461327 -6.107262 3.191332 0
M  V30 12 C -2.455427 -1.788861 3.953746 0
M  V30 13 C -1.326619 -1.479801 4.692014 0
M  V30 14 C -0.253791 -0.730454 4.196524 0
M  V30 15 C -0.355291 -0.286729 2.894354 0
M  V30 16 C -1.474895 -0.583247 2.138578 0
M  V30 17 C -2.522213 -1.326556 2.654177 0
M  V30 18 C -1.791074 -0.217488 0.750099 0
M  V30 19 O -2.981247 -0.258467 0.346917 0
M  V30 20 C -0.757590 0.201184 -0.197101 0
M  V30 21 C -1.279428 0.425891 -1.478618 0
M  V30 22 C -0.521063 0.820238 -2.559040 0
M  V30 23 C 0.839508 1.006770 -2.368774 0
M  V30 24 N 1.641101 1.411673 -3.443027 0
M  V30 25 C 3.020650 1.477173 -3.685831 0
M  V30 26 C 3.739826 2.591949 -3.965593 0
M  V30 27 C 5.077436 2.373594 -4.176339 0
M  V30 28 N 5.968839 3.468957 -4.473845 0
M  V30 29 C 6.519656 3.936505 -3.244965 0
M  V30 30 O 6.165585 3.371858 -2.183504 0
M  V30 31 C 7.462069 5.035046 -3.213816 0
M  V30 32 C 8.050966 5.837387 -4.116913 0
M  V30 33 C 8.930747 6.789120 -3.687188 0
M  V30 34 C 9.173907 6.872882 -2.269901 0
M  V30 35 S 8.068904 5.508001 -1.571668 0
M  V30 36 C 5.749311 1.176334 -4.135631 0
M  V30 37 F 7.058605 1.009811 -4.350907 0
M  V30 38 C 4.971956 0.044074 -3.842116 0
M  V30 39 C 3.601947 0.211981 -3.618921 0
M  V30 40 F 2.965259 -0.955601 -3.350342 0
M  V30 41 C 1.414791 0.803970 -1.135924 0
M  V30 42 C 0.602269 0.409160 -0.091972 0
M  V30 43 O 1.236143 0.215007 1.153053 0
M  V30 44 C 0.845215 0.485965 2.476205 0
M  V30 45 H -4.790893 -2.782487 2.890295 0
M  V30 46 H -5.074779 -4.755004 5.070988 0
M  V30 47 H -5.873428 -3.261283 5.614845 0
M  V30 48 H -7.393926 -3.398811 3.601167 0
M  V30 49 H -7.374793 -4.915316 4.518370 0
M  V30 50 H -7.801287 -4.543944 1.405510 0
M  V30 51 H -8.227847 -5.921051 2.540803 0
M  V30 52 H -7.952974 -6.720874 0.364237 0
M  V30 53 H -6.320519 -5.992017 0.147885 0
M  V30 54 H -5.035806 -8.140191 2.768776 0
M  V30 55 H -4.465822 -7.032972 1.504299 0
M  V30 56 H -5.779642 -6.514210 4.182009 0
M  V30 57 H -4.434566 -5.708703 3.344941 0
M  V30 58 H -1.161554 -1.787711 5.731236 0
M  V30 59 H 0.623388 -0.494413 4.773021 0
M  V30 60 H -3.383210 -1.547943 2.062387 0
M  V30 61 H -2.358761 0.279347 -1.638161 0
M  V30 62 H -0.992818 0.974184 -3.522420 0
M  V30 63 H 1.186266 1.765192 -4.334199 0
M  V30 64 H 3.268971 3.556807 -4.014132 0
M  V30 65 H 6.257428 3.936907 -5.349029 0
M  V30 66 H 7.820879 5.718841 -5.162316 0
M  V30 67 H 9.463522 7.486075 -4.315629 0
M  V30 68 H 9.860667 7.597817 -1.787304 0
M  V30 69 H 5.470987 -0.921787 -3.798843 0
M  V30 70 H 2.476167 0.932382 -0.906047 0
M  V30 71 H 0.602855 1.552109 2.587550 0
M  V30 72 H 1.695240 0.174385 3.119586 0
M  V30 END ATOM
M  V30 BEGIN BOND
M  V30 1 2 1 2
M  V30 2 1 2 3
M  V30 3 1 3 4
M  V30 4 1 4 5
M  V30 5 1 5 6
M  V30 6 1 6 7
M  V30 7 1 7 8
M  V30 8 1 8 9
M  V30 9 1 9 10
M  V30 10 1 10 11
M  V30 11 1 2 12
M  V30 12 2 12 13
M  V30 13 1 13 14
M  V30 14 2 14 15
M  V30 15 1 15 16
M  V30 16 2 16 17
M  V30 17 1 16 18
M  V30 18 2 18 19
M  V30 19 1 18 20
M  V30 20 2 20 21
M  V30 21 1 21 22
M  V30 22 2 22 23
M  V30 23 1 23 24
M  V30 24 1 24 25
M  V30 25 2 25 26
M  V30 26 1 26 27
M  V30 27 1 27 28
M  V30 28 1 28 29
M  V30 29 2 29 30
M  V30 30 1 29 31
M  V30 31 2 31 32
M  V30 32 1 32 33
M  V30 33 2 33 34
M  V30 34 1 34 35
M  V30 35 2 27 36
M  V30 36 1 36 37
M  V30 37 1 36 38
M  V30 38 2 38 39
M  V30 39 1 39 40
M  V30 40 1 23 41
M  V30 41 2 41 42
M  V30 42 1 42 43
M  V30 43 1 43 44
M  V30 44 1 11 6
M  V30 45 1 17 12
M  V30 46 1 42 20
M  V30 47 1 44 15
M  V30 48 1 39 25
M  V30 49 1 35 31
M  V30 50 1 3 45
M  V30 51 1 4 46
M  V30 52 1 4 47
M  V30 53 1 5 48
M  V30 54 1 5 49
M  V30 55 1 7 50
M  V30 56 1 7 51
M  V30 57 1 8 52
M  V30 58 1 8 53
M  V30 59 1 10 54
M  V30 60 1 10 55
M  V30 61 1 11 56
M  V30 62 1 11 57
M  V30 63 1 13 58
M  V30 64 1 14 59
M  V30 65 1 17 60
M  V30 66 1 21 61
M  V30 67 1 22 62
M  V30 68 1 24 63
M  V30 69 1 26 64
M  V30 70 1 28 65
M  V30 71 1 32 66
M  V30 72 1 33 67
M  V30 73 1 34 68
M  V30 74 1 38 69
M  V30 75 1 41 70
M  V30 76 1 44 71
M  V30 77 1 44 72
M  V30 END BOND
M  V30 END CTAB
M  END
>  <Dataset>  (139) 
ChEMBL_Kinases

>  <Ligand_Instance>  (139) 
nan

>  <PDB_ID>  (139) 
nan

>  <Standardized_SMILES>  (139) 
O=C(NCCN1CCOCC1)c1ccc2c(c1)C(=O)c1ccc(Nc3cc(NC(=O)c4cccs4)c(F)cc3F)cc1OC2

>  <Name>  (139) 
nan

>  <Pocket>  (139) 
nan

>  <ATP_Site>  (139) 
nan

>  <Peripheral>  (139) 
nan

>  <Num_H_Atoms_ProtBoundConf>  (139) 
nan

>  <Num_Resolved_Atoms>  (139) 
nan

>  <Num_Not_Resolved_Atoms>  (139) 
nan

$$$$
CHEMBL4076939
     RDKit          3D

  0  0  0  0  0  0  0  0  0  0999 V3000
M  V30 BEGIN CTAB
M  V30 COUNTS 52 55 0 0 0
M  V30 BEGIN ATOM
M  V30 1 N 2.508916 -4.999177 3.636820 0
M  V30 2 C 1.507438 -4.770256 2.634364 0
M  V30 3 O 0.741274 -5.659598 2.160427 0
M  V30 4 C 1.475198 -3.352746 2.214081 0
M  V30 5 C 2.246092 -2.326521 2.654867 0
M  V30 6 N 2.023354 -1.123284 2.113720 0
M  V30 7 C 1.116682 -0.830659 1.181411 0
M  V30 8 N 1.017289 0.534878 0.699560 0
M  V30 9 C 1.283551 0.634176 -0.712654 0
M  V30 10 C 2.578480 1.334263 -1.043987 0
M  V30 11 O 2.757957 1.381646 -2.451290 0
M  V30 12 C 0.684706 1.546327 1.648666 0 CFG=1
M  V30 13 C 1.701326 2.641399 1.829008 0
M  V30 14 C 1.358691 3.280478 3.182175 0
M  V30 15 C -0.076263 3.035287 3.543753 0
M  V30 16 N -0.991698 3.064762 2.441415 0
M  V30 17 C -0.625036 2.275256 1.306958 0
M  V30 18 C 0.279662 -1.791449 0.660729 0
M  V30 19 C -0.705458 -1.733265 -0.279507 0
M  V30 20 C -1.387132 -2.828289 -0.616893 0
M  V30 21 C -2.484883 -3.021118 -1.595396 0
M  V30 22 C -2.979720 -4.303196 -1.717195 0
M  V30 23 C -4.000532 -4.457040 -2.632097 0
M  V30 24 C -4.474946 -3.387750 -3.361157 0
M  V30 25 C -3.944633 -2.103410 -3.206809 0
M  V30 26 C -2.913545 -1.938337 -2.285388 0
M  V30 27 S -0.726765 -4.129425 0.361674 0
M  V30 28 C 0.507181 -3.058255 1.223755 0
M  V30 29 H 2.151032 -5.071573 4.627167 0
M  V30 30 H 1.926228 -5.032368 4.510034 0
M  V30 31 H 2.958796 -2.591026 3.397308 0
M  V30 32 H 0.417160 1.138444 -1.227238 0
M  V30 33 H 1.344607 -0.360831 -1.198336 0
M  V30 34 H 3.405723 0.681298 -0.678388 0
M  V30 35 H 2.575987 2.339129 -0.634756 0
M  V30 36 H 2.137352 0.757389 -2.898687 0
M  V30 37 H 0.554322 1.056777 2.654355 0
M  V30 38 H 2.740243 2.342114 1.751482 0
M  V30 39 H 1.497055 3.474363 1.096657 0
M  V30 40 H 2.012697 2.836365 3.947225 0
M  V30 41 H 1.523962 4.378885 3.157885 0
M  V30 42 H -0.390002 3.883425 4.222369 0
M  V30 43 H -0.203070 2.131618 4.207314 0
M  V30 44 H -1.917003 2.712350 2.792733 0
M  V30 45 H -1.382384 1.551631 0.983919 0
M  V30 46 H -0.329996 2.954690 0.464297 0
M  V30 47 H -0.968070 -0.810774 -0.779185 0
M  V30 48 H -2.633489 -5.167622 -1.162183 0
M  V30 49 H -4.472420 -5.404781 -2.821607 0
M  V30 50 H -5.272738 -3.423921 -4.098346 0
M  V30 51 H -4.301227 -1.244236 -3.769277 0
M  V30 52 H -2.487606 -0.942584 -2.152063 0
M  V30 END ATOM
M  V30 BEGIN BOND
M  V30 1 1 1 2
M  V30 2 2 2 3
M  V30 3 1 2 4
M  V30 4 2 4 5
M  V30 5 1 5 6
M  V30 6 2 6 7
M  V30 7 1 7 8
M  V30 8 1 8 9
M  V30 9 1 9 10
M  V30 10 1 10 11
M  V30 11 1 8 12
M  V30 12 1 12 13
M  V30 13 1 13 14
M  V30 14 1 14 15
M  V30 15 1 15 16
M  V30 16 1 16 17
M  V30 17 1 7 18
M  V30 18 1 18 19
M  V30 19 2 19 20
M  V30 20 1 20 21
M  V30 21 2 21 22
M  V30 22 1 22 23
M  V30 23 2 23 24
M  V30 24 1 24 25
M  V30 25 2 25 26
M  V30 26 1 20 27
M  V30 27 1 27 28
M  V30 28 1 28 4
M  V30 29 1 17 12
M  V30 30 2 28 18
M  V30 31 1 26 21
M  V30 32 1 1 29
M  V30 33 1 1 30
M  V30 34 1 5 31
M  V30 35 1 9 32
M  V30 36 1 9 33
M  V30 37 1 10 34
M  V30 38 1 10 35
M  V30 39 1 11 36
M  V30 40 1 12 37 CFG=1
M  V30 41 1 13 38
M  V30 42 1 13 39
M  V30 43 1 14 40
M  V30 44 1 14 41
M  V30 45 1 15 42
M  V30 46 1 15 43
M  V30 47 1 16 44
M  V30 48 1 17 45
M  V30 49 1 17 46
M  V30 50 1 19 47
M  V30 51 1 22 48
M  V30 52 1 23 49
M  V30 53 1 24 50
M  V30 54 1 25 51
M  V30 55 1 26 52
M  V30 END BOND
M  V30 END CTAB
M  END
>  <Dataset>  (140) 
ChEMBL_Kinases

>  <Ligand_Instance>  (140) 
nan

>  <PDB_ID>  (140) 
nan

>  <Standardized_SMILES>  (140) 
NC(=O)c1cnc(N(CCO)[C@H]2CCCNC2)c2cc(-c3ccccc3)sc12

>  <Name>  (140) 
nan

>  <Pocket>  (140) 
nan

>  <ATP_Site>  (140) 
nan

>  <Peripheral>  (140) 
nan

>  <Num_H_Atoms_ProtBoundConf>  (140) 
nan

>  <Num_Resolved_Atoms>  (140) 
nan

>  <Num_Not_Resolved_Atoms>  (140) 
nan

$$$$
CHEMBL4076937
     RDKit          3D

  0  0  0  0  0  0  0  0  0  0999 V3000
M  V30 BEGIN CTAB
M  V30 COUNTS 47 50 0 0 0
M  V30 BEGIN ATOM
M  V30 1 C -0.346385 -3.809749 5.193557 0
M  V30 2 C -1.159541 -4.062114 3.979873 0
M  V30 3 C -1.211364 -3.358157 2.790438 0
M  V30 4 C -2.106328 -3.937159 1.920094 0
M  V30 5 N -2.430185 -3.501286 0.608402 0
M  V30 6 C -1.846840 -2.363026 0.002044 0
M  V30 7 N -0.936745 -1.572766 0.579590 0
M  V30 8 C -0.369146 -0.489515 0.026983 0
M  V30 9 C 0.614843 0.272991 0.792962 0
M  V30 10 O 0.884275 -0.131064 1.947407 0
M  V30 11 N 1.219342 1.422190 0.214247 0
M  V30 12 C 2.178002 2.157244 0.972672 0
M  V30 13 C 1.780810 3.578222 1.287031 0
M  V30 14 C 3.052892 4.284789 1.748469 0
M  V30 15 N 3.935124 3.368368 2.448941 0
M  V30 16 C 4.530965 2.453265 1.493740 0
M  V30 17 C 3.547308 2.204844 0.354390 0
M  V30 18 N -0.741009 -0.156641 -1.222895 0
M  V30 19 C -1.663476 -0.894084 -1.906571 0
M  V30 20 C -2.001046 -0.499661 -3.183809 0
M  V30 21 C -2.930118 -1.222284 -3.903428 0
M  V30 22 C -3.499503 -2.331776 -3.313719 0
M  V30 23 Cl -4.689328 -3.264914 -4.223244 0
M  V30 24 C -3.123895 -2.680095 -2.032554 0
M  V30 25 C -2.206841 -1.998065 -1.273997 0
M  V30 26 N -2.572029 -4.984529 2.619528 0
M  V30 27 N -2.033526 -5.070302 3.813758 0
M  V30 28 H -0.365070 -4.711763 5.830269 0
M  V30 29 H -0.737071 -2.919357 5.762396 0
M  V30 30 H 0.722387 -3.643076 4.946050 0
M  V30 31 H -0.583929 -2.493387 2.691929 0
M  V30 32 H -3.132497 -4.107061 0.158109 0
M  V30 33 H 0.942655 1.707470 -0.771243 0
M  V30 34 H 2.287112 1.654721 1.962473 0
M  V30 35 H 1.462832 4.095944 0.343439 0
M  V30 36 H 0.960719 3.680107 2.000659 0
M  V30 37 H 2.865967 5.142456 2.396311 0
M  V30 38 H 3.628371 4.610899 0.836149 0
M  V30 39 H 3.492814 2.900959 3.257716 0
M  V30 40 H 4.831522 1.505331 1.977595 0
M  V30 41 H 5.459939 2.916394 1.096417 0
M  V30 42 H 3.780833 1.180691 -0.021562 0
M  V30 43 H 3.679662 2.990294 -0.410533 0
M  V30 44 H -1.533299 0.377664 -3.615558 0
M  V30 45 H -3.167658 -0.880790 -4.901193 0
M  V30 46 H -3.604354 -3.542798 -1.648790 0
M  V30 47 H -2.277106 -5.823694 4.497057 0
M  V30 END ATOM
M  V30 BEGIN BOND
M  V30 1 1 1 2
M  V30 2 2 2 3
M  V30 3 1 3 4
M  V30 4 1 4 5
M  V30 5 1 5 6
M  V30 6 2 6 7
M  V30 7 1 7 8
M  V30 8 1 8 9
M  V30 9 2 9 10
M  V30 10 1 9 11
M  V30 11 1 11 12
M  V30 12 1 12 13
M  V30 13 1 13 14
M  V30 14 1 14 15
M  V30 15 1 15 16
M  V30 16 1 16 17
M  V30 17 2 8 18
M  V30 18 1 18 19
M  V30 19 2 19 20
M  V30 20 1 20 21
M  V30 21 2 21 22
M  V30 22 1 22 23
M  V30 23 1 22 24
M  V30 24 2 24 25
M  V30 25 2 4 26
M  V30 26 1 26 27
M  V30 27 1 27 2
M  V30 28 1 25 6
M  V30 29 1 17 12
M  V30 30 1 25 19
M  V30 31 1 1 28
M  V30 32 1 1 29
M  V30 33 1 1 30
M  V30 34 1 3 31
M  V30 35 1 5 32
M  V30 36 1 11 33
M  V30 37 1 12 34
M  V30 38 1 13 35
M  V30 39 1 13 36
M  V30 40 1 14 37
M  V30 41 1 14 38
M  V30 42 1 15 39
M  V30 43 1 16 40
M  V30 44 1 16 41
M  V30 45 1 17 42
M  V30 46 1 17 43
M  V30 47 1 20 44
M  V30 48 1 21 45
M  V30 49 1 24 46
M  V30 50 1 27 47
M  V30 END BOND
M  V30 END CTAB
M  END
>  <Dataset>  (141) 
ChEMBL_Kinases

>  <Ligand_Instance>  (141) 
nan

>  <PDB_ID>  (141) 
nan

>  <Standardized_SMILES>  (141) 
Cc1cc(Nc2nc(C(=O)NC3CCNCC3)nc3ccc(Cl)cc23)n[nH]1

>  <Name>  (141) 
nan

>  <Pocket>  (141) 
nan

>  <ATP_Site>  (141) 
nan

>  <Peripheral>  (141) 
nan

>  <Num_H_Atoms_ProtBoundConf>  (141) 
nan

>  <Num_Resolved_Atoms>  (141) 
nan

>  <Num_Not_Resolved_Atoms>  (141) 
nan

$$$$
CHEMBL4856183
     RDKit          3D

  0  0  0  0  0  0  0  0  0  0999 V3000
M  V30 BEGIN CTAB
M  V30 COUNTS 64 67 0 0 0
M  V30 BEGIN ATOM
M  V30 1 C 5.332510 -0.068922 3.658503 0
M  V30 2 O 4.479956 0.174523 2.558258 0
M  V30 3 C 3.156195 -0.223540 2.679680 0
M  V30 4 C 2.695539 -0.828636 3.825111 0
M  V30 5 C 1.389470 -1.231564 3.968477 0
M  V30 6 C 0.506275 -1.024595 2.931329 0
M  V30 7 C 0.996229 -0.416361 1.797175 0
M  V30 8 C 2.293135 0.006490 1.601365 0
M  V30 9 N 2.774567 0.631187 0.423790 0
M  V30 10 C 2.095862 0.959119 -0.774371 0
M  V30 11 N 2.741081 1.562114 -1.787356 0
M  V30 12 C 2.148955 1.891883 -2.935346 0
M  V30 13 C 0.825303 1.578447 -3.030116 0
M  V30 14 C 0.173545 1.924679 -4.268482 0
M  V30 15 N 0.811948 2.552658 -5.346797 0
M  V30 16 O -0.812969 1.971980 -5.013879 0
M  V30 17 C 0.085231 0.966533 -2.055346 0
M  V30 18 N -1.283888 0.735260 -2.284097 0
M  V30 19 C -2.362963 0.061108 -1.674294 0
M  V30 20 C -3.432029 0.821477 -1.176629 0
M  V30 21 C -4.589757 0.355537 -0.573424 0
M  V30 22 C -4.623829 -1.018363 -0.488081 0
M  V30 23 C -3.610067 -1.821576 -0.956635 0
M  V30 24 C -2.471216 -1.306551 -1.553266 0
M  V30 25 C -1.435603 -2.228061 -2.052294 0
M  V30 26 C -1.901438 -3.657522 -1.804313 0
M  V30 27 C -1.264936 -2.085289 -3.563072 0
M  V30 28 O -0.191984 -2.100446 -1.505742 0
M  V30 29 N 0.805123 0.701987 -0.980645 0
M  V30 30 C -0.896003 -1.468389 3.100414 0
M  V30 31 N -1.442450 -1.253841 4.399902 0
M  V30 32 C -2.451886 -2.237205 4.738560 0
M  V30 33 C -0.483363 -1.101625 5.444563 0
M  V30 34 C 0.805117 -1.893499 5.180643 0
M  V30 35 H 6.376645 0.243460 3.462334 0
M  V30 36 H 4.978282 0.512965 4.536785 0
M  V30 37 H 5.258354 -1.142809 3.942173 0
M  V30 38 H 3.353072 -1.007350 4.654478 0
M  V30 39 H 0.257654 -0.281935 1.021482 0
M  V30 40 H 3.791001 0.893487 0.437578 0
M  V30 41 H 2.679260 2.367279 -3.720091 0
M  V30 42 H 1.149876 3.475829 -5.748768 0
M  V30 43 H 1.286274 2.953756 -6.166063 0
M  V30 44 H -1.747267 1.130105 -3.128984 0
M  V30 45 H -3.344362 1.916660 -1.275138 0
M  V30 46 H -5.325071 1.042953 -0.239521 0
M  V30 47 H -5.501950 -1.462741 -0.024602 0
M  V30 48 H -3.767762 -2.904062 -0.824349 0
M  V30 49 H -1.127932 -4.379371 -2.186769 0
M  V30 50 H -2.825150 -3.921827 -2.316154 0
M  V30 51 H -1.982137 -3.879922 -0.729167 0
M  V30 52 H -2.220812 -1.919463 -4.080342 0
M  V30 53 H -0.505313 -1.293917 -3.767049 0
M  V30 54 H -0.830035 -3.032974 -3.943926 0
M  V30 55 H 0.037893 -2.808619 -0.879751 0
M  V30 56 H -0.912589 -2.551567 2.800141 0
M  V30 57 H -1.559896 -0.983921 2.325216 0
M  V30 58 H -2.767015 -2.005844 5.782995 0
M  V30 59 H -2.017834 -3.260450 4.651540 0
M  V30 60 H -3.320171 -2.199929 4.052371 0
M  V30 61 H -0.174037 -0.014813 5.454851 0
M  V30 62 H -0.906395 -1.294331 6.434263 0
M  V30 63 H 1.417950 -1.752032 6.078503 0
M  V30 64 H 0.598273 -2.952990 5.046094 0
M  V30 END ATOM
M  V30 BEGIN BOND
M  V30 1 1 1 2
M  V30 2 1 2 3
M  V30 3 2 3 4
M  V30 4 1 4 5
M  V30 5 2 5 6
M  V30 6 1 6 7
M  V30 7 2 7 8
M  V30 8 1 8 9
M  V30 9 1 9 10
M  V30 10 2 10 11
M  V30 11 1 11 12
M  V30 12 2 12 13
M  V30 13 1 13 14
M  V30 14 1 14 15
M  V30 15 2 14 16
M  V30 16 1 13 17
M  V30 17 1 17 18
M  V30 18 1 18 19
M  V30 19 2 19 20
M  V30 20 1 20 21
M  V30 21 2 21 22
M  V30 22 1 22 23
M  V30 23 2 23 24
M  V30 24 1 24 25
M  V30 25 1 25 26
M  V30 26 1 25 27
M  V30 27 1 25 28
M  V30 28 2 17 29
M  V30 29 1 6 30
M  V30 30 1 30 31
M  V30 31 1 31 32
M  V30 32 1 31 33
M  V30 33 1 33 34
M  V30 34 1 8 3
M  V30 35 1 29 10
M  V30 36 1 34 5
M  V30 37 1 24 19
M  V30 38 1 1 35
M  V30 39 1 1 36
M  V30 40 1 1 37
M  V30 41 1 4 38
M  V30 42 1 7 39
M  V30 43 1 9 40
M  V30 44 1 12 41
M  V30 45 1 15 42
M  V30 46 1 15 43
M  V30 47 1 18 44
M  V30 48 1 20 45
M  V30 49 1 21 46
M  V30 50 1 22 47
M  V30 51 1 23 48
M  V30 52 1 26 49
M  V30 53 1 26 50
M  V30 54 1 26 51
M  V30 55 1 27 52
M  V30 56 1 27 53
M  V30 57 1 27 54
M  V30 58 1 28 55
M  V30 59 1 30 56
M  V30 60 1 30 57
M  V30 61 1 32 58
M  V30 62 1 32 59
M  V30 63 1 32 60
M  V30 64 1 33 61
M  V30 65 1 33 62
M  V30 66 1 34 63
M  V30 67 1 34 64
M  V30 END BOND
M  V30 END CTAB
M  END
>  <Dataset>  (142) 
ChEMBL_Kinases

>  <Ligand_Instance>  (142) 
nan

>  <PDB_ID>  (142) 
nan

>  <Standardized_SMILES>  (142) 
COc1cc2c(cc1Nc1ncc(C(N)=O)c(Nc3ccccc3C(C)(C)O)n1)CN(C)CC2

>  <Name>  (142) 
nan

>  <Pocket>  (142) 
nan

>  <ATP_Site>  (142) 
nan

>  <Peripheral>  (142) 
nan

>  <Num_H_Atoms_ProtBoundConf>  (142) 
nan

>  <Num_Resolved_Atoms>  (142) 
nan

>  <Num_Not_Resolved_Atoms>  (142) 
nan

$$$$
CHEMBL4076911
     RDKit          3D

  0  0  0  0  0  0  0  0  0  0999 V3000
M  V30 BEGIN CTAB
M  V30 COUNTS 50 54 0 0 0
M  V30 BEGIN ATOM
M  V30 1 C 2.745462 0.360912 5.545966 0
M  V30 2 C 3.133868 0.323423 4.116176 0
M  V30 3 N 4.307461 0.434648 3.487617 0
M  V30 4 N 4.201605 0.340994 2.178161 0
M  V30 5 C 5.334644 0.431527 1.298464 0
M  V30 6 C 6.482258 1.071947 1.712670 0
M  V30 7 C 7.593477 1.184227 0.906481 0
M  V30 8 C 7.573656 0.634958 -0.379948 0
M  V30 9 C 6.423156 -0.008430 -0.797965 0
M  V30 10 C 5.313020 -0.110144 0.032325 0
M  V30 11 C 2.921800 0.155435 1.813455 0
M  V30 12 O 2.391703 0.011099 0.563034 0
M  V30 13 C 1.056943 -0.179439 0.249635 0
M  V30 14 C 0.151832 0.844266 0.004312 0
M  V30 15 C -1.180474 0.553432 -0.305769 0
M  V30 16 C -1.578978 -0.768304 -0.363588 0
M  V30 17 C -2.965662 -1.100083 -0.686101 0
M  V30 18 N -3.472784 -2.345323 -0.770533 0
M  V30 19 C -4.777220 -2.292808 -1.084969 0
M  V30 20 C -5.671627 -3.351798 -1.267858 0
M  V30 21 C -6.959063 -2.969704 -1.587896 0
M  V30 22 N -7.924870 -3.997343 -1.788573 0 CHG=1 VAL=4
M  V30 23 O -7.640761 -5.201338 -1.683694 0
M  V30 24 O -9.236143 -3.705621 -2.112279 0 CHG=-1 VAL=1
M  V30 25 C -7.350144 -1.652765 -1.721133 0
M  V30 26 C -6.404600 -0.649292 -1.524426 0
M  V30 27 C -5.094502 -0.954954 -1.200988 0
M  V30 28 N -3.957200 -0.241410 -0.949360 0
M  V30 29 C -0.664546 -1.774361 -0.116751 0
M  V30 30 C 0.666907 -1.516115 0.194151 0
M  V30 31 C 2.295623 0.150646 3.039083 0
M  V30 32 N 0.891449 -0.025382 3.129242 0 CHG=1 VAL=4
M  V30 33 O -0.280331 -0.343315 3.164707 0
M  V30 34 O -0.320582 0.593899 3.382549 0 CHG=-1 VAL=1
M  V30 35 H 3.565477 -0.022495 6.194709 0
M  V30 36 H 2.496537 1.398059 5.844837 0
M  V30 37 H 1.868244 -0.301226 5.752930 0
M  V30 38 H 6.483415 1.495534 2.719336 0
M  V30 39 H 8.467162 1.700878 1.292056 0
M  V30 40 H 8.434080 0.712448 -1.026621 0
M  V30 41 H 6.431978 -0.425760 -1.797689 0
M  V30 42 H 4.442225 -0.624168 -0.348974 0
M  V30 43 H 0.549322 1.855889 0.070422 0
M  V30 44 H -1.849456 1.379826 -0.488720 0
M  V30 45 H -5.320508 -4.360876 -1.153495 0
M  V30 46 H -8.362751 -1.407167 -1.970545 0
M  V30 47 H -6.662116 0.402436 -1.618669 0
M  V30 48 H -3.925678 0.813301 -0.973346 0
M  V30 49 H -1.034581 -2.797451 -0.176392 0
M  V30 50 H 1.312794 -2.364148 0.373232 0
M  V30 END ATOM
M  V30 BEGIN BOND
M  V30 1 1 1 2
M  V30 2 2 2 3
M  V30 3 1 3 4
M  V30 4 1 4 5
M  V30 5 2 5 6
M  V30 6 1 6 7
M  V30 7 2 7 8
M  V30 8 1 8 9
M  V30 9 2 9 10
M  V30 10 1 4 11
M  V30 11 1 11 12
M  V30 12 1 12 13
M  V30 13 2 13 14
M  V30 14 1 14 15
M  V30 15 2 15 16
M  V30 16 1 16 17
M  V30 17 2 17 18
M  V30 18 1 18 19
M  V30 19 2 19 20
M  V30 20 1 20 21
M  V30 21 1 21 22
M  V30 22 2 22 23
M  V30 23 1 22 24
M  V30 24 2 21 25
M  V30 25 1 25 26
M  V30 26 2 26 27
M  V30 27 1 27 28
M  V30 28 1 16 29
M  V30 29 2 29 30
M  V30 30 2 11 31
M  V30 31 1 31 32
M  V30 32 2 32 33
M  V30 33 1 32 34
M  V30 34 1 31 2
M  V30 35 1 10 5
M  V30 36 1 30 13
M  V30 37 1 28 17
M  V30 38 1 27 19
M  V30 39 1 1 35
M  V30 40 1 1 36
M  V30 41 1 1 37
M  V30 42 1 6 38
M  V30 43 1 7 39
M  V30 44 1 8 40
M  V30 45 1 9 41
M  V30 46 1 10 42
M  V30 47 1 14 43
M  V30 48 1 15 44
M  V30 49 1 20 45
M  V30 50 1 25 46
M  V30 51 1 26 47
M  V30 52 1 28 48
M  V30 53 1 29 49
M  V30 54 1 30 50
M  V30 END BOND
M  V30 END CTAB
M  END
>  <Dataset>  (143) 
ChEMBL_Kinases

>  <Ligand_Instance>  (143) 
nan

>  <PDB_ID>  (143) 
nan

>  <Standardized_SMILES>  (143) 
Cc1nn(-c2ccccc2)c(Oc2ccc(-c3nc4cc([N+](=O)[O-])ccc4[nH]3)cc2)c1[N+](=O)[O-]

>  <Name>  (143) 
nan

>  <Pocket>  (143) 
nan

>  <ATP_Site>  (143) 
nan

>  <Peripheral>  (143) 
nan

>  <Num_H_Atoms_ProtBoundConf>  (143) 
nan

>  <Num_Resolved_Atoms>  (143) 
nan

>  <Num_Not_Resolved_Atoms>  (143) 
nan

$$$$
CHEMBL4856240
     RDKit          3D

  0  0  0  0  0  0  0  0  0  0999 V3000
M  V30 BEGIN CTAB
M  V30 COUNTS 49 52 0 0 0
M  V30 BEGIN ATOM
M  V30 1 C 0.720261 -2.327417 4.806585 0
M  V30 2 C -0.131749 -3.227593 3.958506 0
M  V30 3 C 0.579936 -3.728097 2.745589 0
M  V30 4 C 0.600503 -3.103084 1.500599 0
M  V30 5 C 1.349872 -3.843173 0.610624 0
M  V30 6 N 1.611738 -3.547045 -0.756267 0
M  V30 7 C 1.054369 -2.327159 -1.233275 0
M  V30 8 N 1.756877 -1.155899 -1.312581 0
M  V30 9 C 1.171035 -0.033404 -1.772753 0
M  V30 10 N 1.915568 1.200233 -1.852982 0
M  V30 11 C 1.191245 2.115381 -0.996461 0
M  V30 12 C 1.104717 1.662168 0.427160 0
M  V30 13 C 0.330240 2.646802 1.243512 0
M  V30 14 C 0.804416 3.732866 1.942683 0
M  V30 15 C -0.088349 4.518930 2.636775 0
M  V30 16 C -1.458259 4.301892 2.691368 0
M  V30 17 F -2.307101 5.102219 3.387837 0
M  V30 18 C -1.933428 3.195643 1.975552 0
M  V30 19 C -1.031208 2.392251 1.268179 0
M  V30 20 N -0.110132 -0.104350 -2.145672 0
M  V30 21 C -0.866266 -1.218095 -2.096567 0
M  V30 22 C -2.200044 -1.130330 -2.517844 0
M  V30 23 C -2.900295 -2.319339 -2.426157 0
M  V30 24 C -2.374614 -3.492848 -1.971794 0
M  V30 25 F -3.033331 -4.654706 -1.873310 0
M  V30 26 C -1.038940 -3.533072 -1.562364 0
M  V30 27 C -0.288255 -2.381422 -1.629158 0
M  V30 28 N 1.779360 -4.915196 1.327126 0
M  V30 29 N 1.322457 -4.840599 2.583658 0
M  V30 30 H 0.384118 -1.258138 4.784513 0
M  V30 31 H 0.594577 -2.647606 5.882251 0
M  V30 32 H 1.794335 -2.329485 4.543037 0
M  V30 33 H -1.038595 -2.627355 3.651451 0
M  V30 34 H -0.568590 -4.062898 4.565072 0
M  V30 35 H 0.090229 -2.165463 1.287941 0
M  V30 36 H 2.176917 -4.209958 -1.314920 0
M  V30 37 H 2.780276 1.264180 -2.450812 0
M  V30 38 H 0.166145 2.270788 -1.389725 0
M  V30 39 H 1.752301 3.074574 -0.993983 0
M  V30 40 H 2.135561 1.638933 0.894632 0
M  V30 41 H 0.709736 0.635621 0.496109 0
M  V30 42 H 1.859968 3.877864 1.884779 0
M  V30 43 H 0.318900 5.381325 3.185553 0
M  V30 44 H -3.000828 2.984296 1.985716 0
M  V30 45 H -1.506028 1.551097 0.742275 0
M  V30 46 H -2.604200 -0.200537 -2.873976 0
M  V30 47 H -3.954935 -2.304420 -2.746531 0
M  V30 48 H -0.542933 -4.412778 -1.191250 0
M  V30 49 H 1.515320 -5.553044 3.344899 0
M  V30 END ATOM
M  V30 BEGIN BOND
M  V30 1 1 1 2
M  V30 2 1 2 3
M  V30 3 2 3 4
M  V30 4 1 4 5
M  V30 5 1 5 6
M  V30 6 1 6 7
M  V30 7 2 7 8
M  V30 8 1 8 9
M  V30 9 1 9 10
M  V30 10 1 10 11
M  V30 11 1 11 12
M  V30 12 1 12 13
M  V30 13 2 13 14
M  V30 14 1 14 15
M  V30 15 2 15 16
M  V30 16 1 16 17
M  V30 17 1 16 18
M  V30 18 2 18 19
M  V30 19 2 9 20
M  V30 20 1 20 21
M  V30 21 2 21 22
M  V30 22 1 22 23
M  V30 23 2 23 24
M  V30 24 1 24 25
M  V30 25 1 24 26
M  V30 26 2 26 27
M  V30 27 2 5 28
M  V30 28 1 28 29
M  V30 29 1 29 3
M  V30 30 1 27 7
M  V30 31 1 19 13
M  V30 32 1 27 21
M  V30 33 1 1 30
M  V30 34 1 1 31
M  V30 35 1 1 32
M  V30 36 1 2 33
M  V30 37 1 2 34
M  V30 38 1 4 35
M  V30 39 1 6 36
M  V30 40 1 10 37
M  V30 41 1 11 38
M  V30 42 1 11 39
M  V30 43 1 12 40
M  V30 44 1 12 41
M  V30 45 1 14 42
M  V30 46 1 15 43
M  V30 47 1 18 44
M  V30 48 1 19 45
M  V30 49 1 22 46
M  V30 50 1 23 47
M  V30 51 1 26 48
M  V30 52 1 29 49
M  V30 END BOND
M  V30 END CTAB
M  END
>  <Dataset>  (144) 
ChEMBL_Kinases

>  <Ligand_Instance>  (144) 
nan

>  <PDB_ID>  (144) 
nan

>  <Standardized_SMILES>  (144) 
CCc1cc(Nc2nc(NCCc3ccc(F)cc3)nc3ccc(F)cc23)n[nH]1

>  <Name>  (144) 
nan

>  <Pocket>  (144) 
nan

>  <ATP_Site>  (144) 
nan

>  <Peripheral>  (144) 
nan

>  <Num_H_Atoms_ProtBoundConf>  (144) 
nan

>  <Num_Resolved_Atoms>  (144) 
nan

>  <Num_Not_Resolved_Atoms>  (144) 
nan

$$$$
CHEMBL4076883
     RDKit          3D

  0  0  0  0  0  0  0  0  0  0999 V3000
M  V30 BEGIN CTAB
M  V30 COUNTS 46 49 0 0 0
M  V30 BEGIN ATOM
M  V30 1 C 1.743041 -3.605591 1.135804 0
M  V30 2 N 0.329254 -3.182170 1.183622 0
M  V30 3 C -0.090531 -1.945268 0.770697 0
M  V30 4 N 0.809211 -0.989771 0.267225 0
M  V30 5 C 1.068936 -1.028547 -1.165874 0
M  V30 6 C 2.460589 -0.653268 -1.553583 0
M  V30 7 N 3.040823 0.385866 -0.765202 0
M  V30 8 C 1.965721 1.043354 -0.050622 0 CFG=2
M  V30 9 C 2.347387 2.366918 0.452232 0
M  V30 10 C 1.548790 3.514651 0.320607 0
M  V30 11 C 1.968146 4.743330 0.806781 0
M  V30 12 C 3.220997 4.818998 1.441118 0
M  V30 13 Cl 3.753596 6.370500 2.055705 0
M  V30 14 C 4.004244 3.701811 1.571193 0
M  V30 15 C 3.568104 2.493835 1.081234 0
M  V30 16 C 1.527350 0.062362 1.010569 0
M  V30 17 N -1.269218 -2.228935 1.055126 0
M  V30 18 C -2.411126 -2.490203 1.325470 0
M  V30 19 C -3.832603 -2.364588 1.455515 0
M  V30 20 C -4.697788 -3.267788 1.989426 0
M  V30 21 C -6.035132 -2.925158 2.009994 0
M  V30 22 N -6.398354 -1.753719 1.515771 0
M  V30 23 C -5.573882 -0.853746 0.988378 0
M  V30 24 N -4.242576 -1.173834 0.958075 0
M  V30 25 C -1.913451 -3.768293 1.742825 0
M  V30 26 C -0.538141 -4.148114 1.683432 0
M  V30 27 O -0.072944 -5.296606 2.055897 0
M  V30 28 H 1.950851 -4.065193 0.160650 0
M  V30 29 H 1.920219 -4.338518 1.975937 0
M  V30 30 H 2.403602 -2.753274 1.308652 0
M  V30 31 H 0.311406 -0.416882 -1.701423 0
M  V30 32 H 0.900656 -2.081490 -1.506678 0
M  V30 33 H 3.084013 -1.564023 -1.650477 0
M  V30 34 H 2.375311 -0.246038 -2.607951 0
M  V30 35 H 3.597364 1.080737 -1.321620 0
M  V30 36 H 1.133022 1.195234 -0.776789 0
M  V30 37 H 0.590277 3.424502 -0.170349 0
M  V30 38 H 1.360647 5.641893 0.710472 0
M  V30 39 H 4.951944 3.837235 2.066937 0
M  V30 40 H 4.255443 1.675732 1.233421 0
M  V30 41 H 0.904024 0.557370 1.754589 0
M  V30 42 H 2.458716 -0.375517 1.465363 0
M  V30 43 H -4.345134 -4.202733 2.374910 0
M  V30 44 H -6.730298 -3.627946 2.430125 0
M  V30 45 H -6.066430 0.040940 0.638307 0
M  V30 46 H -2.447779 -4.654526 2.162408 0
M  V30 END ATOM
M  V30 BEGIN BOND
M  V30 1 1 1 2
M  V30 2 1 2 3
M  V30 3 1 3 4
M  V30 4 1 4 5
M  V30 5 1 5 6
M  V30 6 1 6 7
M  V30 7 1 7 8
M  V30 8 1 8 9
M  V30 9 2 9 10
M  V30 10 1 10 11
M  V30 11 2 11 12
M  V30 12 1 12 13
M  V30 13 1 12 14
M  V30 14 2 14 15
M  V30 15 1 8 16
M  V30 16 2 3 17
M  V30 17 1 17 18
M  V30 18 1 18 19
M  V30 19 2 19 20
M  V30 20 1 20 21
M  V30 21 2 21 22
M  V30 22 1 22 23
M  V30 23 2 23 24
M  V30 24 2 18 25
M  V30 25 1 25 26
M  V30 26 2 26 27
M  V30 27 1 26 2
M  V30 28 1 16 4
M  V30 29 1 24 19
M  V30 30 1 15 9
M  V30 31 1 1 28
M  V30 32 1 1 29
M  V30 33 1 1 30
M  V30 34 1 5 31
M  V30 35 1 5 32
M  V30 36 1 6 33
M  V30 37 1 6 34
M  V30 38 1 7 35
M  V30 39 1 8 36 CFG=3
M  V30 40 1 10 37
M  V30 41 1 11 38
M  V30 42 1 14 39
M  V30 43 1 15 40
M  V30 44 1 16 41
M  V30 45 1 16 42
M  V30 46 1 20 43
M  V30 47 1 21 44
M  V30 48 1 23 45
M  V30 49 1 25 46
M  V30 END BOND
M  V30 END CTAB
M  END
>  <Dataset>  (145) 
ChEMBL_Kinases

>  <Ligand_Instance>  (145) 
nan

>  <PDB_ID>  (145) 
nan

>  <Standardized_SMILES>  (145) 
Cn1c(N2CCN[C@H](c3ccc(Cl)cc3)C2)nc(-c2ccncn2)cc1=O

>  <Name>  (145) 
nan

>  <Pocket>  (145) 
nan

>  <ATP_Site>  (145) 
nan

>  <Peripheral>  (145) 
nan

>  <Num_H_Atoms_ProtBoundConf>  (145) 
nan

>  <Num_Resolved_Atoms>  (145) 
nan

>  <Num_Not_Resolved_Atoms>  (145) 
nan

$$$$
CHEMBL4856252
     RDKit          3D

  0  0  0  0  0  0  0  0  0  0999 V3000
M  V30 BEGIN CTAB
M  V30 COUNTS 50 54 0 0 0
M  V30 BEGIN ATOM
M  V30 1 C 4.454199 -2.021228 3.353307 0
M  V30 2 C 3.626863 -1.953485 2.063674 0
M  V30 3 C 3.205743 -3.403118 1.785727 0
M  V30 4 N 4.369257 -1.412088 0.970912 0
M  V30 5 C 5.464911 -1.976851 0.448774 0
M  V30 6 N 5.885299 -1.182872 -0.559765 0
M  V30 7 N 5.055423 -0.178408 -0.625458 0
M  V30 8 C 4.075433 -0.271232 0.319731 0
M  V30 9 C 3.002066 0.676075 0.516133 0
M  V30 10 C 3.403659 1.991931 0.632659 0
M  V30 11 C 2.522867 3.036676 0.824209 0
M  V30 12 C 1.159324 2.776270 0.907155 0
M  V30 13 N 0.016146 3.464184 1.079764 0
M  V30 14 N -1.022203 2.623120 1.069801 0
M  V30 15 C -0.590859 1.367940 0.891425 0
M  V30 16 C -1.515837 0.238413 0.839294 0
M  V30 17 C -1.204724 -0.910561 1.552149 0
M  V30 18 C -2.097522 -1.961954 1.484152 0
M  V30 19 C -3.256406 -1.921673 0.756902 0
M  V30 20 C -3.562155 -0.777664 0.049586 0
M  V30 21 C -4.755442 -0.570003 -0.774847 0
M  V30 22 C -5.601535 0.534317 -0.834583 0
M  V30 23 C -6.582873 0.217537 -1.779927 0
M  V30 24 N -6.338221 -1.016173 -2.264063 0
M  V30 25 N -5.242661 -1.460206 -1.646099 0
M  V30 26 C -4.653314 -2.775606 -1.903982 0
M  V30 27 C -2.678169 0.299493 0.100477 0
M  V30 28 C 0.781861 1.454148 0.787923 0
M  V30 29 C 1.650887 0.408934 0.597287 0
M  V30 30 H 5.532881 -2.120251 3.121909 0
M  V30 31 H 4.220171 -1.139464 3.992857 0
M  V30 32 H 4.166678 -2.903767 3.956350 0
M  V30 33 H 2.723032 -1.409056 2.327315 0
M  V30 34 H 4.157278 -3.996374 1.854612 0
M  V30 35 H 2.464225 -3.738832 2.517946 0
M  V30 36 H 2.842322 -3.522793 0.730131 0
M  V30 37 H 6.006425 -2.887433 0.695673 0
M  V30 38 H 4.451229 2.311219 0.582517 0
M  V30 39 H 2.824450 4.076185 0.917544 0
M  V30 40 H 0.042952 4.506534 1.196121 0
M  V30 41 H -0.314332 -1.035729 2.153776 0
M  V30 42 H -1.905318 -2.891572 2.024540 0
M  V30 43 H -3.971761 -2.716035 0.680576 0
M  V30 44 H -5.461093 1.431060 -0.232442 0
M  V30 45 H -7.386667 0.912422 -2.030900 0
M  V30 46 H -5.168927 -3.566813 -1.293971 0
M  V30 47 H -3.569378 -2.797087 -1.771771 0
M  V30 48 H -4.858634 -3.060512 -2.973444 0
M  V30 49 H -2.843409 1.232698 -0.425007 0
M  V30 50 H 1.377386 -0.621754 0.502617 0
M  V30 END ATOM
M  V30 BEGIN BOND
M  V30 1 1 1 2
M  V30 2 1 2 3
M  V30 3 1 2 4
M  V30 4 1 4 5
M  V30 5 2 5 6
M  V30 6 1 6 7
M  V30 7 2 7 8
M  V30 8 1 8 9
M  V30 9 2 9 10
M  V30 10 1 10 11
M  V30 11 2 11 12
M  V30 12 1 12 13
M  V30 13 1 13 14
M  V30 14 2 14 15
M  V30 15 1 15 16
M  V30 16 2 16 17
M  V30 17 1 17 18
M  V30 18 2 18 19
M  V30 19 1 19 20
M  V30 20 1 20 21
M  V30 21 2 21 22
M  V30 22 1 22 23
M  V30 23 2 23 24
M  V30 24 1 24 25
M  V30 25 1 25 26
M  V30 26 2 20 27
M  V30 27 1 15 28
M  V30 28 2 28 29
M  V30 29 1 8 4
M  V30 30 1 29 9
M  V30 31 1 28 12
M  V30 32 1 27 16
M  V30 33 1 25 21
M  V30 34 1 1 30
M  V30 35 1 1 31
M  V30 36 1 1 32
M  V30 37 1 2 33
M  V30 38 1 3 34
M  V30 39 1 3 35
M  V30 40 1 3 36
M  V30 41 1 5 37
M  V30 42 1 10 38
M  V30 43 1 11 39
M  V30 44 1 13 40
M  V30 45 1 17 41
M  V30 46 1 18 42
M  V30 47 1 19 43
M  V30 48 1 22 44
M  V30 49 1 23 45
M  V30 50 1 26 46
M  V30 51 1 26 47
M  V30 52 1 26 48
M  V30 53 1 27 49
M  V30 54 1 29 50
M  V30 END BOND
M  V30 END CTAB
M  END
>  <Dataset>  (146) 
ChEMBL_Kinases

>  <Ligand_Instance>  (146) 
nan

>  <PDB_ID>  (146) 
nan

>  <Standardized_SMILES>  (146) 
CC(C)n1cnnc1-c1ccc2[nH]nc(-c3cccc(-c4ccnn4C)c3)c2c1

>  <Name>  (146) 
nan

>  <Pocket>  (146) 
nan

>  <ATP_Site>  (146) 
nan

>  <Peripheral>  (146) 
nan

>  <Num_H_Atoms_ProtBoundConf>  (146) 
nan

>  <Num_Resolved_Atoms>  (146) 
nan

>  <Num_Not_Resolved_Atoms>  (146) 
nan

$$$$
CHEMBL4080151
     RDKit          3D

  0  0  0  0  0  0  0  0  0  0999 V3000
M  V30 BEGIN CTAB
M  V30 COUNTS 39 41 0 0 0
M  V30 BEGIN ATOM
M  V30 1 O 1.766465 -4.750239 1.475704 0
M  V30 2 C 1.082924 -4.072361 0.436671 0
M  V30 3 C 2.117392 -3.592078 -0.583583 0
M  V30 4 C 3.079549 -2.660989 0.049902 0
M  V30 5 C 4.313359 -3.154906 0.495391 0
M  V30 6 N 5.249095 -2.405606 1.119714 0
M  V30 7 C 4.991404 -1.106333 1.331531 0
M  V30 8 C 3.796461 -0.572273 0.913308 0
M  V30 9 C 2.815011 -1.325467 0.265960 0
M  V30 10 C 1.571059 -0.714690 -0.186347 0
M  V30 11 N 0.484619 -1.136714 -0.846983 0
M  V30 12 N -0.392087 -0.168571 -1.019134 0
M  V30 13 C 0.101855 0.945388 -0.464056 0
M  V30 14 C -0.330332 2.374501 -0.273150 0
M  V30 15 N -0.965688 2.603249 1.000387 0
M  V30 16 C -2.195387 2.124213 1.506295 0
M  V30 17 C -3.088304 1.322826 0.828830 0
M  V30 18 C -4.286550 0.835740 1.299204 0
M  V30 19 C -4.640776 1.181562 2.585698 0
M  V30 20 Cl -6.135115 0.624572 3.291462 0
M  V30 21 C -3.790915 1.981306 3.315910 0
M  V30 22 C -2.606234 2.434752 2.785486 0
M  V30 23 N 1.287986 0.580122 0.029132 0
M  V30 24 H 1.295970 -5.578220 1.684998 0
M  V30 25 H 0.601237 -3.216315 0.901376 0
M  V30 26 H 0.386150 -4.785048 -0.043038 0
M  V30 27 H 1.628827 -3.126360 -1.450359 0
M  V30 28 H 2.695510 -4.497268 -0.901055 0
M  V30 29 H 4.529833 -4.217794 0.325133 0
M  V30 30 H 5.676262 -0.436450 1.819977 0
M  V30 31 H 3.587351 0.491502 1.088002 0
M  V30 32 H -1.319459 -0.154091 -1.486580 0
M  V30 33 H -1.000689 2.676409 -1.120922 0
M  V30 34 H 0.534807 3.058567 -0.359248 0
M  V30 35 H -0.436963 3.222827 1.665622 0
M  V30 36 H -2.853507 1.034569 -0.184627 0
M  V30 37 H -4.927276 0.210580 0.694705 0
M  V30 38 H -4.051567 2.268260 4.338457 0
M  V30 39 H -1.985311 3.060026 3.416342 0
M  V30 END ATOM
M  V30 BEGIN BOND
M  V30 1 1 1 2
M  V30 2 1 2 3
M  V30 3 1 3 4
M  V30 4 2 4 5
M  V30 5 1 5 6
M  V30 6 2 6 7
M  V30 7 1 7 8
M  V30 8 2 8 9
M  V30 9 1 9 10
M  V30 10 2 10 11
M  V30 11 1 11 12
M  V30 12 1 12 13
M  V30 13 1 13 14
M  V30 14 1 14 15
M  V30 15 1 15 16
M  V30 16 2 16 17
M  V30 17 1 17 18
M  V30 18 2 18 19
M  V30 19 1 19 20
M  V30 20 1 19 21
M  V30 21 2 21 22
M  V30 22 2 13 23
M  V30 23 1 9 4
M  V30 24 1 23 10
M  V30 25 1 22 16
M  V30 26 1 1 24
M  V30 27 1 2 25
M  V30 28 1 2 26
M  V30 29 1 3 27
M  V30 30 1 3 28
M  V30 31 1 5 29
M  V30 32 1 7 30
M  V30 33 1 8 31
M  V30 34 1 12 32
M  V30 35 1 14 33
M  V30 36 1 14 34
M  V30 37 1 15 35
M  V30 38 1 17 36
M  V30 39 1 18 37
M  V30 40 1 21 38
M  V30 41 1 22 39
M  V30 END BOND
M  V30 END CTAB
M  END
>  <Dataset>  (147) 
ChEMBL_Kinases

>  <Ligand_Instance>  (147) 
nan

>  <PDB_ID>  (147) 
nan

>  <Standardized_SMILES>  (147) 
OCCc1cnccc1-c1n[nH]c(CNc2ccc(Cl)cc2)n1

>  <Name>  (147) 
nan

>  <Pocket>  (147) 
nan

>  <ATP_Site>  (147) 
nan

>  <Peripheral>  (147) 
nan

>  <Num_H_Atoms_ProtBoundConf>  (147) 
nan

>  <Num_Resolved_Atoms>  (147) 
nan

>  <Num_Not_Resolved_Atoms>  (147) 
nan

$$$$
CHEMBL4856281
     RDKit          3D

  0  0  0  0  0  0  0  0  0  0999 V3000
M  V30 BEGIN CTAB
M  V30 COUNTS 33 36 0 0 0
M  V30 BEGIN ATOM
M  V30 1 O 2.720762 -4.837048 1.900761 0
M  V30 2 C 1.479152 -5.000489 1.736378 0
M  V30 3 O 0.915914 -6.261804 1.926713 0
M  V30 4 C 0.633066 -3.878181 1.349075 0
M  V30 5 C -0.723036 -4.053250 1.168777 0
M  V30 6 C -1.493942 -2.969509 0.802217 0
M  V30 7 C -0.929341 -1.731829 0.617340 0
M  V30 8 C 0.421814 -1.557092 0.796913 0
M  V30 9 C 1.192995 -2.634542 1.162114 0
M  V30 10 C 1.010112 -0.330857 0.618437 0
M  V30 11 C 0.288449 0.782710 0.253194 0
M  V30 12 C 0.902710 2.088861 0.061090 0
M  V30 13 C 2.270373 2.249263 0.246637 0
M  V30 14 C 2.689351 3.539173 0.026577 0
M  V30 15 N 1.555546 4.173460 -0.298477 0
M  V30 16 N 0.565411 3.338478 -0.272376 0
M  V30 17 C -1.053712 0.570275 0.083490 0
M  V30 18 C -1.907137 1.584325 -0.280854 0
M  V30 19 C -3.269674 1.480472 -0.478085 0
M  V30 20 N -3.832434 0.249335 -0.294383 0
M  V30 21 C -3.034189 -0.798077 0.068482 0
M  V30 22 C -1.680737 -0.645957 0.253473 0
M  V30 23 H 1.473070 -7.099944 1.832096 0
M  V30 24 H -1.117373 -5.051052 1.327658 0
M  V30 25 H -2.534441 -3.196003 0.684443 0
M  V30 26 H 2.262172 -2.540415 1.314069 0
M  V30 27 H 2.064668 -0.276540 0.776906 0
M  V30 28 H 3.006566 1.493007 0.534559 0
M  V30 29 H 3.685601 3.951150 0.095871 0
M  V30 30 H 1.431958 5.185860 -0.544409 0
M  V30 31 H -1.544542 2.570816 -0.442343 0
M  V30 32 H -3.900054 2.310747 -0.765338 0
M  V30 33 H -3.608100 -1.687418 0.174104 0
M  V30 END ATOM
M  V30 BEGIN BOND
M  V30 1 2 1 2
M  V30 2 1 2 3
M  V30 3 1 2 4
M  V30 4 2 4 5
M  V30 5 1 5 6
M  V30 6 2 6 7
M  V30 7 1 7 8
M  V30 8 2 8 9
M  V30 9 1 8 10
M  V30 10 2 10 11
M  V30 11 1 11 12
M  V30 12 1 12 13
M  V30 13 2 13 14
M  V30 14 1 14 15
M  V30 15 1 15 16
M  V30 16 1 11 17
M  V30 17 2 17 18
M  V30 18 1 18 19
M  V30 19 2 19 20
M  V30 20 1 20 21
M  V30 21 2 21 22
M  V30 22 1 9 4
M  V30 23 2 16 12
M  V30 24 1 22 17
M  V30 25 1 22 7
M  V30 26 1 3 23
M  V30 27 1 5 24
M  V30 28 1 6 25
M  V30 29 1 9 26
M  V30 30 1 10 27
M  V30 31 1 13 28
M  V30 32 1 14 29
M  V30 33 1 15 30
M  V30 34 1 18 31
M  V30 35 1 19 32
M  V30 36 1 21 33
M  V30 END BOND
M  V30 END CTAB
M  END
>  <Dataset>  (148) 
ChEMBL_Kinases

>  <Ligand_Instance>  (148) 
nan

>  <PDB_ID>  (148) 
nan

>  <Standardized_SMILES>  (148) 
O=C(O)c1ccc2c(c1)cc(-c1cc[nH]n1)c1ccncc12

>  <Name>  (148) 
nan

>  <Pocket>  (148) 
nan

>  <ATP_Site>  (148) 
nan

>  <Peripheral>  (148) 
nan

>  <Num_H_Atoms_ProtBoundConf>  (148) 
nan

>  <Num_Resolved_Atoms>  (148) 
nan

>  <Num_Not_Resolved_Atoms>  (148) 
nan

$$$$
CHEMBL4856290
     RDKit          3D

  0  0  0  0  0  0  0  0  0  0999 V3000
M  V30 BEGIN CTAB
M  V30 COUNTS 55 58 0 0 0
M  V30 BEGIN ATOM
M  V30 1 O -0.195732 -3.567367 4.013448 0
M  V30 2 C -1.335917 -3.185577 3.391958 0
M  V30 3 C -1.239380 -2.657401 2.003883 0 CFG=1
M  V30 4 O -0.508056 -1.589351 1.767247 0
M  V30 5 C -0.888108 -0.414866 1.303554 0 CFG=1
M  V30 6 C -0.898413 0.456216 2.615260 0
M  V30 7 C 0.549490 0.338217 3.094883 0
M  V30 8 C 1.317438 1.266111 2.166508 0
M  V30 9 N 1.274196 0.713829 0.843355 0
M  V30 10 C 1.817978 1.733147 -0.036101 0
M  V30 11 C 1.079103 3.002236 -0.027668 0
M  V30 12 N 0.028564 3.396790 -0.808111 0
M  V30 13 C -0.357368 4.640324 -0.478966 0
M  V30 14 C 0.454702 5.079186 0.541324 0
M  V30 15 N 1.309523 4.070836 0.791046 0
M  V30 16 C -0.056593 0.379738 0.378292 0 CFG=1
M  V30 17 C 0.026993 -0.060522 -1.010384 0
M  V30 18 C 0.996265 -0.919843 -1.544282 0
M  V30 19 C 1.019148 -1.298286 -2.870252 0
M  V30 20 C 0.061289 -0.830108 -3.739922 0
M  V30 21 C -0.931110 0.018375 -3.308197 0
M  V30 22 C -0.891675 0.354111 -1.970501 0
M  V30 23 C -0.928950 -3.736129 1.040733 0
M  V30 24 C -0.640410 -4.998362 1.511760 0
M  V30 25 C -0.352549 -6.061292 0.677446 0
M  V30 26 Cl 0.020568 -7.683141 1.223248 0
M  V30 27 C -0.340761 -5.901979 -0.706810 0
M  V30 28 C -0.626486 -4.648490 -1.205878 0
M  V30 29 Cl -0.625384 -4.393837 -2.937341 0
M  V30 30 C -0.907092 -3.622325 -0.330437 0
M  V30 31 H -0.003460 -3.210199 4.893304 0
M  V30 32 H -2.023469 -4.065291 3.354890 0
M  V30 33 H -1.869273 -2.469539 4.061632 0
M  V30 34 H -2.315579 -2.393724 1.733105 0
M  V30 35 H -1.967648 -0.273283 1.002674 0
M  V30 36 H -1.166952 1.485239 2.368812 0
M  V30 37 H -1.524236 -0.041015 3.368257 0
M  V30 38 H 0.663849 0.608872 4.146878 0
M  V30 39 H 0.916416 -0.688888 2.892199 0
M  V30 40 H 0.776318 2.255188 2.232460 0
M  V30 41 H 2.368937 1.387388 2.446598 0
M  V30 42 H 2.878651 1.985482 0.260590 0
M  V30 43 H 1.929334 1.300862 -1.051228 0
M  V30 44 H -1.151032 5.230966 -0.904589 0
M  V30 45 H 0.390193 6.037165 1.016846 0
M  V30 46 H 2.031201 4.177535 1.538568 0
M  V30 47 H -0.569444 1.397514 0.333534 0
M  V30 48 H 1.749906 -1.278776 -0.825507 0
M  V30 49 H 1.791843 -1.965898 -3.231883 0
M  V30 50 H 0.067732 -1.117016 -4.774853 0
M  V30 51 H -1.718197 0.430739 -3.921428 0
M  V30 52 H -1.674394 1.032038 -1.597775 0
M  V30 53 H -0.607406 -5.294631 2.528416 0
M  V30 54 H -0.126501 -6.681320 -1.400873 0
M  V30 55 H -1.132979 -2.670581 -0.752471 0
M  V30 END ATOM
M  V30 BEGIN BOND
M  V30 1 1 1 2
M  V30 2 1 2 3
M  V30 3 1 3 4
M  V30 4 1 4 5
M  V30 5 1 5 6
M  V30 6 1 6 7
M  V30 7 1 7 8
M  V30 8 1 8 9
M  V30 9 1 9 10
M  V30 10 1 10 11
M  V30 11 2 11 12
M  V30 12 1 12 13
M  V30 13 2 13 14
M  V30 14 1 14 15
M  V30 15 1 9 16
M  V30 16 1 16 17
M  V30 17 2 17 18
M  V30 18 1 18 19
M  V30 19 2 19 20
M  V30 20 1 20 21
M  V30 21 2 21 22
M  V30 22 1 3 23
M  V30 23 2 23 24
M  V30 24 1 24 25
M  V30 25 1 25 26
M  V30 26 2 25 27
M  V30 27 1 27 28
M  V30 28 1 28 29
M  V30 29 2 28 30
M  V30 30 1 16 5
M  V30 31 1 22 17
M  V30 32 1 30 23
M  V30 33 1 15 11
M  V30 34 1 1 31
M  V30 35 1 2 32
M  V30 36 1 2 33
M  V30 37 1 3 34 CFG=3
M  V30 38 1 5 35 CFG=3
M  V30 39 1 6 36
M  V30 40 1 6 37
M  V30 41 1 7 38
M  V30 42 1 7 39
M  V30 43 1 8 40
M  V30 44 1 8 41
M  V30 45 1 10 42
M  V30 46 1 10 43
M  V30 47 1 13 44
M  V30 48 1 14 45
M  V30 49 1 15 46
M  V30 50 1 16 47 CFG=3
M  V30 51 1 18 48
M  V30 52 1 19 49
M  V30 53 1 20 50
M  V30 54 1 21 51
M  V30 55 1 22 52
M  V30 56 1 24 53
M  V30 57 1 27 54
M  V30 58 1 30 55
M  V30 END BOND
M  V30 END CTAB
M  END
>  <Dataset>  (149) 
ChEMBL_Kinases

>  <Ligand_Instance>  (149) 
nan

>  <PDB_ID>  (149) 
nan

>  <Standardized_SMILES>  (149) 
OC[C@@H](O[C@H]1CCCN(Cc2ncc[nH]2)[C@H]1c1ccccc1)c1cc(Cl)cc(Cl)c1

>  <Name>  (149) 
nan

>  <Pocket>  (149) 
nan

>  <ATP_Site>  (149) 
nan

>  <Peripheral>  (149) 
nan

>  <Num_H_Atoms_ProtBoundConf>  (149) 
nan

>  <Num_Resolved_Atoms>  (149) 
nan

>  <Num_Not_Resolved_Atoms>  (149) 
nan

$$$$
CHEMBL4076787
     RDKit          3D

  0  0  0  0  0  0  0  0  0  0999 V3000
M  V30 BEGIN CTAB
M  V30 COUNTS 55 59 0 0 0
M  V30 BEGIN ATOM
M  V30 1 C 9.092142 0.321227 1.272065 0
M  V30 2 O 7.692193 0.411325 0.997942 0
M  V30 3 C 7.116468 -0.224963 -0.094096 0
M  V30 4 O 7.872939 -0.884567 -0.834271 0
M  V30 5 C 5.690180 -0.147265 -0.394182 0
M  V30 6 C 5.253838 -0.829048 -1.512217 0
M  V30 7 C 3.902678 -0.798828 -1.860435 0
M  V30 8 C 3.031928 -0.075302 -1.061048 0
M  V30 9 C 3.487768 0.602686 0.057180 0
M  V30 10 C 4.832510 0.576280 0.409033 0
M  V30 11 C 2.743379 1.413155 1.019553 0
M  V30 12 O 3.370632 2.177042 1.792037 0
M  V30 13 C 1.286303 1.383081 1.134238 0
M  V30 14 C 0.828360 2.172504 2.168664 0
M  V30 15 C -0.505970 2.307489 2.477671 0
M  V30 16 C -1.465292 1.639776 1.744498 0
M  V30 17 N -2.846837 1.777855 2.034681 0
M  V30 18 C -3.979238 0.972263 1.770186 0
M  V30 19 C -5.236970 1.497385 1.739667 0
M  V30 20 C -6.352544 0.730367 1.500279 0
M  V30 21 C -6.251136 -0.625638 1.276575 0
M  V30 22 F -7.376334 -1.332682 1.046196 0
M  V30 23 C -5.001855 -1.206831 1.296925 0
M  V30 24 N -4.879063 -2.605075 1.068408 0
M  V30 25 C -4.700785 -3.483972 -0.009036 0
M  V30 26 O -4.595968 -3.117789 -1.215630 0
M  V30 27 C -4.631202 -4.921186 0.280874 0
M  V30 28 C -5.268754 -5.839458 -0.775342 0
M  V30 29 C -3.770149 -5.732986 -0.676147 0
M  V30 30 C -3.922264 -0.385211 1.542427 0
M  V30 31 C -0.993743 0.855561 0.714458 0
M  V30 32 C 0.339122 0.708960 0.391339 0
M  V30 33 O 0.634477 -0.120514 -0.676201 0
M  V30 34 C 1.672707 -0.190927 -1.625089 0
M  V30 35 H 9.612712 1.258537 0.930059 0
M  V30 36 H 9.530520 -0.576042 0.808639 0
M  V30 37 H 9.256525 0.288359 2.359352 0
M  V30 38 H 5.896508 -1.405972 -2.164724 0
M  V30 39 H 3.530076 -1.332260 -2.744308 0
M  V30 40 H 5.175392 1.106692 1.279708 0
M  V30 41 H 1.567892 2.703723 2.754600 0
M  V30 42 H -0.837330 2.937564 3.299741 0
M  V30 43 H -3.075142 2.677197 2.561756 0
M  V30 44 H -5.359932 2.573205 1.913104 0
M  V30 45 H -7.315391 1.237474 1.494926 0
M  V30 46 H -4.961316 -2.962268 2.057452 0
M  V30 47 H -4.719020 -5.280937 1.327832 0
M  V30 48 H -5.665242 -6.827162 -0.425638 0
M  V30 49 H -5.790002 -5.376492 -1.632642 0
M  V30 50 H -3.262730 -5.184428 -1.493722 0
M  V30 51 H -3.194568 -6.593609 -0.274358 0
M  V30 52 H -2.982140 -0.917439 1.553158 0
M  V30 53 H -1.652206 0.297567 0.069182 0
M  V30 54 H 1.576757 -1.173811 -2.134890 0
M  V30 55 H 1.544200 0.584455 -2.433178 0
M  V30 END ATOM
M  V30 BEGIN BOND
M  V30 1 1 1 2
M  V30 2 1 2 3
M  V30 3 2 3 4
M  V30 4 1 3 5
M  V30 5 2 5 6
M  V30 6 1 6 7
M  V30 7 2 7 8
M  V30 8 1 8 9
M  V30 9 2 9 10
M  V30 10 1 9 11
M  V30 11 2 11 12
M  V30 12 1 11 13
M  V30 13 2 13 14
M  V30 14 1 14 15
M  V30 15 2 15 16
M  V30 16 1 16 17
M  V30 17 1 17 18
M  V30 18 2 18 19
M  V30 19 1 19 20
M  V30 20 2 20 21
M  V30 21 1 21 22
M  V30 22 1 21 23
M  V30 23 1 23 24
M  V30 24 1 24 25
M  V30 25 2 25 26
M  V30 26 1 25 27
M  V30 27 1 27 28
M  V30 28 1 28 29
M  V30 29 2 23 30
M  V30 30 1 16 31
M  V30 31 2 31 32
M  V30 32 1 32 33
M  V30 33 1 33 34
M  V30 34 1 10 5
M  V30 35 1 32 13
M  V30 36 1 34 8
M  V30 37 1 30 18
M  V30 38 1 29 27
M  V30 39 1 1 35
M  V30 40 1 1 36
M  V30 41 1 1 37
M  V30 42 1 6 38
M  V30 43 1 7 39
M  V30 44 1 10 40
M  V30 45 1 14 41
M  V30 46 1 15 42
M  V30 47 1 17 43
M  V30 48 1 19 44
M  V30 49 1 20 45
M  V30 50 1 24 46
M  V30 51 1 27 47
M  V30 52 1 28 48
M  V30 53 1 28 49
M  V30 54 1 29 50
M  V30 55 1 29 51
M  V30 56 1 30 52
M  V30 57 1 31 53
M  V30 58 1 34 54
M  V30 59 1 34 55
M  V30 END BOND
M  V30 END CTAB
M  END
>  <Dataset>  (150) 
ChEMBL_Kinases

>  <Ligand_Instance>  (150) 
nan

>  <PDB_ID>  (150) 
nan

>  <Standardized_SMILES>  (150) 
COC(=O)c1ccc2c(c1)C(=O)c1ccc(Nc3ccc(F)c(NC(=O)C4CC4)c3)cc1OC2

>  <Name>  (150) 
nan

>  <Pocket>  (150) 
nan

>  <ATP_Site>  (150) 
nan

>  <Peripheral>  (150) 
nan

>  <Num_H_Atoms_ProtBoundConf>  (150) 
nan

>  <Num_Resolved_Atoms>  (150) 
nan

>  <Num_Not_Resolved_Atoms>  (150) 
nan

$$$$
CHEMBL4856340
     RDKit          3D

  0  0  0  0  0  0  0  0  0  0999 V3000
M  V30 BEGIN CTAB
M  V30 COUNTS 69 73 0 0 0
M  V30 BEGIN ATOM
M  V30 1 C 4.399851 -2.065964 1.472367 0
M  V30 2 C 4.498202 -0.569512 1.429704 0
M  V30 3 C 4.097734 0.000326 0.122793 0
M  V30 4 O 3.830469 -1.068168 -0.457641 0
M  V30 5 N 4.120641 1.391810 -0.088343 0
M  V30 6 C 4.474174 2.531397 0.733195 0
M  V30 7 C 3.765988 3.436931 -0.244884 0
M  V30 8 N 2.511066 3.956945 0.179913 0
M  V30 9 C 2.457462 5.272501 0.539517 0
M  V30 10 O 3.528687 5.967786 0.474176 0
M  V30 11 C 1.355583 5.968635 0.979221 0
M  V30 12 C 0.171340 5.269524 1.070000 0
M  V30 13 C -1.089763 5.903801 1.532935 0
M  V30 14 C 0.176741 3.935132 0.716710 0
M  V30 15 C -1.001849 3.227547 0.800970 0
M  V30 16 N -0.919959 1.941980 0.439836 0
M  V30 17 C 0.179949 1.308280 0.016652 0
M  V30 18 N 0.230244 -0.059741 -0.363463 0
M  V30 19 C -0.787310 -1.034636 -0.387230 0
M  V30 20 C -2.089766 -0.788268 -0.008283 0
M  V30 21 C -3.122722 -1.702538 -0.011745 0
M  V30 22 C -2.853564 -2.988389 -0.428332 0
M  V30 23 N -3.824173 -4.028477 -0.486474 0
M  V30 24 C -3.636664 -5.437399 -0.834477 0
M  V30 25 C -4.246628 -6.290723 0.267583 0
M  V30 26 N -4.557898 -5.479476 1.364964 0
M  V30 27 C -3.971629 -5.732735 2.605242 0
M  V30 28 C -5.450647 -4.412750 1.206363 0
M  V30 29 C -5.234778 -3.824392 -0.191580 0
M  V30 30 C -1.564112 -3.275496 -0.815226 0
M  V30 31 C -0.553321 -2.352718 -0.804250 0
M  V30 32 O 0.737173 -2.669708 -1.200185 0
M  V30 33 C 1.005338 -3.983074 -1.624246 0
M  V30 34 N 1.302400 2.037764 -0.048583 0
M  V30 35 C 1.338640 3.333816 0.287922 0
M  V30 36 C 3.810369 2.301403 -1.198581 0
M  V30 37 H 4.905275 -2.530650 0.610642 0
M  V30 38 H 3.338487 -2.370536 1.565703 0
M  V30 39 H 4.932744 -2.395320 2.394921 0
M  V30 40 H 3.974293 -0.122877 2.290946 0
M  V30 41 H 5.574368 -0.311193 1.555361 0
M  V30 42 H 5.567873 2.701979 0.720243 0
M  V30 43 H 4.113237 2.531793 1.764626 0
M  V30 44 H 4.440868 4.279378 -0.590070 0
M  V30 45 H 1.408413 7.015119 1.242926 0
M  V30 46 H -1.918013 5.685264 0.798654 0
M  V30 47 H -0.938184 7.003333 1.477988 0
M  V30 48 H -1.390800 5.547721 2.538201 0
M  V30 49 H -1.941038 3.639670 1.127593 0
M  V30 50 H 1.176952 -0.425065 -0.685234 0
M  V30 51 H -2.402630 0.181722 0.332296 0
M  V30 52 H -4.127082 -1.453032 0.298931 0
M  V30 53 H -2.610018 -5.747425 -0.961263 0
M  V30 54 H -4.176365 -5.624228 -1.810958 0
M  V30 55 H -3.549251 -7.088230 0.591020 0
M  V30 56 H -5.189198 -6.724402 -0.132474 0
M  V30 57 H -2.859946 -5.839140 2.434312 0
M  V30 58 H -4.283497 -6.641472 3.135180 0
M  V30 59 H -4.077327 -4.840086 3.263710 0
M  V30 60 H -6.522658 -4.647166 1.380854 0
M  V30 61 H -5.217101 -3.624789 1.975763 0
M  V30 62 H -5.553228 -2.771393 -0.235032 0
M  V30 63 H -5.913874 -4.366837 -0.880846 0
M  V30 64 H -1.264248 -4.259926 -1.157318 0
M  V30 65 H 2.054118 -3.987091 -1.987195 0
M  V30 66 H 0.336296 -4.352762 -2.416769 0
M  V30 67 H 1.003446 -4.701075 -0.762295 0
M  V30 68 H 4.726207 2.350068 -1.864389 0
M  V30 69 H 2.903454 2.061454 -1.758243 0
M  V30 END ATOM
M  V30 BEGIN BOND
M  V30 1 1 1 2
M  V30 2 1 2 3
M  V30 3 2 3 4
M  V30 4 1 3 5
M  V30 5 1 5 6
M  V30 6 1 6 7
M  V30 7 1 7 8
M  V30 8 1 8 9
M  V30 9 2 9 10
M  V30 10 1 9 11
M  V30 11 2 11 12
M  V30 12 1 12 13
M  V30 13 1 12 14
M  V30 14 2 14 15
M  V30 15 1 15 16
M  V30 16 2 16 17
M  V30 17 1 17 18
M  V30 18 1 18 19
M  V30 19 2 19 20
M  V30 20 1 20 21
M  V30 21 2 21 22
M  V30 22 1 22 23
M  V30 23 1 23 24
M  V30 24 1 24 25
M  V30 25 1 25 26
M  V30 26 1 26 27
M  V30 27 1 26 28
M  V30 28 1 28 29
M  V30 29 1 22 30
M  V30 30 2 30 31
M  V30 31 1 31 32
M  V30 32 1 32 33
M  V30 33 1 17 34
M  V30 34 2 34 35
M  V30 35 1 7 36
M  V30 36 1 36 5
M  V30 37 1 35 8
M  V30 38 1 35 14
M  V30 39 1 31 19
M  V30 40 1 29 23
M  V30 41 1 1 37
M  V30 42 1 1 38
M  V30 43 1 1 39
M  V30 44 1 2 40
M  V30 45 1 2 41
M  V30 46 1 6 42
M  V30 47 1 6 43
M  V30 48 1 7 44
M  V30 49 1 11 45
M  V30 50 1 13 46
M  V30 51 1 13 47
M  V30 52 1 13 48
M  V30 53 1 15 49
M  V30 54 1 18 50
M  V30 55 1 20 51
M  V30 56 1 21 52
M  V30 57 1 24 53
M  V30 58 1 24 54
M  V30 59 1 25 55
M  V30 60 1 25 56
M  V30 61 1 27 57
M  V30 62 1 27 58
M  V30 63 1 27 59
M  V30 64 1 28 60
M  V30 65 1 28 61
M  V30 66 1 29 62
M  V30 67 1 29 63
M  V30 68 1 30 64
M  V30 69 1 33 65
M  V30 70 1 33 66
M  V30 71 1 33 67
M  V30 72 1 36 68
M  V30 73 1 36 69
M  V30 END BOND
M  V30 END CTAB
M  END
>  <Dataset>  (151) 
ChEMBL_Kinases

>  <Ligand_Instance>  (151) 
nan

>  <PDB_ID>  (151) 
nan

>  <Standardized_SMILES>  (151) 
CCC(=O)N1CC(n2c(=O)cc(C)c3cnc(Nc4ccc(N5CCN(C)CC5)cc4OC)nc32)C1

>  <Name>  (151) 
nan

>  <Pocket>  (151) 
nan

>  <ATP_Site>  (151) 
nan

>  <Peripheral>  (151) 
nan

>  <Num_H_Atoms_ProtBoundConf>  (151) 
nan

>  <Num_Resolved_Atoms>  (151) 
nan

>  <Num_Not_Resolved_Atoms>  (151) 
nan

$$$$
CHEMBL4856360
     RDKit          3D

  0  0  0  0  0  0  0  0  0  0999 V3000
M  V30 BEGIN CTAB
M  V30 COUNTS 54 59 0 0 0
M  V30 BEGIN ATOM
M  V30 1 C 3.375090 -4.692109 4.793803 0
M  V30 2 N 3.229980 -3.234009 4.691205 0
M  V30 3 N 3.419189 -2.335382 5.636584 0
M  V30 4 C 3.186496 -1.088052 5.157113 0
M  V30 5 C 2.829118 -1.187873 3.835339 0
M  V30 6 C 2.473354 -0.314836 2.803117 0
M  V30 7 C 2.155786 -0.777407 1.520806 0
M  V30 8 C 1.837116 0.355623 0.668320 0
M  V30 9 C 2.698886 1.458152 0.615122 0
M  V30 10 N 2.523271 2.561278 -0.132971 0
M  V30 11 C 1.428034 2.657570 -0.921270 0
M  V30 12 N 1.039621 3.649402 -1.747838 0
M  V30 13 C -0.122777 3.270751 -2.309282 0
M  V30 14 C -0.437177 2.015388 -1.802425 0
M  V30 15 C 0.536581 1.604161 -0.915935 0
M  V30 16 C 0.733202 0.480145 -0.141776 0
M  V30 17 N -0.234340 -0.529672 -0.206291 0
M  V30 18 C -1.308883 -0.407325 0.764831 0
M  V30 19 C -2.625787 -0.201328 0.097257 0
M  V30 20 C -2.881721 -1.016127 -1.106358 0
M  V30 21 C -3.724282 -0.202909 -2.069115 0
M  V30 22 C -5.150613 -0.653717 -1.862955 0
M  V30 23 N -5.043921 -2.040816 -1.445240 0
M  V30 24 C -3.783477 -2.177159 -0.794163 0
M  V30 25 O -3.140135 -2.943166 -0.031301 0
M  V30 26 C -1.675102 -1.476851 -1.855993 0
M  V30 27 C -0.468238 -1.724023 -1.035462 0
M  V30 28 C 2.204305 -2.113428 1.306609 0
M  V30 29 C 2.553464 -2.983745 2.316524 0
M  V30 30 C 2.870576 -2.562110 3.586171 0
M  V30 31 H 2.655069 -5.156875 4.081935 0
M  V30 32 H 4.399908 -5.016702 4.596069 0
M  V30 33 H 3.043513 -5.006323 5.810701 0
M  V30 34 H 3.258714 -0.141407 5.693177 0
M  V30 35 H 2.489755 0.720447 3.163616 0
M  V30 36 H 3.599959 1.418275 1.241189 0
M  V30 37 H 1.579123 4.531869 -1.891032 0
M  V30 38 H -0.616523 3.921827 -3.011589 0
M  V30 39 H -1.327146 1.473841 -2.088047 0
M  V30 40 H -1.344990 -1.376587 1.318849 0
M  V30 41 H -1.154737 0.381825 1.512677 0
M  V30 42 H -3.424502 -0.394376 0.843706 0
M  V30 43 H -2.696889 0.904895 -0.121324 0
M  V30 44 H -3.409110 -0.328428 -3.128630 0
M  V30 45 H -3.645932 0.878884 -1.847179 0
M  V30 46 H -5.618615 -0.028285 -1.077806 0
M  V30 47 H -5.664668 -0.566861 -2.851694 0
M  V30 48 H -5.585857 -2.931837 -1.474754 0
M  V30 49 H -1.449172 -0.832560 -2.730738 0
M  V30 50 H -1.949427 -2.469300 -2.323412 0
M  V30 51 H -0.657516 -2.595823 -0.375489 0
M  V30 52 H 0.387356 -1.885616 -1.720098 0
M  V30 53 H 1.957660 -2.384122 0.311813 0
M  V30 54 H 2.567367 -4.030637 2.062332 0
M  V30 END ATOM
M  V30 BEGIN BOND
M  V30 1 1 1 2
M  V30 2 1 2 3
M  V30 3 2 3 4
M  V30 4 1 4 5
M  V30 5 2 5 6
M  V30 6 1 6 7
M  V30 7 1 7 8
M  V30 8 2 8 9
M  V30 9 1 9 10
M  V30 10 2 10 11
M  V30 11 1 11 12
M  V30 12 1 12 13
M  V30 13 2 13 14
M  V30 14 1 14 15
M  V30 15 2 15 16
M  V30 16 1 16 17
M  V30 17 1 17 18
M  V30 18 1 18 19
M  V30 19 1 19 20
M  V30 20 1 20 21
M  V30 21 1 21 22
M  V30 22 1 22 23
M  V30 23 1 23 24
M  V30 24 2 24 25
M  V30 25 1 20 26
M  V30 26 1 26 27
M  V30 27 2 7 28
M  V30 28 1 28 29
M  V30 29 2 29 30
M  V30 30 1 30 2
M  V30 31 1 30 5
M  V30 32 1 16 8
M  V30 33 1 27 17
M  V30 34 1 15 11
M  V30 35 1 24 20
M  V30 36 1 1 31
M  V30 37 1 1 32
M  V30 38 1 1 33
M  V30 39 1 4 34
M  V30 40 1 6 35
M  V30 41 1 9 36
M  V30 42 1 12 37
M  V30 43 1 13 38
M  V30 44 1 14 39
M  V30 45 1 18 40
M  V30 46 1 18 41
M  V30 47 1 19 42
M  V30 48 1 19 43
M  V30 49 1 21 44
M  V30 50 1 21 45
M  V30 51 1 22 46
M  V30 52 1 22 47
M  V30 53 1 23 48
M  V30 54 1 26 49
M  V30 55 1 26 50
M  V30 56 1 27 51
M  V30 57 1 27 52
M  V30 58 1 28 53
M  V30 59 1 29 54
M  V30 END BOND
M  V30 END CTAB
M  END
>  <Dataset>  (152) 
ChEMBL_Kinases

>  <Ligand_Instance>  (152) 
nan

>  <PDB_ID>  (152) 
nan

>  <Standardized_SMILES>  (152) 
Cn1ncc2cc(-c3cnc4[nH]ccc4c3N3CCC4(CCNC4=O)CC3)ccc21

>  <Name>  (152) 
nan

>  <Pocket>  (152) 
nan

>  <ATP_Site>  (152) 
nan

>  <Peripheral>  (152) 
nan

>  <Num_H_Atoms_ProtBoundConf>  (152) 
nan

>  <Num_Resolved_Atoms>  (152) 
nan

>  <Num_Not_Resolved_Atoms>  (152) 
nan

$$$$
CHEMBL485638
     RDKit          3D

  0  0  0  0  0  0  0  0  0  0999 V3000
M  V30 BEGIN CTAB
M  V30 COUNTS 55 60 0 0 0
M  V30 BEGIN ATOM
M  V30 1 O 5.132108 1.712122 2.368998 0
M  V30 2 C 4.360221 1.111447 1.554877 0
M  V30 3 N 4.663403 0.291579 0.430746 0
M  V30 4 C 3.467135 -0.161221 -0.177100 0
M  V30 5 O 3.633654 -0.878283 -1.159333 0
M  V30 6 C 2.358393 0.373410 0.564615 0
M  V30 7 C 2.897681 1.122451 1.583859 0
M  V30 8 C 2.069045 1.784331 2.496939 0
M  V30 9 C 2.613734 2.585238 3.587061 0
M  V30 10 C 2.822965 1.841692 4.752205 0
M  V30 11 C 3.339167 2.462524 5.883435 0
M  V30 12 C 3.630385 3.816750 5.808762 0
M  V30 13 C 3.427231 4.555156 4.665774 0
M  V30 14 C 2.915024 3.931488 3.548722 0
M  V30 15 Cl 2.597760 4.728062 2.016920 0
M  V30 16 C 0.701474 1.674317 2.359518 0
M  V30 17 C 0.212216 0.912472 1.322287 0
M  V30 18 N -1.062087 0.653575 0.980355 0
M  V30 19 C -1.030429 -0.152181 -0.121902 0
M  V30 20 C -2.103031 -0.644442 -0.784795 0
M  V30 21 C -2.015363 -1.454109 -1.892073 0
M  V30 22 O -2.919745 -2.060372 -2.709248 0
M  V30 23 C -4.291401 -2.044020 -2.647244 0
M  V30 24 C -4.925913 -2.636862 -1.435783 0
M  V30 25 C -4.619228 -4.093881 -1.273062 0
M  V30 26 N -3.238897 -4.433643 -1.153983 0
M  V30 27 C -2.604312 -4.473732 0.039905 0
M  V30 28 C -1.283493 -4.843697 -0.101531 0
M  V30 29 C -1.138353 -5.030431 -1.456263 0
M  V30 30 C -2.343679 -4.779328 -2.120462 0
M  V30 31 C -0.686104 -1.722464 -2.272436 0
M  V30 32 O -0.374200 -2.528484 -3.378624 0
M  V30 33 C 0.403452 -1.218287 -1.593680 0
M  V30 34 C 0.265152 -0.420799 -0.501608 0
M  V30 35 C 1.011987 0.255309 0.415932 0
M  V30 36 H 5.693594 0.144317 0.219536 0
M  V30 37 H 2.611244 0.782438 4.859536 0
M  V30 38 H 3.512001 1.917284 6.796933 0
M  V30 39 H 4.029783 4.275677 6.699236 0
M  V30 40 H 3.646396 5.601479 4.590294 0
M  V30 41 H 0.064383 2.185285 3.064388 0
M  V30 42 H -1.904532 1.019247 1.488472 0
M  V30 43 H -3.117963 -0.428994 -0.498423 0
M  V30 44 H -4.718343 -1.019101 -2.814581 0
M  V30 45 H -4.674409 -2.647072 -3.528869 0
M  V30 46 H -6.049841 -2.522561 -1.567758 0
M  V30 47 H -4.735015 -2.084931 -0.494232 0
M  V30 48 H -5.074582 -4.630345 -2.155886 0
M  V30 49 H -5.179661 -4.496780 -0.382737 0
M  V30 50 H -3.038086 -4.250576 1.018172 0
M  V30 51 H -0.487286 -4.981660 0.592970 0
M  V30 52 H -0.313369 -5.321056 -2.090389 0
M  V30 53 H -2.660074 -4.805696 -3.141057 0
M  V30 54 H -0.932659 -2.462958 -4.228931 0
M  V30 55 H 1.387549 -1.450618 -1.921210 0
M  V30 END ATOM
M  V30 BEGIN BOND
M  V30 1 2 1 2
M  V30 2 1 2 3
M  V30 3 1 3 4
M  V30 4 2 4 5
M  V30 5 1 4 6
M  V30 6 2 6 7
M  V30 7 1 7 8
M  V30 8 1 8 9
M  V30 9 2 9 10
M  V30 10 1 10 11
M  V30 11 2 11 12
M  V30 12 1 12 13
M  V30 13 2 13 14
M  V30 14 1 14 15
M  V30 15 2 8 16
M  V30 16 1 16 17
M  V30 17 1 17 18
M  V30 18 1 18 19
M  V30 19 2 19 20
M  V30 20 1 20 21
M  V30 21 1 21 22
M  V30 22 1 22 23
M  V30 23 1 23 24
M  V30 24 1 24 25
M  V30 25 1 25 26
M  V30 26 1 26 27
M  V30 27 2 27 28
M  V30 28 1 28 29
M  V30 29 2 29 30
M  V30 30 2 21 31
M  V30 31 1 31 32
M  V30 32 1 31 33
M  V30 33 2 33 34
M  V30 34 1 34 35
M  V30 35 1 7 2
M  V30 36 1 14 9
M  V30 37 2 35 17
M  V30 38 1 35 6
M  V30 39 1 34 19
M  V30 40 1 30 26
M  V30 41 1 3 36
M  V30 42 1 10 37
M  V30 43 1 11 38
M  V30 44 1 12 39
M  V30 45 1 13 40
M  V30 46 1 16 41
M  V30 47 1 18 42
M  V30 48 1 20 43
M  V30 49 1 23 44
M  V30 50 1 23 45
M  V30 51 1 24 46
M  V30 52 1 24 47
M  V30 53 1 25 48
M  V30 54 1 25 49
M  V30 55 1 27 50
M  V30 56 1 28 51
M  V30 57 1 29 52
M  V30 58 1 30 53
M  V30 59 1 32 54
M  V30 60 1 33 55
M  V30 END BOND
M  V30 END CTAB
M  END
>  <Dataset>  (153) 
ChEMBL_Kinases

>  <Ligand_Instance>  (153) 
nan

>  <PDB_ID>  (153) 
nan

>  <Standardized_SMILES>  (153) 
O=C1NC(=O)c2c1c(-c1ccccc1Cl)cc1[nH]c3cc(OCCCn4cccc4)c(O)cc3c21

>  <Name>  (153) 
nan

>  <Pocket>  (153) 
nan

>  <ATP_Site>  (153) 
nan

>  <Peripheral>  (153) 
nan

>  <Num_H_Atoms_ProtBoundConf>  (153) 
nan

>  <Num_Resolved_Atoms>  (153) 
nan

>  <Num_Not_Resolved_Atoms>  (153) 
nan

$$$$
CHEMBL4076529
     RDKit          3D

  0  0  0  0  0  0  0  0  0  0999 V3000
M  V30 BEGIN CTAB
M  V30 COUNTS 61 65 0 0 0
M  V30 BEGIN ATOM
M  V30 1 O 0.705720 1.488329 2.976184 0
M  V30 2 C 1.205940 2.097648 1.968232 0
M  V30 3 N 2.347442 2.820983 2.396039 0
M  V30 4 C 2.589838 2.653014 3.802010 0
M  V30 5 C 3.827254 3.462247 4.166001 0
M  V30 6 C 5.014082 3.011144 3.413557 0
M  V30 7 C 5.554791 3.380329 2.202326 0
M  V30 8 C 6.677379 2.569764 2.069380 0
M  V30 9 N 6.808514 1.765203 3.125999 0
M  V30 10 N 5.785157 2.045761 3.939407 0
M  V30 11 C 0.617342 1.995040 0.642538 0
M  V30 12 C -0.511961 1.209754 0.534692 0
M  V30 13 C -1.169705 1.023882 -0.650625 0
M  V30 14 C -2.375223 0.166724 -0.759751 0 CFG=2
M  V30 15 C -3.225610 0.192216 0.447525 0
M  V30 16 C -3.326973 -1.040972 1.253519 0
M  V30 17 N -2.281908 -1.991096 1.177515 0
M  V30 18 C -1.411703 -1.897306 0.056644 0
M  V30 19 C -1.949911 -1.254925 -1.144003 0 CFG=1
M  V30 20 C -3.005457 -1.950796 -1.915107 0
M  V30 21 O -2.841597 -3.219340 -2.356846 0
M  V30 22 C -2.677510 -4.467333 -1.916506 0
M  V30 23 C -2.550296 -5.276963 -3.064502 0
M  V30 24 C -2.364606 -6.657495 -3.007706 0
M  V30 25 C -2.304729 -7.244274 -1.752978 0
M  V30 26 C -2.422109 -6.509640 -0.600966 0
M  V30 27 C -2.603043 -5.157924 -0.730515 0
M  V30 28 O -2.328183 -7.328539 0.489321 0
M  V30 29 C -1.760117 -8.558739 0.034842 0
M  V30 30 O -2.133944 -8.556237 -1.325490 0
M  V30 31 C -0.675916 1.656948 -1.797974 0
M  V30 32 C 0.447324 2.453850 -1.755029 0
M  V30 33 C 1.043773 2.584233 -0.524460 0
M  V30 34 F 2.146727 3.357842 -0.447019 0
M  V30 35 H 2.849976 3.364809 1.662939 0
M  V30 36 H 2.807167 1.606686 4.108815 0
M  V30 37 H 1.757383 2.993396 4.429738 0
M  V30 38 H 3.600134 4.519846 3.863237 0
M  V30 39 H 3.990954 3.498242 5.256711 0
M  V30 40 H 5.120103 4.138935 1.582195 0
M  V30 41 H 7.312179 2.650589 1.179724 0
M  V30 42 H 7.578151 1.056574 3.265956 0
M  V30 43 H -0.915555 0.719027 1.411450 0
M  V30 44 H -2.923781 0.512647 -1.690812 0
M  V30 45 H -4.272297 0.454160 0.115754 0
M  V30 46 H -2.924692 1.089650 1.053739 0
M  V30 47 H -3.367483 -0.711292 2.335064 0
M  V30 48 H -4.306991 -1.568905 1.123091 0
M  V30 49 H -1.747886 -2.130424 2.057298 0
M  V30 50 H -0.462528 -1.319797 0.333209 0
M  V30 51 H -1.005816 -2.898568 -0.181420 0
M  V30 52 H -1.073828 -1.071176 -1.843158 0
M  V30 53 H -3.958905 -1.844470 -1.285435 0
M  V30 54 H -3.235880 -1.289454 -2.809592 0
M  V30 55 H -2.571440 -4.998074 -4.135427 0
M  V30 56 H -2.259371 -7.342789 -3.826228 0
M  V30 57 H -2.717702 -4.488018 0.089879 0
M  V30 58 H -2.155885 -9.433477 0.582775 0
M  V30 59 H -0.653312 -8.450998 0.133460 0
M  V30 60 H -1.196656 1.505537 -2.718246 0
M  V30 61 H 0.855360 2.953399 -2.605541 0
M  V30 END ATOM
M  V30 BEGIN BOND
M  V30 1 2 1 2
M  V30 2 1 2 3
M  V30 3 1 3 4
M  V30 4 1 4 5
M  V30 5 1 5 6
M  V30 6 1 6 7
M  V30 7 2 7 8
M  V30 8 1 8 9
M  V30 9 1 9 10
M  V30 10 1 2 11
M  V30 11 2 11 12
M  V30 12 1 12 13
M  V30 13 1 13 14
M  V30 14 1 14 15
M  V30 15 1 15 16
M  V30 16 1 16 17
M  V30 17 1 17 18
M  V30 18 1 18 19
M  V30 19 1 19 20
M  V30 20 1 20 21
M  V30 21 1 21 22
M  V30 22 2 22 23
M  V30 23 1 23 24
M  V30 24 2 24 25
M  V30 25 1 25 26
M  V30 26 2 26 27
M  V30 27 1 26 28
M  V30 28 1 28 29
M  V30 29 1 29 30
M  V30 30 2 13 31
M  V30 31 1 31 32
M  V30 32 2 32 33
M  V30 33 1 33 34
M  V30 34 2 10 6
M  V30 35 1 33 11
M  V30 36 1 19 14
M  V30 37 1 27 22
M  V30 38 1 30 25
M  V30 39 1 3 35
M  V30 40 1 4 36
M  V30 41 1 4 37
M  V30 42 1 5 38
M  V30 43 1 5 39
M  V30 44 1 7 40
M  V30 45 1 8 41
M  V30 46 1 9 42
M  V30 47 1 12 43
M  V30 48 1 14 44 CFG=3
M  V30 49 1 15 45
M  V30 50 1 15 46
M  V30 51 1 16 47
M  V30 52 1 16 48
M  V30 53 1 17 49
M  V30 54 1 18 50
M  V30 55 1 18 51
M  V30 56 1 19 52 CFG=3
M  V30 57 1 20 53
M  V30 58 1 20 54
M  V30 59 1 23 55
M  V30 60 1 24 56
M  V30 61 1 27 57
M  V30 62 1 29 58
M  V30 63 1 29 59
M  V30 64 1 31 60
M  V30 65 1 32 61
M  V30 END BOND
M  V30 END CTAB
M  END
>  <Dataset>  (154) 
ChEMBL_Kinases

>  <Ligand_Instance>  (154) 
nan

>  <PDB_ID>  (154) 
nan

>  <Standardized_SMILES>  (154) 
O=C(NCCc1cc[nH]n1)c1cc([C@@H]2CCNC[C@H]2COc2ccc3c(c2)OCO3)ccc1F

>  <Name>  (154) 
nan

>  <Pocket>  (154) 
nan

>  <ATP_Site>  (154) 
nan

>  <Peripheral>  (154) 
nan

>  <Num_H_Atoms_ProtBoundConf>  (154) 
nan

>  <Num_Resolved_Atoms>  (154) 
nan

>  <Num_Not_Resolved_Atoms>  (154) 
nan

$$$$
CHEMBL4076463
     RDKit          3D

  0  0  0  0  0  0  0  0  0  0999 V3000
M  V30 BEGIN CTAB
M  V30 COUNTS 40 42 0 0 0
M  V30 BEGIN ATOM
M  V30 1 O -1.557272 -3.047032 -0.170747 0
M  V30 2 C -0.984811 -1.926280 -0.022213 0
M  V30 3 N 0.351540 -2.053032 -0.484794 0
M  V30 4 C 0.801846 -3.311897 -0.999496 0
M  V30 5 C 1.362054 -4.229185 -0.151669 0
M  V30 6 C 1.794497 -5.451140 -0.675683 0
M  V30 7 C 1.657665 -5.724084 -2.022548 0
M  V30 8 C 1.093952 -4.811961 -2.900693 0
M  V30 9 F 0.964032 -5.089764 -4.222252 0
M  V30 10 C 0.674918 -3.606535 -2.343940 0
M  V30 11 C -1.650507 -0.775471 0.529129 0
M  V30 12 C -2.986016 -1.002237 0.887152 0
M  V30 13 C -3.779316 -0.024813 1.427943 0
M  V30 14 Br -5.592382 -0.387171 1.897940 0
M  V30 15 C -3.293070 1.246489 1.648292 0
M  V30 16 C -1.977958 1.456428 1.291772 0
M  V30 17 C -1.156640 0.491888 0.745915 0
M  V30 18 O 0.110254 0.711727 0.407537 0
M  V30 19 C 1.024467 1.699780 0.409066 0
M  V30 20 C 1.445564 2.352586 1.628236 0
M  V30 21 C 2.504258 1.764266 2.337173 0
M  V30 22 C 3.043253 2.247123 3.511705 0
M  V30 23 C 2.495312 3.409894 4.037314 0
M  V30 24 C 1.452387 4.036643 3.387754 0
M  V30 25 C 0.977330 3.496059 2.232729 0
M  V30 26 H 0.949785 -1.206456 -0.425354 0
M  V30 27 H 1.478600 -4.034109 0.909736 0
M  V30 28 H 2.249967 -6.228954 -0.059841 0
M  V30 29 H 2.002894 -6.691076 -2.421333 0
M  V30 30 H 0.224177 -2.857555 -3.001016 0
M  V30 31 H -3.466754 -1.969482 0.754734 0
M  V30 32 H -3.915742 2.011316 2.072064 0
M  V30 33 H -1.622552 2.458088 1.473072 0
M  V30 34 H 1.966407 1.338321 -0.106842 0
M  V30 35 H 0.671818 2.514394 -0.296669 0
M  V30 36 H 2.965833 0.844765 1.956793 0
M  V30 37 H 3.849203 1.748026 3.998122 0
M  V30 38 H 2.888443 3.818413 4.952774 0
M  V30 39 H 1.020688 4.945283 3.794088 0
M  V30 40 H 0.165354 3.988300 1.719881 0
M  V30 END ATOM
M  V30 BEGIN BOND
M  V30 1 2 1 2
M  V30 2 1 2 3
M  V30 3 1 3 4
M  V30 4 2 4 5
M  V30 5 1 5 6
M  V30 6 2 6 7
M  V30 7 1 7 8
M  V30 8 1 8 9
M  V30 9 2 8 10
M  V30 10 1 2 11
M  V30 11 2 11 12
M  V30 12 1 12 13
M  V30 13 1 13 14
M  V30 14 2 13 15
M  V30 15 1 15 16
M  V30 16 2 16 17
M  V30 17 1 17 18
M  V30 18 1 18 19
M  V30 19 1 19 20
M  V30 20 2 20 21
M  V30 21 1 21 22
M  V30 22 2 22 23
M  V30 23 1 23 24
M  V30 24 2 24 25
M  V30 25 1 10 4
M  V30 26 1 17 11
M  V30 27 1 25 20
M  V30 28 1 3 26
M  V30 29 1 5 27
M  V30 30 1 6 28
M  V30 31 1 7 29
M  V30 32 1 10 30
M  V30 33 1 12 31
M  V30 34 1 15 32
M  V30 35 1 16 33
M  V30 36 1 19 34
M  V30 37 1 19 35
M  V30 38 1 21 36
M  V30 39 1 22 37
M  V30 40 1 23 38
M  V30 41 1 24 39
M  V30 42 1 25 40
M  V30 END BOND
M  V30 END CTAB
M  END
>  <Dataset>  (155) 
ChEMBL_Kinases

>  <Ligand_Instance>  (155) 
nan

>  <PDB_ID>  (155) 
nan

>  <Standardized_SMILES>  (155) 
O=C(Nc1cccc(F)c1)c1cc(Br)ccc1OCc1ccccc1

>  <Name>  (155) 
nan

>  <Pocket>  (155) 
nan

>  <ATP_Site>  (155) 
nan

>  <Peripheral>  (155) 
nan

>  <Num_H_Atoms_ProtBoundConf>  (155) 
nan

>  <Num_Resolved_Atoms>  (155) 
nan

>  <Num_Not_Resolved_Atoms>  (155) 
nan

$$$$
CHEMBL4076461
     RDKit          3D

  0  0  0  0  0  0  0  0  0  0999 V3000
M  V30 BEGIN CTAB
M  V30 COUNTS 53 56 0 0 0
M  V30 BEGIN ATOM
M  V30 1 C -0.862966 -2.888832 4.822306 0
M  V30 2 O -0.817432 -2.760640 3.412868 0
M  V30 3 C 0.352533 -3.069947 2.736627 0
M  V30 4 C 1.469725 -3.500996 3.424395 0
M  V30 5 C 2.625080 -3.800517 2.697588 0
M  V30 6 F 3.712195 -4.222474 3.391129 0
M  V30 7 C 2.673784 -3.677072 1.329857 0
M  V30 8 C 1.555272 -3.245962 0.647496 0
M  V30 9 C 0.404525 -2.945537 1.350057 0
M  V30 10 C -0.855382 -2.469080 0.667908 0
M  V30 11 C -0.786591 -0.987927 0.652707 0
M  V30 12 N -1.641691 -0.344189 -0.327492 0
M  V30 13 C -1.233224 0.964096 -0.700614 0
M  V30 14 N -0.159638 1.407479 -0.066117 0
M  V30 15 C 0.428638 2.614923 -0.245528 0
M  V30 16 C 1.610958 3.033311 0.495709 0
M  V30 17 C 2.152293 2.163901 1.419591 0
M  V30 18 C 3.282202 2.669720 2.071157 0
M  V30 19 N 3.790351 3.888981 1.818739 0
M  V30 20 C 3.204115 4.690092 0.895580 0
M  V30 21 N 2.114725 4.234009 0.249835 0
M  V30 22 C -0.194400 3.400458 -1.184140 0
M  V30 23 C -1.307456 3.007503 -1.878681 0
M  V30 24 O -1.869600 3.734556 -2.735877 0
M  V30 25 N -1.784942 1.787369 -1.601428 0
M  V30 26 C -2.959074 1.336634 -2.313349 0
M  V30 27 C -2.673630 -1.302385 -0.598406 0
M  V30 28 C -2.042061 -2.434154 -1.405644 0
M  V30 29 N -0.905567 -2.984278 -0.685297 0
M  V30 30 C -0.945370 -4.431508 -0.736295 0
M  V30 31 H -1.886723 -2.730154 5.204878 0
M  V30 32 H -0.452873 -3.876539 5.060197 0
M  V30 33 H -0.189941 -2.104975 5.225475 0
M  V30 34 H 1.490041 -3.616317 4.499413 0
M  V30 35 H 3.555939 -3.904555 0.758039 0
M  V30 36 H 1.560282 -3.138834 -0.423242 0
M  V30 37 H -1.716089 -2.821397 1.255253 0
M  V30 38 H 0.273537 -0.728688 0.345026 0
M  V30 39 H -0.958541 -0.534055 1.667635 0
M  V30 40 H 1.742063 1.191703 1.616884 0
M  V30 41 H 3.718593 1.979910 2.809917 0
M  V30 42 H 3.651450 5.657297 0.731203 0
M  V30 43 H 0.192181 4.382848 -1.406004 0
M  V30 44 H -2.719119 0.422583 -2.885943 0
M  V30 45 H -3.196178 2.101145 -3.109391 0
M  V30 46 H -3.847811 1.265574 -1.655525 0
M  V30 47 H -3.134325 -1.716827 0.336342 0
M  V30 48 H -3.520295 -0.959397 -1.207357 0
M  V30 49 H -2.794542 -3.234704 -1.499507 0
M  V30 50 H -1.768824 -2.076835 -2.397320 0
M  V30 51 H -0.114700 -4.867586 -0.158229 0
M  V30 52 H -0.717451 -4.699347 -1.804749 0
M  V30 53 H -1.917979 -4.872367 -0.500071 0
M  V30 END ATOM
M  V30 BEGIN BOND
M  V30 1 1 1 2
M  V30 2 1 2 3
M  V30 3 2 3 4
M  V30 4 1 4 5
M  V30 5 1 5 6
M  V30 6 2 5 7
M  V30 7 1 7 8
M  V30 8 2 8 9
M  V30 9 1 9 10
M  V30 10 1 10 11
M  V30 11 1 11 12
M  V30 12 1 12 13
M  V30 13 2 13 14
M  V30 14 1 14 15
M  V30 15 1 15 16
M  V30 16 2 16 17
M  V30 17 1 17 18
M  V30 18 2 18 19
M  V30 19 1 19 20
M  V30 20 2 20 21
M  V30 21 2 15 22
M  V30 22 1 22 23
M  V30 23 2 23 24
M  V30 24 1 23 25
M  V30 25 1 25 26
M  V30 26 1 12 27
M  V30 27 1 27 28
M  V30 28 1 28 29
M  V30 29 1 29 30
M  V30 30 1 9 3
M  V30 31 1 29 10
M  V30 32 1 25 13
M  V30 33 1 21 16
M  V30 34 1 1 31
M  V30 35 1 1 32
M  V30 36 1 1 33
M  V30 37 1 4 34
M  V30 38 1 7 35
M  V30 39 1 8 36
M  V30 40 1 10 37
M  V30 41 1 11 38
M  V30 42 1 11 39
M  V30 43 1 17 40
M  V30 44 1 18 41
M  V30 45 1 20 42
M  V30 46 1 22 43
M  V30 47 1 26 44
M  V30 48 1 26 45
M  V30 49 1 26 46
M  V30 50 1 27 47
M  V30 51 1 27 48
M  V30 52 1 28 49
M  V30 53 1 28 50
M  V30 54 1 30 51
M  V30 55 1 30 52
M  V30 56 1 30 53
M  V30 END BOND
M  V30 END CTAB
M  END
>  <Dataset>  (156) 
ChEMBL_Kinases

>  <Ligand_Instance>  (156) 
nan

>  <PDB_ID>  (156) 
nan

>  <Standardized_SMILES>  (156) 
COc1cc(F)ccc1C1CN(c2nc(-c3ccncn3)cc(=O)n2C)CCN1C

>  <Name>  (156) 
nan

>  <Pocket>  (156) 
nan

>  <ATP_Site>  (156) 
nan

>  <Peripheral>  (156) 
nan

>  <Num_H_Atoms_ProtBoundConf>  (156) 
nan

>  <Num_Resolved_Atoms>  (156) 
nan

>  <Num_Not_Resolved_Atoms>  (156) 
nan

$$$$
CHEMBL4856439
     RDKit          3D

  0  0  0  0  0  0  0  0  0  0999 V3000
M  V30 BEGIN CTAB
M  V30 COUNTS 47 50 0 0 0
M  V30 BEGIN ATOM
M  V30 1 N -2.051844 -6.168545 0.059071 0
M  V30 2 C -0.658881 -6.293530 0.297239 0
M  V30 3 O -0.220683 -7.463029 0.445224 0
M  V30 4 C 0.252531 -5.180346 0.375726 0
M  V30 5 C 1.586506 -5.436157 0.615795 0
M  V30 6 C 2.486961 -4.371962 0.694948 0
M  V30 7 C 2.022365 -3.089143 0.531313 0
M  V30 8 C 0.710037 -2.804546 0.292864 0
M  V30 9 C 0.302896 -1.499874 0.136114 0
M  V30 10 N 1.203071 -0.377797 0.216663 0
M  V30 11 C 0.577981 0.945701 0.019664 0 CFG=2
M  V30 12 C 1.627905 1.962580 0.161604 0
M  V30 13 N 1.298746 3.333486 0.021429 0
M  V30 14 C 0.515170 4.022434 0.964324 0
M  V30 15 C 1.731425 4.115762 1.859460 0
M  V30 16 C 2.445443 4.122989 0.503753 0
M  V30 17 C -0.574797 0.982026 0.905117 0
M  V30 18 C -1.856713 1.366237 0.480874 0
M  V30 19 C -2.976500 1.407877 1.308303 0
M  V30 20 C -2.808324 1.046711 2.629531 0
M  V30 21 Cl -4.277712 1.130452 3.595443 0
M  V30 22 C -1.568629 0.662044 3.093428 0
M  V30 23 F -1.524330 0.329390 4.406754 0
M  V30 24 C -0.487586 0.633491 2.247703 0
M  V30 25 N -1.001267 -1.328464 -0.094132 0
M  V30 26 C -1.874182 -2.350356 -0.171256 0
M  V30 27 N -1.482981 -3.641199 -0.018455 0
M  V30 28 C -0.160918 -3.873741 0.218928 0
M  V30 29 H -2.768002 -6.129412 -0.703443 0
M  V30 30 H -2.541651 -6.084464 0.975958 0
M  V30 31 H 1.920463 -6.454734 0.739100 0
M  V30 32 H 3.522115 -4.618465 0.884528 0
M  V30 33 H 2.774592 -2.318949 0.605323 0
M  V30 34 H 2.223504 -0.437259 0.397692 0
M  V30 35 H 0.187828 0.991625 -1.025963 0
M  V30 36 H 2.348355 1.773265 -0.697586 0
M  V30 37 H 2.302656 1.777896 1.051885 0
M  V30 38 H -0.381407 3.620641 1.400593 0
M  V30 39 H 0.302064 5.061389 0.588440 0
M  V30 40 H 1.919805 3.231353 2.486342 0
M  V30 41 H 1.849700 5.037296 2.442764 0
M  V30 42 H 2.537397 5.125175 0.079424 0
M  V30 43 H 3.390858 3.578208 0.593777 0
M  V30 44 H -1.911053 1.640107 -0.585351 0
M  V30 45 H -3.878098 1.729984 0.796130 0
M  V30 46 H 0.441320 0.330025 2.659525 0
M  V30 47 H -2.886051 -1.980442 -0.364969 0
M  V30 END ATOM
M  V30 BEGIN BOND
M  V30 1 1 1 2
M  V30 2 2 2 3
M  V30 3 1 2 4
M  V30 4 2 4 5
M  V30 5 1 5 6
M  V30 6 2 6 7
M  V30 7 1 7 8
M  V30 8 2 8 9
M  V30 9 1 9 10
M  V30 10 1 10 11
M  V30 11 1 11 12
M  V30 12 1 12 13
M  V30 13 1 13 14
M  V30 14 1 14 15
M  V30 15 1 15 16
M  V30 16 1 11 17
M  V30 17 2 17 18
M  V30 18 1 18 19
M  V30 19 2 19 20
M  V30 20 1 20 21
M  V30 21 1 20 22
M  V30 22 1 22 23
M  V30 23 2 22 24
M  V30 24 1 9 25
M  V30 25 2 25 26
M  V30 26 1 26 27
M  V30 27 2 27 28
M  V30 28 1 28 4
M  V30 29 1 28 8
M  V30 30 1 16 13
M  V30 31 1 24 17
M  V30 32 1 1 29
M  V30 33 1 1 30
M  V30 34 1 5 31
M  V30 35 1 6 32
M  V30 36 1 7 33
M  V30 37 1 10 34
M  V30 38 1 11 35 CFG=3
M  V30 39 1 12 36
M  V30 40 1 12 37
M  V30 41 1 14 38
M  V30 42 1 14 39
M  V30 43 1 15 40
M  V30 44 1 15 41
M  V30 45 1 16 42
M  V30 46 1 16 43
M  V30 47 1 18 44
M  V30 48 1 19 45
M  V30 49 1 24 46
M  V30 50 1 26 47
M  V30 END BOND
M  V30 END CTAB
M  END
>  <Dataset>  (157) 
ChEMBL_Kinases

>  <Ligand_Instance>  (157) 
nan

>  <PDB_ID>  (157) 
nan

>  <Standardized_SMILES>  (157) 
NC(=O)c1cccc2c(N[C@H](CN3CCC3)c3ccc(Cl)c(F)c3)ncnc12

>  <Name>  (157) 
nan

>  <Pocket>  (157) 
nan

>  <ATP_Site>  (157) 
nan

>  <Peripheral>  (157) 
nan

>  <Num_H_Atoms_ProtBoundConf>  (157) 
nan

>  <Num_Resolved_Atoms>  (157) 
nan

>  <Num_Not_Resolved_Atoms>  (157) 
nan

$$$$
CHEMBL4856576
     RDKit          3D

  0  0  0  0  0  0  0  0  0  0999 V3000
M  V30 BEGIN CTAB
M  V30 COUNTS 40 43 0 0 0
M  V30 BEGIN ATOM
M  V30 1 C 3.027541 -5.807087 3.807842 0
M  V30 2 N 2.200428 -4.660301 3.435166 0
M  V30 3 C 2.812529 -4.013186 2.345501 0
M  V30 4 O 3.894748 -4.609999 2.010768 0
M  V30 5 C 2.389956 -2.835988 1.612474 0
M  V30 6 O 3.152935 -2.422904 0.600792 0
M  V30 7 C 2.610608 -1.354535 0.065739 0
M  V30 8 C 3.116301 -0.636578 -1.017444 0
M  V30 9 C 2.408549 0.450602 -1.437305 0
M  V30 10 C 1.246993 0.777869 -0.777477 0
M  V30 11 N 0.486519 1.899166 -1.220254 0
M  V30 12 C -0.621991 2.613043 -0.691067 0
M  V30 13 N -0.201705 3.764659 -0.094923 0
M  V30 14 C -1.112746 4.595325 0.480246 0
M  V30 15 N -2.448713 4.300712 0.475066 0
M  V30 16 C -2.862933 3.148008 -0.121857 0
M  V30 17 C -4.195498 2.750458 -0.177641 0
M  V30 18 C -4.503769 1.548446 -0.808273 0
M  V30 19 C -3.533276 0.745899 -1.375147 0
M  V30 20 Cl -4.124430 -0.743770 -2.127521 0
M  V30 21 N -2.220483 1.124139 -1.327930 0
M  V30 22 C -1.961657 2.282389 -0.715606 0
M  V30 23 C 0.732011 0.085264 0.291128 0
M  V30 24 C 1.452459 -1.005103 0.703241 0
M  V30 25 C 1.352156 -1.974199 1.677911 0
M  V30 26 C 0.267404 -2.096393 2.681647 0
M  V30 27 H 3.037180 -6.470568 2.894390 0
M  V30 28 H 4.047657 -5.454997 4.079245 0
M  V30 29 H 2.584291 -6.386894 4.631197 0
M  V30 30 H 1.311711 -4.238132 3.774942 0
M  V30 31 H 4.034479 -0.883462 -1.548490 0
M  V30 32 H 2.746462 1.060881 -2.281204 0
M  V30 33 H 0.725184 2.372462 -2.130144 0
M  V30 34 H -0.821188 5.536889 0.972288 0
M  V30 35 H -4.942703 3.397586 0.274959 0
M  V30 36 H -5.549070 1.276180 -0.829095 0
M  V30 37 H -0.156773 0.289899 0.841364 0
M  V30 38 H 0.655024 -1.948873 3.712387 0
M  V30 39 H -0.334747 -3.032685 2.565213 0
M  V30 40 H -0.497961 -1.292666 2.453699 0
M  V30 END ATOM
M  V30 BEGIN BOND
M  V30 1 1 1 2
M  V30 2 1 2 3
M  V30 3 2 3 4
M  V30 4 1 3 5
M  V30 5 1 5 6
M  V30 6 1 6 7
M  V30 7 2 7 8
M  V30 8 1 8 9
M  V30 9 2 9 10
M  V30 10 1 10 11
M  V30 11 1 11 12
M  V30 12 2 12 13
M  V30 13 1 13 14
M  V30 14 2 14 15
M  V30 15 1 15 16
M  V30 16 2 16 17
M  V30 17 1 17 18
M  V30 18 2 18 19
M  V30 19 1 19 20
M  V30 20 1 19 21
M  V30 21 2 21 22
M  V30 22 1 10 23
M  V30 23 2 23 24
M  V30 24 1 24 25
M  V30 25 1 25 26
M  V30 26 2 25 5
M  V30 27 1 24 7
M  V30 28 1 22 12
M  V30 29 1 22 16
M  V30 30 1 1 27
M  V30 31 1 1 28
M  V30 32 1 1 29
M  V30 33 1 2 30
M  V30 34 1 8 31
M  V30 35 1 9 32
M  V30 36 1 11 33
M  V30 37 1 14 34
M  V30 38 1 17 35
M  V30 39 1 18 36
M  V30 40 1 23 37
M  V30 41 1 26 38
M  V30 42 1 26 39
M  V30 43 1 26 40
M  V30 END BOND
M  V30 END CTAB
M  END
>  <Dataset>  (158) 
ChEMBL_Kinases

>  <Ligand_Instance>  (158) 
nan

>  <PDB_ID>  (158) 
nan

>  <Standardized_SMILES>  (158) 
CNC(=O)c1oc2ccc(Nc3ncnc4ccc(Cl)nc34)cc2c1C

>  <Name>  (158) 
nan

>  <Pocket>  (158) 
nan

>  <ATP_Site>  (158) 
nan

>  <Peripheral>  (158) 
nan

>  <Num_H_Atoms_ProtBoundConf>  (158) 
nan

>  <Num_Resolved_Atoms>  (158) 
nan

>  <Num_Not_Resolved_Atoms>  (158) 
nan

$$$$
CHEMBL4856253
     RDKit          3D

  0  0  0  0  0  0  0  0  0  0999 V3000
M  V30 BEGIN CTAB
M  V30 COUNTS 80 86 0 0 0
M  V30 BEGIN ATOM
M  V30 1 C -1.192254 -4.795992 0.154223 0
M  V30 2 C -0.542046 -5.621938 -0.676520 0
M  V30 3 C 0.939424 -5.361931 -0.616252 0
M  V30 4 N 1.150698 -4.305546 0.321886 0
M  V30 5 C 1.371403 -4.324498 1.629329 0
M  V30 6 O 1.442230 -5.368382 2.348271 0
M  V30 7 C 1.511396 -3.036777 2.085260 0
M  V30 8 C 1.749650 -2.501967 3.333464 0
M  V30 9 N 1.839313 -1.151156 3.477741 0
M  V30 10 C 1.692425 -0.350513 2.392621 0
M  V30 11 N 1.721489 1.057998 2.190811 0
M  V30 12 C 0.370445 1.345832 2.618022 0
M  V30 13 C -0.645002 1.681893 1.754263 0
M  V30 14 C -1.930360 1.973615 2.149955 0
M  V30 15 N -2.884945 2.237429 1.138173 0
M  V30 16 C -2.360503 2.834355 -0.103145 0
M  V30 17 C -2.457050 1.861713 -1.227180 0
M  V30 18 N -3.766968 1.304872 -1.344856 0
M  V30 19 C -3.670383 0.056968 -2.122523 0
M  V30 20 C -4.420742 0.960530 -0.129309 0
M  V30 21 C -4.306639 2.033959 0.961965 0
M  V30 22 C -2.146908 1.910263 3.506274 0
M  V30 23 C -3.302220 2.157452 4.208953 0
M  V30 24 C -3.077944 1.989380 5.552510 0
M  V30 25 N -1.786373 1.638146 5.689630 0
M  V30 26 C -0.989812 1.333154 6.881753 0
M  V30 27 C -1.223386 1.589306 4.471525 0
M  V30 28 C 0.053370 1.305786 3.980988 0
M  V30 29 N 1.458206 -0.907846 1.171374 0
M  V30 30 C 1.360168 -2.234346 0.965142 0
M  V30 31 N 1.137897 -3.036473 -0.118273 0
M  V30 32 C 0.959632 -2.426846 -1.399314 0
M  V30 33 C -0.171748 -2.179239 -2.146464 0
M  V30 34 C -0.030146 -1.563437 -3.373920 0
M  V30 35 C 1.226789 -1.200897 -3.846903 0
M  V30 36 C 2.349127 -1.460403 -3.076346 0
M  V30 37 N 2.162767 -2.057235 -1.897301 0
M  V30 38 C 3.476440 -0.940475 -3.893178 0 CFG=1
M  V30 39 O 3.804001 0.373089 -3.539356 0
M  V30 40 C 4.731888 -1.781436 -3.773914 0
M  V30 41 C 5.222558 -1.841123 -2.350766 0
M  V30 42 C 2.992662 -0.916033 -5.311092 0
M  V30 43 C 1.521193 -0.532134 -5.152603 0
M  V30 44 H -1.053240 -3.992679 0.869875 0
M  V30 45 H -2.223418 -4.626647 0.431078 0
M  V30 46 H -1.263566 -6.259198 -1.169383 0
M  V30 47 H 1.449121 -6.286408 -0.245770 0
M  V30 48 H 1.291296 -5.170303 -1.632426 0
M  V30 49 H 1.871490 -3.084309 4.220582 0
M  V30 50 H 2.461729 1.699005 1.849531 0
M  V30 51 H -0.280520 1.676166 0.723631 0
M  V30 52 H -1.334048 3.230195 0.027353 0
M  V30 53 H -3.000217 3.716962 -0.348453 0
M  V30 54 H -1.700876 1.049023 -1.198112 0
M  V30 55 H -2.259687 2.421004 -2.178169 0
M  V30 56 H -4.626400 -0.473933 -2.007777 0
M  V30 57 H -3.415776 0.254234 -3.187508 0
M  V30 58 H -2.886669 -0.589510 -1.634725 0
M  V30 59 H -5.482486 0.761802 -0.339241 0
M  V30 60 H -3.956050 0.046357 0.344626 0
M  V30 61 H -4.765106 2.967769 0.637273 0
M  V30 62 H -4.816103 1.588138 1.842212 0
M  V30 63 H -4.263875 2.447524 3.879427 0
M  V30 64 H -3.748386 2.095812 6.389588 0
M  V30 65 H 0.011737 1.817106 6.767932 0
M  V30 66 H -1.443277 1.798058 7.783378 0
M  V30 67 H -0.831193 0.248788 7.022857 0
M  V30 68 H 0.819874 1.042045 4.712207 0
M  V30 69 H -1.061023 -2.521187 -1.637157 0
M  V30 70 H -0.970501 -1.402782 -3.899438 0
M  V30 71 H 3.711993 0.537084 -2.582105 0
M  V30 72 H 5.518246 -1.212697 -4.351937 0
M  V30 73 H 4.642487 -2.761687 -4.256745 0
M  V30 74 H 5.168960 -0.804160 -1.957462 0
M  V30 75 H 6.279533 -2.165389 -2.354961 0
M  V30 76 H 4.564098 -2.454252 -1.701529 0
M  V30 77 H 3.543829 -0.110980 -5.849026 0
M  V30 78 H 3.128474 -1.860189 -5.837472 0
M  V30 79 H 1.460330 0.560796 -5.090079 0
M  V30 80 H 0.890893 -0.959222 -5.963181 0
M  V30 END ATOM
M  V30 BEGIN BOND
M  V30 1 2 1 2
M  V30 2 1 2 3
M  V30 3 1 3 4
M  V30 4 1 4 5
M  V30 5 2 5 6
M  V30 6 1 5 7
M  V30 7 2 7 8
M  V30 8 1 8 9
M  V30 9 2 9 10
M  V30 10 1 10 11
M  V30 11 1 11 12
M  V30 12 2 12 13
M  V30 13 1 13 14
M  V30 14 1 14 15
M  V30 15 1 15 16
M  V30 16 1 16 17
M  V30 17 1 17 18
M  V30 18 1 18 19
M  V30 19 1 18 20
M  V30 20 1 20 21
M  V30 21 2 14 22
M  V30 22 1 22 23
M  V30 23 2 23 24
M  V30 24 1 24 25
M  V30 25 1 25 26
M  V30 26 1 25 27
M  V30 27 2 27 28
M  V30 28 1 10 29
M  V30 29 2 29 30
M  V30 30 1 30 31
M  V30 31 1 31 32
M  V30 32 2 32 33
M  V30 33 1 33 34
M  V30 34 2 34 35
M  V30 35 1 35 36
M  V30 36 2 36 37
M  V30 37 1 36 38
M  V30 38 1 38 39 CFG=1
M  V30 39 1 38 40
M  V30 40 1 40 41
M  V30 41 1 38 42
M  V30 42 1 42 43
M  V30 43 1 31 4
M  V30 44 1 37 32
M  V30 45 1 30 7
M  V30 46 1 43 35
M  V30 47 1 28 12
M  V30 48 1 21 15
M  V30 49 1 27 22
M  V30 50 1 1 44
M  V30 51 1 1 45
M  V30 52 1 2 46
M  V30 53 1 3 47
M  V30 54 1 3 48
M  V30 55 1 8 49
M  V30 56 1 11 50
M  V30 57 1 13 51
M  V30 58 1 16 52
M  V30 59 1 16 53
M  V30 60 1 17 54
M  V30 61 1 17 55
M  V30 62 1 19 56
M  V30 63 1 19 57
M  V30 64 1 19 58
M  V30 65 1 20 59
M  V30 66 1 20 60
M  V30 67 1 21 61
M  V30 68 1 21 62
M  V30 69 1 23 63
M  V30 70 1 24 64
M  V30 71 1 26 65
M  V30 72 1 26 66
M  V30 73 1 26 67
M  V30 74 1 28 68
M  V30 75 1 33 69
M  V30 76 1 34 70
M  V30 77 1 39 71
M  V30 78 1 40 72
M  V30 79 1 40 73
M  V30 80 1 41 74
M  V30 81 1 41 75
M  V30 82 1 41 76
M  V30 83 1 42 77
M  V30 84 1 42 78
M  V30 85 1 43 79
M  V30 86 1 43 80
M  V30 END BOND
M  V30 END CTAB
M  END
>  <Dataset>  (159) 
ChEMBL_Kinases

>  <Ligand_Instance>  (159) 
nan

>  <PDB_ID>  (159) 
nan

>  <Standardized_SMILES>  (159) 
C=CCn1c(=O)c2cnc(Nc3cc(N4CCN(C)CC4)c4ccn(C)c4c3)nc2n1-c1ccc2c(n1)[C@@](O)(CC)CC2

>  <Name>  (159) 
nan

>  <Pocket>  (159) 
nan

>  <ATP_Site>  (159) 
nan

>  <Peripheral>  (159) 
nan

>  <Num_H_Atoms_ProtBoundConf>  (159) 
nan

>  <Num_Resolved_Atoms>  (159) 
nan

>  <Num_Not_Resolved_Atoms>  (159) 
nan

$$$$
CHEMBL4077499
     RDKit          3D

  0  0  0  0  0  0  0  0  0  0999 V3000
M  V30 BEGIN CTAB
M  V30 COUNTS 30 32 0 0 0
M  V30 BEGIN ATOM
M  V30 1 O 2.948135 -5.708316 -0.163149 0
M  V30 2 C 2.825047 -4.728406 0.631480 0
M  V30 3 N 3.517298 -4.539223 1.825824 0
M  V30 4 C 3.225676 -3.352483 2.579579 0
M  V30 5 S 3.477351 -3.164180 4.178180 0
M  V30 6 S 2.558720 -2.269710 1.285172 0
M  V30 7 C 1.874316 -3.646997 0.323433 0
M  V30 8 C 0.775921 -3.574973 -0.412343 0
M  V30 9 C -0.041677 -2.357554 -0.587676 0
M  V30 10 C -0.967867 -2.421880 -1.620405 0
M  V30 11 S -1.720564 -0.725368 -1.449240 0
M  V30 12 C -0.603123 -0.269364 0.009250 0
M  V30 13 C -0.566881 0.954123 0.777467 0
M  V30 14 C 0.438144 1.079106 1.718863 0
M  V30 15 C 0.491920 2.212304 2.479533 0
M  V30 16 C -0.363294 3.271427 2.413774 0
M  V30 17 C -1.368832 3.122436 1.455746 0
M  V30 18 C -1.477827 1.983516 0.644801 0
M  V30 19 C -2.590370 1.936126 -0.314402 0
M  V30 20 F -2.261292 1.877700 -1.632870 0
M  V30 21 F -3.344522 3.110899 -0.165967 0
M  V30 22 F -3.443518 0.845605 -0.023420 0
M  V30 23 N 0.152444 -1.338794 0.206242 0
M  V30 24 H 4.238183 -5.251380 2.180262 0
M  V30 25 H 0.583444 -4.520325 -0.845457 0
M  V30 26 H -1.217649 -3.181918 -2.325976 0
M  V30 27 H 1.155303 0.291708 1.836118 0
M  V30 28 H 1.302776 2.245202 3.198433 0
M  V30 29 H -0.317717 4.172368 3.022414 0
M  V30 30 H -2.076669 3.931211 1.357238 0
M  V30 END ATOM
M  V30 BEGIN BOND
M  V30 1 2 1 2
M  V30 2 1 2 3
M  V30 3 1 3 4
M  V30 4 2 4 5
M  V30 5 1 4 6
M  V30 6 1 6 7
M  V30 7 2 7 8
M  V30 8 1 8 9
M  V30 9 2 9 10
M  V30 10 1 10 11
M  V30 11 1 11 12
M  V30 12 1 12 13
M  V30 13 2 13 14
M  V30 14 1 14 15
M  V30 15 2 15 16
M  V30 16 1 16 17
M  V30 17 2 17 18
M  V30 18 1 18 19
M  V30 19 1 19 20
M  V30 20 1 19 21
M  V30 21 1 19 22
M  V30 22 2 12 23
M  V30 23 1 7 2
M  V30 24 1 23 9
M  V30 25 1 18 13
M  V30 26 1 3 24
M  V30 27 1 8 25
M  V30 28 1 10 26
M  V30 29 1 14 27
M  V30 30 1 15 28
M  V30 31 1 16 29
M  V30 32 1 17 30
M  V30 END BOND
M  V30 END CTAB
M  END
>  <Dataset>  (160) 
ChEMBL_Kinases

>  <Ligand_Instance>  (160) 
nan

>  <PDB_ID>  (160) 
nan

>  <Standardized_SMILES>  (160) 
O=C1NC(=S)S/C1=C\c1csc(-c2ccccc2C(F)(F)F)n1

>  <Name>  (160) 
nan

>  <Pocket>  (160) 
nan

>  <ATP_Site>  (160) 
nan

>  <Peripheral>  (160) 
nan

>  <Num_H_Atoms_ProtBoundConf>  (160) 
nan

>  <Num_Resolved_Atoms>  (160) 
nan

>  <Num_Not_Resolved_Atoms>  (160) 
nan

$$$$
CHEMBL4077459
     RDKit          3D

  0  0  0  0  0  0  0  0  0  0999 V3000
M  V30 BEGIN CTAB
M  V30 COUNTS 63 67 0 0 0
M  V30 BEGIN ATOM
M  V30 1 O 1.290743 0.569837 2.657309 0
M  V30 2 C 1.597280 0.605959 1.419078 0
M  V30 3 N 2.963019 0.247248 1.278285 0
M  V30 4 C 3.571183 -0.039454 2.549468 0
M  V30 5 C 5.027448 -0.422031 2.400558 0
M  V30 6 C 5.252612 -1.614025 1.573355 0
M  V30 7 C 5.253034 -2.841449 2.246097 0
M  V30 8 C 5.454695 -4.027517 1.582469 0
M  V30 9 N 5.658970 -4.068594 0.271075 0
M  V30 10 C 5.666379 -2.893215 -0.423613 0
M  V30 11 C 5.467173 -1.685723 0.212205 0
M  V30 12 C 0.657252 0.961049 0.396476 0
M  V30 13 C -0.637335 1.258878 0.832671 0
M  V30 14 C -1.645946 1.614969 -0.017107 0
M  V30 15 C -2.988598 1.919460 0.509597 0 CFG=2
M  V30 16 C -2.935274 3.029290 1.562572 0
M  V30 17 C -4.377763 3.389523 1.852498 0
M  V30 18 N -5.299681 2.586050 1.112916 0
M  V30 19 C -5.165193 1.172533 1.321646 0
M  V30 20 C -3.727671 0.775995 1.102269 0 CFG=1
M  V30 21 C -3.600990 -0.528416 0.370644 0
M  V30 22 O -2.264631 -0.913803 0.331659 0
M  V30 23 C -1.807382 -2.079232 -0.273072 0
M  V30 24 C -0.500052 -2.505868 -0.336143 0
M  V30 25 C -0.109364 -3.673800 -0.952399 0
M  V30 26 C -1.054006 -4.473397 -1.542659 0
M  V30 27 C -2.394425 -4.098634 -1.514292 0
M  V30 28 C -2.731372 -2.916300 -0.882171 0
M  V30 29 O -3.100475 -5.090497 -2.182188 0
M  V30 30 C -2.197494 -6.007588 -2.781240 0
M  V30 31 O -0.950758 -5.668997 -2.214710 0
M  V30 32 C -1.401269 1.692191 -1.380124 0
M  V30 33 C -0.149616 1.411618 -1.874793 0
M  V30 34 C 0.821238 1.059166 -0.965209 0
M  V30 35 F 2.062737 0.777630 -1.419358 0
M  V30 36 H 3.359003 0.229897 0.313938 0
M  V30 37 H 3.043850 -0.882060 3.020504 0
M  V30 38 H 3.574051 0.864479 3.214283 0
M  V30 39 H 5.426096 -0.593108 3.426018 0
M  V30 40 H 5.590431 0.419395 1.944642 0
M  V30 41 H 5.101303 -2.970624 3.310644 0
M  V30 42 H 5.460052 -4.998139 2.083745 0
M  V30 43 H 5.828932 -2.849926 -1.509320 0
M  V30 44 H 5.464730 -0.736762 -0.294357 0
M  V30 45 H -0.884330 1.214035 1.894160 0
M  V30 46 H -3.623500 2.317112 -0.333903 0
M  V30 47 H -2.349537 3.891428 1.196751 0
M  V30 48 H -2.491608 2.554494 2.463484 0
M  V30 49 H -4.569069 4.445244 1.619591 0
M  V30 50 H -4.623236 3.216451 2.940520 0
M  V30 51 H -5.518487 2.888062 0.159341 0
M  V30 52 H -5.575634 0.840695 2.299120 0
M  V30 53 H -5.740707 0.689874 0.478294 0
M  V30 54 H -3.306887 0.593312 2.134557 0
M  V30 55 H -3.904691 -0.356577 -0.704062 0
M  V30 56 H -4.298144 -1.279884 0.742002 0
M  V30 57 H 0.247332 -1.883410 0.126369 0
M  V30 58 H 0.952367 -3.948255 -0.962445 0
M  V30 59 H -3.789662 -2.703305 -0.905580 0
M  V30 60 H -2.481543 -7.057304 -2.564749 0
M  V30 61 H -2.168981 -5.789309 -3.881934 0
M  V30 62 H -2.190983 1.976332 -2.090937 0
M  V30 63 H 0.108916 1.452429 -2.924154 0
M  V30 END ATOM
M  V30 BEGIN BOND
M  V30 1 2 1 2
M  V30 2 1 2 3
M  V30 3 1 3 4
M  V30 4 1 4 5
M  V30 5 1 5 6
M  V30 6 2 6 7
M  V30 7 1 7 8
M  V30 8 2 8 9
M  V30 9 1 9 10
M  V30 10 2 10 11
M  V30 11 1 2 12
M  V30 12 2 12 13
M  V30 13 1 13 14
M  V30 14 1 14 15
M  V30 15 1 15 16
M  V30 16 1 16 17
M  V30 17 1 17 18
M  V30 18 1 18 19
M  V30 19 1 19 20
M  V30 20 1 20 21
M  V30 21 1 21 22
M  V30 22 1 22 23
M  V30 23 2 23 24
M  V30 24 1 24 25
M  V30 25 2 25 26
M  V30 26 1 26 27
M  V30 27 2 27 28
M  V30 28 1 27 29
M  V30 29 1 29 30
M  V30 30 1 30 31
M  V30 31 2 14 32
M  V30 32 1 32 33
M  V30 33 2 33 34
M  V30 34 1 34 35
M  V30 35 1 11 6
M  V30 36 1 34 12
M  V30 37 1 20 15
M  V30 38 1 28 23
M  V30 39 1 31 26
M  V30 40 1 3 36
M  V30 41 1 4 37
M  V30 42 1 4 38
M  V30 43 1 5 39
M  V30 44 1 5 40
M  V30 45 1 7 41
M  V30 46 1 8 42
M  V30 47 1 10 43
M  V30 48 1 11 44
M  V30 49 1 13 45
M  V30 50 1 15 46 CFG=3
M  V30 51 1 16 47
M  V30 52 1 16 48
M  V30 53 1 17 49
M  V30 54 1 17 50
M  V30 55 1 18 51
M  V30 56 1 19 52
M  V30 57 1 19 53
M  V30 58 1 20 54 CFG=1
M  V30 59 1 21 55
M  V30 60 1 21 56
M  V30 61 1 24 57
M  V30 62 1 25 58
M  V30 63 1 28 59
M  V30 64 1 30 60
M  V30 65 1 30 61
M  V30 66 1 32 62
M  V30 67 1 33 63
M  V30 END BOND
M  V30 END CTAB
M  END
>  <Dataset>  (161) 
ChEMBL_Kinases

>  <Ligand_Instance>  (161) 
nan

>  <PDB_ID>  (161) 
nan

>  <Standardized_SMILES>  (161) 
O=C(NCCc1ccncc1)c1cc([C@@H]2CCNC[C@H]2COc2ccc3c(c2)OCO3)ccc1F

>  <Name>  (161) 
nan

>  <Pocket>  (161) 
nan

>  <ATP_Site>  (161) 
nan

>  <Peripheral>  (161) 
nan

>  <Num_H_Atoms_ProtBoundConf>  (161) 
nan

>  <Num_Resolved_Atoms>  (161) 
nan

>  <Num_Not_Resolved_Atoms>  (161) 
nan

$$$$
CHEMBL485598
     RDKit          3D

  0  0  0  0  0  0  0  0  0  0999 V3000
M  V30 BEGIN CTAB
M  V30 COUNTS 54 58 0 0 0
M  V30 BEGIN ATOM
M  V30 1 C 0.049467 0.512940 3.507106 0
M  V30 2 C -0.418008 -0.480456 2.510249 0
M  V30 3 C 0.356202 -0.667425 1.463557 0
M  V30 4 C 1.614117 -0.088073 1.065257 0
M  V30 5 O 2.231726 -0.387543 0.006983 0
M  V30 6 N 2.555020 0.860190 1.528948 0
M  V30 7 C 3.685369 1.059372 0.694296 0
M  V30 8 C 4.878727 0.361752 0.765715 0
M  V30 9 C 5.913876 0.642413 -0.101781 0
M  V30 10 C 5.805119 1.618555 -1.065831 0
M  V30 11 N 6.663038 2.069477 -2.013887 0
M  V30 12 N 6.045400 3.025923 -2.675577 0
M  V30 13 C 4.804286 3.209437 -2.181109 0
M  V30 14 C 4.620040 2.319410 -1.145224 0
M  V30 15 C 3.566927 2.053293 -0.283042 0
M  V30 16 C -0.110515 -1.668882 0.447037 0
M  V30 17 C -0.385985 -0.994917 -0.878507 0
M  V30 18 C -1.511263 -0.178133 -0.779093 0
M  V30 19 C -1.989950 0.555959 -1.871150 0
M  V30 20 C -1.312610 0.451649 -3.067448 0
M  V30 21 F -1.733348 1.141089 -4.156235 0
M  V30 22 C -0.203746 -0.358906 -3.149577 0
M  V30 23 C 0.276260 -1.085650 -2.082780 0
M  V30 24 N -1.349638 -2.267909 0.828026 0
M  V30 25 C -2.086101 -2.087770 1.830003 0
M  V30 26 C -3.325085 -2.843188 1.982863 0
M  V30 27 C -3.671987 -3.757242 1.008271 0
M  V30 28 C -4.841078 -4.481933 1.135318 0
M  V30 29 C -5.675000 -4.295366 2.244706 0
M  V30 30 C -6.951870 -5.021396 2.478350 0
M  V30 31 F -8.051465 -4.177505 2.297884 0
M  V30 32 F -7.014441 -5.453074 3.788890 0
M  V30 33 F -7.061994 -6.078063 1.594626 0
M  V30 34 N -5.285956 -3.381912 3.176010 0
M  V30 35 C -4.151703 -2.664294 3.073785 0
M  V30 36 N -1.645729 -1.141430 2.772298 0
M  V30 37 H -0.766163 0.663413 4.274585 0
M  V30 38 H 0.080190 1.484329 2.975419 0
M  V30 39 H 0.978699 0.220358 3.985762 0
M  V30 40 H 2.270260 1.280357 2.438599 0
M  V30 41 H 4.936542 -0.403043 1.536219 0
M  V30 42 H 6.828644 0.059389 0.003615 0
M  V30 43 H 7.630280 1.740973 -2.204614 0
M  V30 44 H 4.087168 3.928960 -2.539143 0
M  V30 45 H 2.674692 2.648026 -0.413198 0
M  V30 46 H 0.682271 -2.419198 0.354824 0
M  V30 47 H -2.125855 -0.020311 0.120987 0
M  V30 48 H -2.860596 1.194282 -1.812848 0
M  V30 49 H 0.360694 -0.475218 -4.060297 0
M  V30 50 H 1.120366 -1.748406 -2.041532 0
M  V30 51 H -3.029075 -3.903088 0.150087 0
M  V30 52 H -5.167653 -5.209139 0.410860 0
M  V30 53 H -3.916721 -1.959257 3.858331 0
M  V30 54 H -2.180889 -0.926272 3.622111 0
M  V30 END ATOM
M  V30 BEGIN BOND
M  V30 1 1 1 2
M  V30 2 2 2 3
M  V30 3 1 3 4
M  V30 4 2 4 5
M  V30 5 1 4 6
M  V30 6 1 6 7
M  V30 7 2 7 8
M  V30 8 1 8 9
M  V30 9 2 9 10
M  V30 10 1 10 11
M  V30 11 1 11 12
M  V30 12 2 12 13
M  V30 13 1 13 14
M  V30 14 2 14 15
M  V30 15 1 3 16
M  V30 16 1 16 17
M  V30 17 2 17 18
M  V30 18 1 18 19
M  V30 19 2 19 20
M  V30 20 1 20 21
M  V30 21 1 20 22
M  V30 22 2 22 23
M  V30 23 1 16 24
M  V30 24 2 24 25
M  V30 25 1 25 26
M  V30 26 2 26 27
M  V30 27 1 27 28
M  V30 28 2 28 29
M  V30 29 1 29 30
M  V30 30 1 30 31
M  V30 31 1 30 32
M  V30 32 1 30 33
M  V30 33 1 29 34
M  V30 34 2 34 35
M  V30 35 1 25 36
M  V30 36 1 36 2
M  V30 37 1 15 7
M  V30 38 1 23 17
M  V30 39 1 35 26
M  V30 40 1 14 10
M  V30 41 1 1 37
M  V30 42 1 1 38
M  V30 43 1 1 39
M  V30 44 1 6 40
M  V30 45 1 8 41
M  V30 46 1 9 42
M  V30 47 1 11 43
M  V30 48 1 13 44
M  V30 49 1 15 45
M  V30 50 1 16 46
M  V30 51 1 18 47
M  V30 52 1 19 48
M  V30 53 1 22 49
M  V30 54 1 23 50
M  V30 55 1 27 51
M  V30 56 1 28 52
M  V30 57 1 35 53
M  V30 58 1 36 54
M  V30 END BOND
M  V30 END CTAB
M  END
>  <Dataset>  (162) 
ChEMBL_Kinases

>  <Ligand_Instance>  (162) 
nan

>  <PDB_ID>  (162) 
nan

>  <Standardized_SMILES>  (162) 
CC1=C(C(=O)Nc2ccc3[nH]ncc3c2)C(c2ccc(F)cc2)N=C(c2ccc(C(F)(F)F)nc2)N1

>  <Name>  (162) 
GSK-317354A

>  <Pocket>  (162) 
nan

>  <ATP_Site>  (162) 
nan

>  <Peripheral>  (162) 
nan

>  <Num_H_Atoms_ProtBoundConf>  (162) 
nan

>  <Num_Resolved_Atoms>  (162) 
nan

>  <Num_Not_Resolved_Atoms>  (162) 
nan

$$$$
CHEMBL4077412
     RDKit          3D

  0  0  0  0  0  0  0  0  0  0999 V3000
M  V30 BEGIN CTAB
M  V30 COUNTS 53 57 0 0 0
M  V30 BEGIN ATOM
M  V30 1 N 7.299335 -1.989599 -3.333176 0
M  V30 2 C 6.824600 -1.121595 -2.331864 0
M  V30 3 O 7.829228 -0.395377 -2.534861 0
M  V30 4 C 5.600481 -1.372752 -1.609468 0
M  V30 5 C 4.986418 -2.594767 -1.740318 0
M  V30 6 C 3.815656 -2.731890 -1.036002 0
M  V30 7 C 3.295731 -1.696663 -0.246423 0
M  V30 8 C 3.958020 -0.496864 -0.157956 0
M  V30 9 C 5.154701 -0.301762 -0.853526 0
M  V30 10 C 3.614115 0.734895 0.570385 0
M  V30 11 O 4.526444 1.566679 0.733634 0
M  V30 12 C 2.253839 0.961995 1.077006 0
M  V30 13 C 2.088577 2.334557 1.278321 0
M  V30 14 C 0.880996 2.795709 1.742340 0
M  V30 15 C -0.178500 1.949599 2.019444 0
M  V30 16 N -1.396201 2.456160 2.494550 0
M  V30 17 C -2.735201 1.984028 2.519178 0
M  V30 18 C -3.662835 2.479776 3.424588 0
M  V30 19 C -4.962983 2.038465 3.449880 0
M  V30 20 C -5.389274 1.075021 2.564364 0
M  V30 21 F -6.682917 0.640660 2.600900 0
M  V30 22 C -4.509717 0.542829 1.635826 0
M  V30 23 N -4.944286 -0.473209 0.702174 0
M  V30 24 C -4.708558 -1.706500 1.336259 0
M  V30 25 O -4.207662 -1.655640 2.492759 0
M  V30 26 C -5.026644 -2.997550 0.692358 0
M  V30 27 C -4.838399 -4.198662 1.213662 0
M  V30 28 C -5.179523 -5.321881 0.505881 0
M  V30 29 C -5.725885 -5.108219 -0.773210 0
M  V30 30 S -5.723488 -3.206312 -0.903563 0
M  V30 31 C -3.219532 1.024620 1.657240 0
M  V30 32 C 0.025639 0.605969 1.809016 0
M  V30 33 C 1.222251 0.085264 1.341297 0
M  V30 34 O 1.347286 -1.270840 1.154752 0
M  V30 35 C 2.052894 -2.153680 0.368561 0
M  V30 36 H 7.713971 -2.651750 -4.011877 0
M  V30 37 H 6.961567 -2.201764 -4.310308 0
M  V30 38 H 5.407564 -3.373981 -2.354307 0
M  V30 39 H 3.313784 -3.688551 -1.118410 0
M  V30 40 H 5.710797 0.605480 -0.822944 0
M  V30 41 H 2.901879 2.997804 1.072062 0
M  V30 42 H 0.770894 3.862569 1.891655 0
M  V30 43 H -1.309803 3.423171 2.943609 0
M  V30 44 H -3.350137 3.241034 4.133718 0
M  V30 45 H -5.642587 2.474345 4.192321 0
M  V30 46 H -5.366215 -0.431459 -0.275535 0
M  V30 47 H -4.405368 -4.334667 2.222401 0
M  V30 48 H -5.081310 -6.354678 0.810454 0
M  V30 49 H -6.065981 -5.891551 -1.507995 0
M  V30 50 H -2.601820 0.567215 0.895681 0
M  V30 51 H -0.692938 -0.152654 1.997768 0
M  V30 52 H 2.246312 -3.111651 0.933347 0
M  V30 53 H 1.390851 -2.475356 -0.488042 0
M  V30 END ATOM
M  V30 BEGIN BOND
M  V30 1 1 1 2
M  V30 2 2 2 3
M  V30 3 1 2 4
M  V30 4 2 4 5
M  V30 5 1 5 6
M  V30 6 2 6 7
M  V30 7 1 7 8
M  V30 8 2 8 9
M  V30 9 1 8 10
M  V30 10 2 10 11
M  V30 11 1 10 12
M  V30 12 2 12 13
M  V30 13 1 13 14
M  V30 14 2 14 15
M  V30 15 1 15 16
M  V30 16 1 16 17
M  V30 17 2 17 18
M  V30 18 1 18 19
M  V30 19 2 19 20
M  V30 20 1 20 21
M  V30 21 1 20 22
M  V30 22 1 22 23
M  V30 23 1 23 24
M  V30 24 2 24 25
M  V30 25 1 24 26
M  V30 26 2 26 27
M  V30 27 1 27 28
M  V30 28 2 28 29
M  V30 29 1 29 30
M  V30 30 2 22 31
M  V30 31 1 15 32
M  V30 32 2 32 33
M  V30 33 1 33 34
M  V30 34 1 34 35
M  V30 35 1 9 4
M  V30 36 1 33 12
M  V30 37 1 35 7
M  V30 38 1 31 17
M  V30 39 1 30 26
M  V30 40 1 1 36
M  V30 41 1 1 37
M  V30 42 1 5 38
M  V30 43 1 6 39
M  V30 44 1 9 40
M  V30 45 1 13 41
M  V30 46 1 14 42
M  V30 47 1 16 43
M  V30 48 1 18 44
M  V30 49 1 19 45
M  V30 50 1 23 46
M  V30 51 1 27 47
M  V30 52 1 28 48
M  V30 53 1 29 49
M  V30 54 1 31 50
M  V30 55 1 32 51
M  V30 56 1 35 52
M  V30 57 1 35 53
M  V30 END BOND
M  V30 END CTAB
M  END
>  <Dataset>  (163) 
ChEMBL_Kinases

>  <Ligand_Instance>  (163) 
nan

>  <PDB_ID>  (163) 
nan

>  <Standardized_SMILES>  (163) 
NC(=O)c1ccc2c(c1)C(=O)c1ccc(Nc3ccc(F)c(NC(=O)c4cccs4)c3)cc1OC2

>  <Name>  (163) 
nan

>  <Pocket>  (163) 
nan

>  <ATP_Site>  (163) 
nan

>  <Peripheral>  (163) 
nan

>  <Num_H_Atoms_ProtBoundConf>  (163) 
nan

>  <Num_Resolved_Atoms>  (163) 
nan

>  <Num_Not_Resolved_Atoms>  (163) 
nan

$$$$
CHEMBL4077376
     RDKit          3D

  0  0  0  0  0  0  0  0  0  0999 V3000
M  V30 BEGIN CTAB
M  V30 COUNTS 49 52 0 0 0
M  V30 BEGIN ATOM
M  V30 1 C -0.196041 1.380790 -1.534478 0
M  V30 2 C -0.050664 0.613245 -0.258937 0 CFG=2
M  V30 3 C 0.863559 1.312094 0.703845 0
M  V30 4 N 2.165888 0.684850 0.786998 0
M  V30 5 C 3.100833 0.482692 1.807610 0
M  V30 6 C 4.335981 1.086644 1.609862 0
M  V30 7 C 5.368903 0.982059 2.535322 0
M  V30 8 C 5.165732 0.257126 3.686027 0
M  V30 9 C 3.951630 -0.357973 3.918458 0
M  V30 10 C 2.942138 -0.243430 2.992509 0
M  V30 11 F 1.734352 -0.814604 3.150848 0
M  V30 12 C 2.442207 0.198480 -0.541757 0
M  V30 13 C 1.603061 -1.021890 -0.862778 0
M  V30 14 N 0.253255 -0.793750 -0.435003 0
M  V30 15 C -0.817452 -1.732645 -0.169018 0
M  V30 16 N -1.977355 -1.203678 0.272648 0
M  V30 17 C -3.039979 -1.953204 0.552890 0
M  V30 18 C -4.250834 -1.284714 1.024259 0
M  V30 19 C -4.254791 0.105714 1.168112 0
M  V30 20 C -5.447516 0.631076 1.613361 0
M  V30 21 N -6.547789 -0.082076 1.901469 0
M  V30 22 C -6.493833 -1.414767 1.747414 0
M  V30 23 N -5.357397 -2.034643 1.310723 0
M  V30 24 C -3.022669 -3.304283 0.411227 0
M  V30 25 C -1.833072 -3.814892 -0.038484 0
M  V30 26 O -1.766505 -5.081876 -0.188141 0
M  V30 27 N -0.733451 -3.055079 -0.330572 0
M  V30 28 C 0.454343 -3.703619 -0.798172 0
M  V30 29 H -1.257070 1.734542 -1.715551 0
M  V30 30 H 0.371018 2.339529 -1.450576 0
M  V30 31 H 0.195551 0.867420 -2.439074 0
M  V30 32 H -1.067847 0.656433 0.234899 0
M  V30 33 H 1.016514 2.337384 0.313265 0
M  V30 34 H 0.459194 1.331578 1.744725 0
M  V30 35 H 4.571545 1.674528 0.730077 0
M  V30 36 H 6.319091 1.465688 2.352305 0
M  V30 37 H 5.957473 0.154187 4.436568 0
M  V30 38 H 3.753667 -0.936679 4.811100 0
M  V30 39 H 3.499733 -0.136790 -0.655234 0
M  V30 40 H 2.309783 0.965972 -1.339671 0
M  V30 41 H 1.689562 -1.131756 -1.975113 0
M  V30 42 H 2.120974 -1.850134 -0.318305 0
M  V30 43 H -3.384842 0.707390 0.944812 0
M  V30 44 H -5.477872 1.722079 1.735019 0
M  V30 45 H -7.415974 -1.922309 1.998102 0
M  V30 46 H -3.872866 -3.931334 0.633985 0
M  V30 47 H 1.191557 -3.947318 -0.001815 0
M  V30 48 H 0.906552 -3.300211 -1.701660 0
M  V30 49 H 0.114624 -4.745296 -1.128497 0
M  V30 END ATOM
M  V30 BEGIN BOND
M  V30 1 1 1 2
M  V30 2 1 2 3
M  V30 3 1 3 4
M  V30 4 1 4 5
M  V30 5 2 5 6
M  V30 6 1 6 7
M  V30 7 2 7 8
M  V30 8 1 8 9
M  V30 9 2 9 10
M  V30 10 1 10 11
M  V30 11 1 4 12
M  V30 12 1 12 13
M  V30 13 1 13 14
M  V30 14 1 14 15
M  V30 15 2 15 16
M  V30 16 1 16 17
M  V30 17 1 17 18
M  V30 18 2 18 19
M  V30 19 1 19 20
M  V30 20 2 20 21
M  V30 21 1 21 22
M  V30 22 2 22 23
M  V30 23 2 17 24
M  V30 24 1 24 25
M  V30 25 2 25 26
M  V30 26 1 25 27
M  V30 27 1 27 28
M  V30 28 1 14 2
M  V30 29 1 27 15
M  V30 30 1 10 5
M  V30 31 1 23 18
M  V30 32 1 1 29
M  V30 33 1 1 30
M  V30 34 1 1 31
M  V30 35 1 2 32 CFG=1
M  V30 36 1 3 33
M  V30 37 1 3 34
M  V30 38 1 6 35
M  V30 39 1 7 36
M  V30 40 1 8 37
M  V30 41 1 9 38
M  V30 42 1 12 39
M  V30 43 1 12 40
M  V30 44 1 13 41
M  V30 45 1 13 42
M  V30 46 1 19 43
M  V30 47 1 20 44
M  V30 48 1 22 45
M  V30 49 1 24 46
M  V30 50 1 28 47
M  V30 51 1 28 48
M  V30 52 1 28 49
M  V30 END BOND
M  V30 END CTAB
M  END
>  <Dataset>  (164) 
ChEMBL_Kinases

>  <Ligand_Instance>  (164) 
nan

>  <PDB_ID>  (164) 
nan

>  <Standardized_SMILES>  (164) 
C[C@@H]1CN(c2ccccc2F)CCN1c1nc(-c2ccncn2)cc(=O)n1C

>  <Name>  (164) 
nan

>  <Pocket>  (164) 
nan

>  <ATP_Site>  (164) 
nan

>  <Peripheral>  (164) 
nan

>  <Num_H_Atoms_ProtBoundConf>  (164) 
nan

>  <Num_Resolved_Atoms>  (164) 
nan

>  <Num_Not_Resolved_Atoms>  (164) 
nan

$$$$
CHEMBL4077350
     RDKit          3D

  0  0  0  0  0  0  0  0  0  0999 V3000
M  V30 BEGIN CTAB
M  V30 COUNTS 56 59 0 0 0
M  V30 BEGIN ATOM
M  V30 1 C 0.979646 0.295314 3.956310 0
M  V30 2 O 1.236939 0.060969 2.586927 0
M  V30 3 C 2.428066 -0.490168 2.209946 0
M  V30 4 C 3.386479 -0.817073 3.171204 0
M  V30 5 C 4.586411 -1.373387 2.793019 0
M  V30 6 F 5.424760 -1.640824 3.818799 0
M  V30 7 C 4.823079 -1.599950 1.463802 0
M  V30 8 C 3.870519 -1.273414 0.530390 0
M  V30 9 C 2.625373 -0.703477 0.836553 0
M  V30 10 C 1.715690 -0.360733 -0.230226 0
M  V30 11 C 0.273592 -0.406319 -0.069352 0
M  V30 12 N -0.406127 -1.679479 -0.155141 0
M  V30 13 C -1.784844 -1.460309 0.119692 0
M  V30 14 N -2.204281 -0.182620 0.181359 0
M  V30 15 C -3.498423 0.178651 0.438627 0
M  V30 16 C -3.819721 1.594055 0.481862 0
M  V30 17 C -2.872863 2.568541 0.275596 0
M  V30 18 C -3.087862 3.927030 0.300238 0
M  V30 19 N -4.364809 4.340524 0.554605 0
M  V30 20 C -5.341949 3.448814 0.766028 0
M  V30 21 C -5.084472 2.070965 0.732550 0
M  V30 22 C -4.392998 -0.830337 0.640954 0
M  V30 23 C -3.955389 -2.129802 0.577423 0
M  V30 24 O -4.846896 -3.021832 0.778881 0
M  V30 25 N -2.653889 -2.466518 0.317738 0
M  V30 26 C -2.301614 -3.840380 0.297439 0
M  V30 27 C 0.314039 -2.843704 -0.498989 0
M  V30 28 C 1.752643 -2.695877 -0.884443 0
M  V30 29 N 2.005397 -1.341096 -1.306010 0
M  V30 30 C 2.468089 -0.933683 -2.564950 0
M  V30 31 C 2.750167 -1.941457 -3.614805 0
M  V30 32 O 2.648121 0.303346 -2.811741 0
M  V30 33 H -0.078237 0.570341 4.141279 0
M  V30 34 H 1.121954 -0.668318 4.520390 0
M  V30 35 H 1.716493 1.011400 4.363012 0
M  V30 36 H 3.132726 -0.609858 4.216842 0
M  V30 37 H 5.769777 -2.032897 1.217230 0
M  V30 38 H 4.200858 -1.507709 -0.497210 0
M  V30 39 H 2.006396 0.628389 -0.634881 0
M  V30 40 H -0.143812 0.147687 -0.982737 0
M  V30 41 H -0.132317 0.259861 0.751891 0
M  V30 42 H -1.834415 2.274329 0.069011 0
M  V30 43 H -2.292209 4.642030 0.128338 0
M  V30 44 H -6.361431 3.797931 0.969383 0
M  V30 45 H -5.892617 1.375041 0.908062 0
M  V30 46 H -5.414978 -0.600020 0.845636 0
M  V30 47 H -3.263080 -4.428434 0.529269 0
M  V30 48 H -2.015813 -4.291663 -0.652047 0
M  V30 49 H -1.690601 -4.180670 1.188351 0
M  V30 50 H -0.119253 -3.368949 -1.408809 0
M  V30 51 H 0.331324 -3.506822 0.398077 0
M  V30 52 H 2.016717 -3.324946 -1.776236 0
M  V30 53 H 2.445425 -3.071957 -0.100314 0
M  V30 54 H 3.671871 -2.527307 -3.433923 0
M  V30 55 H 2.850196 -1.460536 -4.626079 0
M  V30 56 H 1.925657 -2.688559 -3.705973 0
M  V30 END ATOM
M  V30 BEGIN BOND
M  V30 1 1 1 2
M  V30 2 1 2 3
M  V30 3 2 3 4
M  V30 4 1 4 5
M  V30 5 1 5 6
M  V30 6 2 5 7
M  V30 7 1 7 8
M  V30 8 2 8 9
M  V30 9 1 9 10
M  V30 10 1 10 11
M  V30 11 1 11 12
M  V30 12 1 12 13
M  V30 13 2 13 14
M  V30 14 1 14 15
M  V30 15 1 15 16
M  V30 16 2 16 17
M  V30 17 1 17 18
M  V30 18 2 18 19
M  V30 19 1 19 20
M  V30 20 2 20 21
M  V30 21 2 15 22
M  V30 22 1 22 23
M  V30 23 2 23 24
M  V30 24 1 23 25
M  V30 25 1 25 26
M  V30 26 1 12 27
M  V30 27 1 27 28
M  V30 28 1 28 29
M  V30 29 1 29 30
M  V30 30 1 30 31
M  V30 31 2 30 32
M  V30 32 1 9 3
M  V30 33 1 29 10
M  V30 34 1 25 13
M  V30 35 1 21 16
M  V30 36 1 1 33
M  V30 37 1 1 34
M  V30 38 1 1 35
M  V30 39 1 4 36
M  V30 40 1 7 37
M  V30 41 1 8 38
M  V30 42 1 10 39
M  V30 43 1 11 40
M  V30 44 1 11 41
M  V30 45 1 17 42
M  V30 46 1 18 43
M  V30 47 1 20 44
M  V30 48 1 21 45
M  V30 49 1 22 46
M  V30 50 1 26 47
M  V30 51 1 26 48
M  V30 52 1 26 49
M  V30 53 1 27 50
M  V30 54 1 27 51
M  V30 55 1 28 52
M  V30 56 1 28 53
M  V30 57 1 31 54
M  V30 58 1 31 55
M  V30 59 1 31 56
M  V30 END BOND
M  V30 END CTAB
M  END
>  <Dataset>  (165) 
ChEMBL_Kinases

>  <Ligand_Instance>  (165) 
nan

>  <PDB_ID>  (165) 
nan

>  <Standardized_SMILES>  (165) 
COc1cc(F)ccc1C1CN(c2nc(-c3ccncc3)cc(=O)n2C)CCN1C(C)=O

>  <Name>  (165) 
nan

>  <Pocket>  (165) 
nan

>  <ATP_Site>  (165) 
nan

>  <Peripheral>  (165) 
nan

>  <Num_H_Atoms_ProtBoundConf>  (165) 
nan

>  <Num_Resolved_Atoms>  (165) 
nan

>  <Num_Not_Resolved_Atoms>  (165) 
nan

$$$$
CHEMBL4077341
     RDKit          3D

  0  0  0  0  0  0  0  0  0  0999 V3000
M  V30 BEGIN CTAB
M  V30 COUNTS 30 33 0 0 0
M  V30 BEGIN ATOM
M  V30 1 O -2.598004 -4.322123 3.674044 0
M  V30 2 C -1.648938 -3.550099 3.424611 0
M  V30 3 N -0.858693 -2.952838 4.459937 0
M  V30 4 C 0.139241 -2.107273 3.851599 0
M  V30 5 C -0.111693 -2.278570 2.390764 0
M  V30 6 C 0.518925 -1.722878 1.290435 0
M  V30 7 C 0.204149 -1.921538 -0.058059 0
M  V30 8 N 0.968022 -1.215364 -1.045242 0
M  V30 9 C 0.881381 0.182619 -1.362373 0
M  V30 10 N 0.268447 0.509963 -2.539548 0
M  V30 11 C 0.115415 1.790757 -2.938543 0
M  V30 12 N 0.568281 2.825058 -2.171489 0
M  V30 13 C 1.177756 2.586718 -0.997868 0
M  V30 14 N 1.717961 3.335320 -0.029483 0
M  V30 15 C 2.181334 2.525046 0.919465 0
M  V30 16 N 1.930526 1.264420 0.540372 0
M  V30 17 C 1.317616 1.267142 -0.628177 0
M  V30 18 C -0.863282 -2.780254 -0.252686 0
M  V30 19 C -1.529788 -3.362472 0.803305 0
M  V30 20 C -1.170683 -3.121549 2.108785 0
M  V30 21 H -0.819004 -2.959090 5.499402 0
M  V30 22 H 1.167689 -2.330276 4.138037 0
M  V30 23 H -0.036559 -1.023895 4.116439 0
M  V30 24 H 1.361062 -1.090554 1.554998 0
M  V30 25 H 1.666871 -1.822257 -1.568000 0
M  V30 26 H -0.344075 2.188224 -3.834876 0
M  V30 27 H 1.782275 4.375807 0.024377 0
M  V30 28 H 2.684764 2.665707 1.879295 0
M  V30 29 H -1.112642 -2.944104 -1.295343 0
M  V30 30 H -2.355479 -4.028789 0.628727 0
M  V30 END ATOM
M  V30 BEGIN BOND
M  V30 1 2 1 2
M  V30 2 1 2 3
M  V30 3 1 3 4
M  V30 4 1 4 5
M  V30 5 2 5 6
M  V30 6 1 6 7
M  V30 7 1 7 8
M  V30 8 1 8 9
M  V30 9 2 9 10
M  V30 10 1 10 11
M  V30 11 2 11 12
M  V30 12 1 12 13
M  V30 13 1 13 14
M  V30 14 1 14 15
M  V30 15 2 15 16
M  V30 16 1 16 17
M  V30 17 2 7 18
M  V30 18 1 18 19
M  V30 19 2 19 20
M  V30 20 1 20 2
M  V30 21 1 20 5
M  V30 22 1 17 9
M  V30 23 2 17 13
M  V30 24 1 3 21
M  V30 25 1 4 22
M  V30 26 1 4 23
M  V30 27 1 6 24
M  V30 28 1 8 25
M  V30 29 1 11 26
M  V30 30 1 14 27
M  V30 31 1 15 28
M  V30 32 1 18 29
M  V30 33 1 19 30
M  V30 END BOND
M  V30 END CTAB
M  END
>  <Dataset>  (166) 
ChEMBL_Kinases

>  <Ligand_Instance>  (166) 
nan

>  <PDB_ID>  (166) 
nan

>  <Standardized_SMILES>  (166) 
O=C1NCc2cc(Nc3ncnc4[nH]cnc34)ccc21

>  <Name>  (166) 
nan

>  <Pocket>  (166) 
nan

>  <ATP_Site>  (166) 
nan

>  <Peripheral>  (166) 
nan

>  <Num_H_Atoms_ProtBoundConf>  (166) 
nan

>  <Num_Resolved_Atoms>  (166) 
nan

>  <Num_Not_Resolved_Atoms>  (166) 
nan

$$$$
CHEMBL4077340
     RDKit          3D

  0  0  0  0  0  0  0  0  0  0999 V3000
M  V30 BEGIN CTAB
M  V30 COUNTS 44 46 0 0 0
M  V30 BEGIN ATOM
M  V30 1 N 0.795431 -1.008665 -0.525517 0
M  V30 2 C 0.385114 0.254712 -0.042307 0
M  V30 3 C 1.190794 1.283797 -0.523099 0
M  V30 4 N 2.306174 1.147962 -1.396402 0
M  V30 5 C 3.693322 0.944228 -1.025955 0
M  V30 6 C 3.898140 -0.337531 -0.228946 0
M  V30 7 C 5.350396 -0.495926 0.127826 0
M  V30 8 O 6.204135 0.353759 -0.221438 0
M  V30 9 O 5.654591 -1.640066 0.861257 0
M  V30 10 C 0.903102 2.593339 -0.127448 0
M  V30 11 F 1.649006 3.640610 -0.559926 0
M  V30 12 C -0.168544 2.771124 0.718592 0
M  V30 13 C -0.988622 1.781142 1.215626 0
M  V30 14 C -2.050726 2.014092 2.061909 0
M  V30 15 O -2.307808 3.179885 2.414729 0
M  V30 16 C -2.741837 0.876292 2.440598 0
M  V30 17 C -3.887214 1.063283 3.344612 0
M  V30 18 O -4.181836 2.219793 3.724959 0
M  V30 19 O -4.651345 -0.004069 3.788749 0
M  V30 20 C -2.405006 -0.392798 2.012837 0
M  V30 21 N -1.343322 -0.572514 1.173985 0
M  V30 22 C -1.136245 -1.936496 0.836145 0
M  V30 23 C -0.420035 -2.554104 1.872001 0
M  V30 24 C -0.089638 -3.909346 1.796343 0
M  V30 25 C -0.477191 -4.633573 0.688463 0
M  V30 26 Cl -0.114202 -6.351579 0.486849 0
M  V30 27 C -1.180175 -4.019083 -0.323982 0
M  V30 28 C -1.511793 -2.683519 -0.260805 0
M  V30 29 C -0.667653 0.525043 0.801636 0
M  V30 30 H 0.481776 -1.057328 -1.539721 0
M  V30 31 H 1.267747 -1.920019 -0.356454 0
M  V30 32 H 1.864019 1.232854 -2.350132 0
M  V30 33 H 4.254936 0.905676 -1.977710 0
M  V30 34 H 4.106937 1.786883 -0.456563 0
M  V30 35 H 3.569406 -1.224989 -0.811231 0
M  V30 36 H 3.288938 -0.288262 0.688990 0
M  V30 37 H 6.568377 -1.658611 1.338576 0
M  V30 38 H -0.369825 3.802628 1.011145 0
M  V30 39 H -5.131769 0.001591 4.671510 0
M  V30 40 H -3.033790 -1.213455 2.386024 0
M  V30 41 H -0.052367 -2.116707 2.793921 0
M  V30 42 H 0.459127 -4.447461 2.556464 0
M  V30 43 H -1.529859 -4.512062 -1.240623 0
M  V30 44 H -2.052781 -2.071347 -0.967899 0
M  V30 END ATOM
M  V30 BEGIN BOND
M  V30 1 1 1 2
M  V30 2 2 2 3
M  V30 3 1 3 4
M  V30 4 1 4 5
M  V30 5 1 5 6
M  V30 6 1 6 7
M  V30 7 2 7 8
M  V30 8 1 7 9
M  V30 9 1 3 10
M  V30 10 1 10 11
M  V30 11 2 10 12
M  V30 12 1 12 13
M  V30 13 1 13 14
M  V30 14 2 14 15
M  V30 15 1 14 16
M  V30 16 1 16 17
M  V30 17 2 17 18
M  V30 18 1 17 19
M  V30 19 2 16 20
M  V30 20 1 20 21
M  V30 21 1 21 22
M  V30 22 2 22 23
M  V30 23 1 23 24
M  V30 24 2 24 25
M  V30 25 1 25 26
M  V30 26 1 25 27
M  V30 27 2 27 28
M  V30 28 1 21 29
M  V30 29 1 29 2
M  V30 30 2 29 13
M  V30 31 1 28 22
M  V30 32 1 1 30
M  V30 33 1 1 31
M  V30 34 1 4 32
M  V30 35 1 5 33
M  V30 36 1 5 34
M  V30 37 1 6 35
M  V30 38 1 6 36
M  V30 39 1 9 37
M  V30 40 1 12 38
M  V30 41 1 19 39
M  V30 42 1 20 40
M  V30 43 1 23 41
M  V30 44 1 24 42
M  V30 45 1 27 43
M  V30 46 1 28 44
M  V30 END BOND
M  V30 END CTAB
M  END
>  <Dataset>  (167) 
ChEMBL_Kinases

>  <Ligand_Instance>  (167) 
nan

>  <PDB_ID>  (167) 
nan

>  <Standardized_SMILES>  (167) 
Nc1c(NCCC(=O)O)c(F)cc2c(=O)c(C(=O)O)cn(-c3ccc(Cl)cc3)c12

>  <Name>  (167) 
nan

>  <Pocket>  (167) 
nan

>  <ATP_Site>  (167) 
nan

>  <Peripheral>  (167) 
nan

>  <Num_H_Atoms_ProtBoundConf>  (167) 
nan

>  <Num_Resolved_Atoms>  (167) 
nan

>  <Num_Not_Resolved_Atoms>  (167) 
nan

$$$$
CHEMBL4077328
     RDKit          3D

  0  0  0  0  0  0  0  0  0  0999 V3000
M  V30 BEGIN CTAB
M  V30 COUNTS 31 33 0 0 0
M  V30 BEGIN ATOM
M  V30 1 C -2.870736 -4.706712 4.195039 0
M  V30 2 O -2.467561 -3.357302 4.129466 0
M  V30 3 C -1.799312 -2.831786 3.038189 0
M  V30 4 C -1.508739 -3.637416 1.926563 0
M  V30 5 C -0.843419 -3.186073 0.803124 0
M  V30 6 C -0.442770 -1.867057 0.776610 0
M  V30 7 C 0.320586 -1.336010 -0.415337 0
M  V30 8 N 0.775050 -0.270836 -0.704605 0
M  V30 9 C 1.445970 0.028448 -1.792793 0
M  V30 10 C 2.019685 1.302754 -2.219670 0
M  V30 11 C 2.082522 2.230522 -1.309773 0
M  V30 12 S 1.555669 2.164924 0.412920 0
M  V30 13 C 2.123254 3.835760 0.838087 0
M  V30 14 S 1.894981 4.172877 2.414051 0
M  V30 15 N 2.635258 4.412234 -0.378903 0
M  V30 16 C 2.609679 3.570583 -1.486432 0
M  V30 17 O 3.065928 4.079226 -2.570445 0
M  V30 18 C 1.611440 -1.130690 -2.702312 0
M  V30 19 S 0.710156 -2.489634 -1.739169 0
M  V30 20 C -0.714951 -1.079112 1.833569 0
M  V30 21 C -1.378286 -1.529814 2.952882 0
M  V30 22 H -1.910726 -5.292252 4.047422 0
M  V30 23 H -3.481294 -4.952600 3.324193 0
M  V30 24 H -3.321057 -4.955799 5.178775 0
M  V30 25 H -1.816815 -4.676667 1.922621 0
M  V30 26 H -0.664203 -3.867970 -0.008955 0
M  V30 27 H 2.378852 1.492316 -3.217871 0
M  V30 28 H 2.940279 5.386489 -0.190644 0
M  V30 29 H 2.199776 -1.096572 -3.772432 0
M  V30 30 H -0.393674 -0.043140 1.808283 0
M  V30 31 H -1.600906 -0.893005 3.823010 0
M  V30 END ATOM
M  V30 BEGIN BOND
M  V30 1 1 1 2
M  V30 2 1 2 3
M  V30 3 2 3 4
M  V30 4 1 4 5
M  V30 5 2 5 6
M  V30 6 1 6 7
M  V30 7 2 7 8
M  V30 8 1 8 9
M  V30 9 1 9 10
M  V30 10 2 10 11
M  V30 11 1 11 12
M  V30 12 1 12 13
M  V30 13 2 13 14
M  V30 14 1 13 15
M  V30 15 1 15 16
M  V30 16 2 16 17
M  V30 17 2 9 18
M  V30 18 1 18 19
M  V30 19 1 6 20
M  V30 20 2 20 21
M  V30 21 1 21 3
M  V30 22 1 19 7
M  V30 23 1 16 11
M  V30 24 1 1 22
M  V30 25 1 1 23
M  V30 26 1 1 24
M  V30 27 1 4 25
M  V30 28 1 5 26
M  V30 29 1 10 27
M  V30 30 1 15 28
M  V30 31 1 18 29
M  V30 32 1 20 30
M  V30 33 1 21 31
M  V30 END BOND
M  V30 END CTAB
M  END
>  <Dataset>  (168) 
ChEMBL_Kinases

>  <Ligand_Instance>  (168) 
nan

>  <PDB_ID>  (168) 
nan

>  <Standardized_SMILES>  (168) 
COc1ccc(-c2nc(/C=C3\SC(=S)NC3=O)cs2)cc1

>  <Name>  (168) 
nan

>  <Pocket>  (168) 
nan

>  <ATP_Site>  (168) 
nan

>  <Peripheral>  (168) 
nan

>  <Num_H_Atoms_ProtBoundConf>  (168) 
nan

>  <Num_Resolved_Atoms>  (168) 
nan

>  <Num_Not_Resolved_Atoms>  (168) 
nan

$$$$
CHEMBL4077315
     RDKit          3D

  0  0  0  0  0  0  0  0  0  0999 V3000
M  V30 BEGIN CTAB
M  V30 COUNTS 17 18 0 0 0
M  V30 BEGIN ATOM
M  V30 1 O 0.327725 -2.460010 2.982850 0
M  V30 2 C 1.158951 -1.504002 2.769692 0
M  V30 3 N 2.219612 -1.320840 3.662261 0
M  V30 4 C 3.071849 -0.254987 3.343986 0
M  V30 5 S 4.156669 0.819623 3.933526 0
M  V30 6 S 2.822548 -0.022315 1.557186 0
M  V30 7 C 1.099489 -0.569100 1.656467 0
M  V30 8 C 0.018637 -0.291224 1.005267 0
M  V30 9 C 0.216032 0.694707 -0.094338 0
M  V30 10 C 0.948276 1.112527 -1.155950 0
M  V30 11 N 0.498471 2.178997 -1.768652 0
M  V30 12 C -0.388263 2.842355 -1.601979 0
M  V30 13 S -1.181155 2.011404 -0.089948 0
M  V30 14 H 2.565303 -1.790171 4.556814 0
M  V30 15 H -0.951820 -0.701277 1.194993 0
M  V30 16 H 1.768998 0.388560 -1.202390 0
M  V30 17 H -0.634371 3.772809 -2.272757 0
M  V30 END ATOM
M  V30 BEGIN BOND
M  V30 1 2 1 2
M  V30 2 1 2 3
M  V30 3 1 3 4
M  V30 4 2 4 5
M  V30 5 1 4 6
M  V30 6 1 6 7
M  V30 7 2 7 8
M  V30 8 1 8 9
M  V30 9 2 9 10
M  V30 10 1 10 11
M  V30 11 2 11 12
M  V30 12 1 12 13
M  V30 13 1 7 2
M  V30 14 1 13 9
M  V30 15 1 3 14
M  V30 16 1 8 15
M  V30 17 1 10 16
M  V30 18 1 12 17
M  V30 END BOND
M  V30 END CTAB
M  END
>  <Dataset>  (169) 
ChEMBL_Kinases

>  <Ligand_Instance>  (169) 
nan

>  <PDB_ID>  (169) 
nan

>  <Standardized_SMILES>  (169) 
O=C1NC(=S)S/C1=C\c1cncs1

>  <Name>  (169) 
nan

>  <Pocket>  (169) 
nan

>  <ATP_Site>  (169) 
nan

>  <Peripheral>  (169) 
nan

>  <Num_H_Atoms_ProtBoundConf>  (169) 
nan

>  <Num_Resolved_Atoms>  (169) 
nan

>  <Num_Not_Resolved_Atoms>  (169) 
nan

$$$$
CHEMBL4077233
     RDKit          3D

  0  0  0  0  0  0  0  0  0  0999 V3000
M  V30 BEGIN CTAB
M  V30 COUNTS 126 128 0 0 0
M  V30 BEGIN ATOM
M  V30 1 N -0.639774 -0.217021 -5.375323 0
M  V30 2 C -0.222839 -1.461734 -4.739685 0
M  V30 3 C -0.545656 -1.371118 -3.260326 0
M  V30 4 C -2.056687 -1.163714 -3.069610 0
M  V30 5 C -2.292278 -1.085566 -1.584906 0
M  V30 6 C -3.758404 -0.830533 -1.256265 0 CFG=2
M  V30 7 N -4.197010 0.455604 -1.702777 0
M  V30 8 C -3.513584 1.530871 -2.273004 0
M  V30 9 O -2.363456 1.849022 -2.597905 0
M  V30 10 C -3.947891 2.840378 -2.761384 0
M  V30 11 C -2.910285 3.908265 -2.795117 0
M  V30 12 C -2.391040 4.438987 -1.525357 0
M  V30 13 C -1.727075 3.553900 -0.535273 0
M  V30 14 C -1.319762 4.416436 0.677800 0
M  V30 15 C -0.654193 3.558351 1.729132 0
M  V30 16 C -0.281646 4.460117 2.854200 0
M  V30 17 C 0.382926 3.833770 4.020622 0
M  V30 18 N 1.618076 3.167548 3.729439 0
M  V30 19 C 1.586516 1.827358 3.447794 0
M  V30 20 O 0.517235 1.169411 3.432875 0
M  V30 21 C 2.745848 1.172155 3.170946 0
M  V30 22 C 2.703177 -0.195350 2.892967 0
M  V30 23 C 3.900134 -0.809795 2.627473 0
M  V30 24 N 5.089030 -0.164869 2.622529 0
M  V30 25 C 5.160863 1.170942 2.889630 0
M  V30 26 C 3.968507 1.793257 3.157222 0
M  V30 27 C 3.974474 3.137793 3.441709 0
M  V30 28 C 5.129558 3.881721 3.459545 0
M  V30 29 C 5.190183 5.234637 3.737452 0
M  V30 30 C 3.974998 5.876411 4.019146 0
M  V30 31 C 3.976300 7.317138 4.327705 0
M  V30 32 O 5.004957 8.025388 4.362265 0
M  V30 33 O 2.785719 7.945273 4.598938 0
M  V30 34 C 2.795715 5.165606 4.011017 0
M  V30 35 C 2.799692 3.798287 3.722161 0
M  V30 36 C -4.180063 -1.102148 0.091737 0
M  V30 37 O -4.813536 -0.467645 0.973639 0
M  V30 38 N -3.772315 -2.389230 0.468857 0
M  V30 39 C -3.859754 -3.288581 1.617836 0 CFG=1
M  V30 40 C -4.503606 -4.558641 1.188013 0
M  V30 41 C -4.705765 -5.575110 2.227865 0
M  V30 42 O -4.531647 -5.824897 3.466775 0
M  V30 43 O -5.326166 -6.681671 1.622537 0
M  V30 44 C -2.509234 -3.373691 2.175629 0
M  V30 45 O -2.282175 -2.292977 1.521818 0
M  V30 46 N -1.529395 -3.967148 2.947649 0
M  V30 47 C -0.180149 -3.549542 3.226822 0 CFG=1
M  V30 48 C 0.114579 -3.962718 4.639019 0
M  V30 49 C -0.849160 -3.287835 5.547328 0
M  V30 50 O -1.809347 -2.477595 5.435627 0
M  V30 51 O -0.631183 -3.650529 6.890517 0
M  V30 52 C 0.837515 -3.991641 2.236110 0
M  V30 53 O 1.926238 -3.655283 2.818631 0
M  V30 54 N 0.845064 -4.613136 0.965355 0
M  V30 55 C 2.223535 -4.830950 0.419049 0 CFG=1
M  V30 56 C 2.198991 -5.990811 -0.504678 0
M  V30 57 C 3.495619 -6.399165 -1.076925 0
M  V30 58 O 4.588617 -5.975587 -0.582841 0
M  V30 59 O 3.719039 -7.229095 -2.145837 0
M  V30 60 C 2.548026 -3.565244 -0.313320 0
M  V30 61 O 1.440719 -2.955967 -0.080284 0
M  V30 62 N 3.504614 -2.873601 -1.072768 0
M  V30 63 C 3.438823 -1.567959 -1.634110 0 CFG=1
M  V30 64 C 4.614757 -0.705668 -1.203011 0
M  V30 65 C 4.507535 0.643166 -1.805009 0
M  V30 66 O 4.983912 0.921905 -2.914586 0
M  V30 67 O 3.859777 1.722490 -1.175658 0
M  V30 68 C 3.418388 -1.637292 -3.141680 0
M  V30 69 O 3.345465 -0.758117 -4.060667 0
M  V30 70 O 3.439524 -2.261477 -4.388052 0
M  V30 71 H 0.169430 0.427339 -5.460113 0
M  V30 72 H -0.981076 -0.439559 -6.335913 0
M  V30 73 H -0.740976 -2.350949 -5.116786 0
M  V30 74 H 0.857467 -1.533105 -4.845068 0
M  V30 75 H -0.075501 -0.474567 -2.809903 0
M  V30 76 H -0.198367 -2.235633 -2.704601 0
M  V30 77 H -2.571322 -2.101317 -3.479548 0
M  V30 78 H -2.370492 -0.373464 -3.703200 0
M  V30 79 H -1.868672 -1.976986 -1.146822 0
M  V30 80 H -1.704777 -0.210854 -1.193254 0
M  V30 81 H -4.226225 -1.628857 -1.977856 0
M  V30 82 H -5.218063 0.640508 -1.590052 0
M  V30 83 H -4.799326 3.167802 -2.080761 0
M  V30 84 H -4.432546 2.686410 -3.759509 0
M  V30 85 H -3.349217 4.727621 -3.449215 0
M  V30 86 H -2.009775 3.592535 -3.406941 0
M  V30 87 H -1.575324 5.199488 -1.824041 0
M  V30 88 H -3.201135 5.078403 -1.019852 0
M  V30 89 H -0.791735 3.119782 -0.971575 0
M  V30 90 H -2.439983 2.798886 -0.165496 0
M  V30 91 H -0.658135 5.200664 0.288948 0
M  V30 92 H -2.254503 4.895275 1.024470 0
M  V30 93 H 0.250399 3.117195 1.220013 0
M  V30 94 H -1.262539 2.699792 2.017065 0
M  V30 95 H 0.326971 5.299719 2.399637 0
M  V30 96 H -1.230653 4.983507 3.158510 0
M  V30 97 H 0.493567 4.512466 4.892854 0
M  V30 98 H -0.357168 3.061751 4.409892 0
M  V30 99 H 1.774971 -0.769489 2.883279 0
M  V30 100 H 3.969254 -1.870909 2.400369 0
M  V30 101 H 6.128790 1.602746 2.864595 0
M  V30 102 H 6.107732 3.483974 3.255997 0
M  V30 103 H 6.084876 5.824399 3.756496 0
M  V30 104 H 2.705273 8.856251 5.009619 0
M  V30 105 H 1.927638 5.740155 4.234669 0
M  V30 106 H -3.217167 -3.051791 -0.161595 0
M  V30 107 H -4.540652 -2.750371 2.353657 0
M  V30 108 H -5.480206 -4.295827 0.723573 0
M  V30 109 H -3.883519 -4.956108 0.346051 0
M  V30 110 H -5.729179 -7.459520 2.125973 0
M  V30 111 H -2.060309 -4.805212 3.265566 0
M  V30 112 H -0.196601 -2.416952 3.183464 0
M  V30 113 H 1.123856 -3.633239 4.937157 0
M  V30 114 H 0.017345 -5.081135 4.762053 0
M  V30 115 H -1.333625 -3.553199 7.606957 0
M  V30 116 H -0.130400 -4.777845 0.705054 0
M  V30 117 H 2.900644 -4.857913 1.265537 0
M  V30 118 H 1.756589 -6.861213 0.056827 0
M  V30 119 H 1.532605 -5.738915 -1.377820 0
M  V30 120 H 4.473202 -7.040467 -2.832020 0
M  V30 121 H 4.317247 -3.498990 -1.164948 0
M  V30 122 H 2.496489 -1.093516 -1.326486 0
M  V30 123 H 5.538929 -1.200965 -1.605415 0
M  V30 124 H 4.688859 -0.596960 -0.123581 0
M  V30 125 H 3.757087 2.635215 -1.607253 0
M  V30 126 H 3.979765 -3.060915 -4.625866 0
M  V30 END ATOM
M  V30 BEGIN BOND
M  V30 1 1 1 2
M  V30 2 1 2 3
M  V30 3 1 3 4
M  V30 4 1 4 5
M  V30 5 1 5 6
M  V30 6 1 6 7
M  V30 7 1 7 8
M  V30 8 2 8 9
M  V30 9 1 8 10
M  V30 10 1 10 11
M  V30 11 1 11 12
M  V30 12 1 12 13
M  V30 13 1 13 14
M  V30 14 1 14 15
M  V30 15 1 15 16
M  V30 16 1 16 17
M  V30 17 1 17 18
M  V30 18 1 18 19
M  V30 19 2 19 20
M  V30 20 1 19 21
M  V30 21 2 21 22
M  V30 22 1 22 23
M  V30 23 2 23 24
M  V30 24 1 24 25
M  V30 25 2 25 26
M  V30 26 1 26 27
M  V30 27 2 27 28
M  V30 28 1 28 29
M  V30 29 2 29 30
M  V30 30 1 30 31
M  V30 31 2 31 32
M  V30 32 1 31 33
M  V30 33 1 30 34
M  V30 34 2 34 35
M  V30 35 1 6 36
M  V30 36 2 36 37
M  V30 37 1 36 38
M  V30 38 1 38 39
M  V30 39 1 39 40
M  V30 40 1 40 41
M  V30 41 2 41 42
M  V30 42 1 41 43
M  V30 43 1 39 44
M  V30 44 2 44 45
M  V30 45 1 44 46
M  V30 46 1 46 47
M  V30 47 1 47 48
M  V30 48 1 48 49
M  V30 49 2 49 50
M  V30 50 1 49 51
M  V30 51 1 47 52
M  V30 52 2 52 53
M  V30 53 1 52 54
M  V30 54 1 54 55
M  V30 55 1 55 56
M  V30 56 1 56 57
M  V30 57 2 57 58
M  V30 58 1 57 59
M  V30 59 1 55 60
M  V30 60 2 60 61
M  V30 61 1 60 62
M  V30 62 1 62 63
M  V30 63 1 63 64
M  V30 64 1 64 65
M  V30 65 2 65 66
M  V30 66 1 65 67
M  V30 67 1 63 68
M  V30 68 2 68 69
M  V30 69 1 68 70
M  V30 70 1 35 18
M  V30 71 1 26 21
M  V30 72 1 35 27
M  V30 73 1 1 71
M  V30 74 1 1 72
M  V30 75 1 2 73
M  V30 76 1 2 74
M  V30 77 1 3 75
M  V30 78 1 3 76
M  V30 79 1 4 77
M  V30 80 1 4 78
M  V30 81 1 5 79
M  V30 82 1 5 80
M  V30 83 1 6 81 CFG=3
M  V30 84 1 7 82
M  V30 85 1 10 83
M  V30 86 1 10 84
M  V30 87 1 11 85
M  V30 88 1 11 86
M  V30 89 1 12 87
M  V30 90 1 12 88
M  V30 91 1 13 89
M  V30 92 1 13 90
M  V30 93 1 14 91
M  V30 94 1 14 92
M  V30 95 1 15 93
M  V30 96 1 15 94
M  V30 97 1 16 95
M  V30 98 1 16 96
M  V30 99 1 17 97
M  V30 100 1 17 98
M  V30 101 1 22 99
M  V30 102 1 23 100
M  V30 103 1 25 101
M  V30 104 1 28 102
M  V30 105 1 29 103
M  V30 106 1 33 104
M  V30 107 1 34 105
M  V30 108 1 38 106
M  V30 109 1 39 107 CFG=1
M  V30 110 1 40 108
M  V30 111 1 40 109
M  V30 112 1 43 110
M  V30 113 1 46 111
M  V30 114 1 47 112 CFG=1
M  V30 115 1 48 113
M  V30 116 1 48 114
M  V30 117 1 51 115
M  V30 118 1 54 116
M  V30 119 1 55 117 CFG=1
M  V30 120 1 56 118
M  V30 121 1 56 119
M  V30 122 1 59 120
M  V30 123 1 62 121
M  V30 124 1 63 122 CFG=1
M  V30 125 1 64 123
M  V30 126 1 64 124
M  V30 127 1 67 125
M  V30 128 1 70 126
M  V30 END BOND
M  V30 END CTAB
M  END
>  <Dataset>  (170) 
ChEMBL_Kinases

>  <Ligand_Instance>  (170) 
nan

>  <PDB_ID>  (170) 
nan

>  <Standardized_SMILES>  (170) 
NCCCC[C@H](NC(=O)CCCCCCCCn1c(=O)c2ccncc2c2ccc(C(=O)O)cc21)C(=O)N[C@@H](CC(=O)O)C(=O)N[C@@H](CC(=O)O)C(=O)N[C@@H](CC(=O)O)C(=O)N[C@@H](CC(=O)O)C(=O)O

>  <Name>  (170) 
nan

>  <Pocket>  (170) 
nan

>  <ATP_Site>  (170) 
nan

>  <Peripheral>  (170) 
nan

>  <Num_H_Atoms_ProtBoundConf>  (170) 
nan

>  <Num_Resolved_Atoms>  (170) 
nan

>  <Num_Not_Resolved_Atoms>  (170) 
nan

$$$$
CHEMBL4856124
     RDKit          3D

  0  0  0  0  0  0  0  0  0  0999 V3000
M  V30 BEGIN CTAB
M  V30 COUNTS 84 89 0 0 0
M  V30 BEGIN ATOM
M  V30 1 C -0.880033 -4.521252 -3.360040 0
M  V30 2 C -1.862636 -4.737898 -2.232322 0 CFG=2
M  V30 3 C -2.858603 -3.625716 -2.257394 0
M  V30 4 O -2.708741 -3.453090 -1.006548 0
M  V30 5 N -3.624483 -3.047576 -3.298140 0
M  V30 6 C -4.491726 -1.968376 -2.901950 0 CFG=2
M  V30 7 C -5.853309 -2.033568 -3.541506 0
M  V30 8 O -5.777048 -1.975493 -4.930300 0
M  V30 9 C -3.751032 -0.709809 -3.299330 0
M  V30 10 C -3.075080 -0.550172 -4.494174 0
M  V30 11 C -2.418187 0.633783 -4.759553 0
M  V30 12 C -2.412993 1.686054 -3.855289 0
M  V30 13 C -3.097769 1.484457 -2.680224 0
M  V30 14 N -3.179796 2.470122 -1.635944 0
M  V30 15 C -2.352311 3.638255 -1.693203 0
M  V30 16 C -1.932365 4.116913 -0.319921 0
M  V30 17 N -2.981605 4.119897 0.647734 0
M  V30 18 C -3.955423 5.159029 0.510519 0
M  V30 19 C -3.559107 2.810052 0.769117 0
M  V30 20 C -4.086688 2.311141 -0.541386 0
M  V30 21 N -3.721832 0.317338 -2.465147 0
M  V30 22 N -1.208041 -4.785677 -0.929722 0
M  V30 23 C -1.038952 -5.609190 0.240641 0
M  V30 24 C -0.146660 -4.833395 1.137496 0
M  V30 25 C 0.311376 -5.212743 2.381654 0
M  V30 26 C 1.143413 -4.394223 3.117244 0
M  V30 27 C 1.534592 -3.153288 2.597258 0
M  V30 28 C 2.416844 -2.194322 3.286455 0
M  V30 29 N 3.358606 -1.698272 2.467399 0
M  V30 30 C 4.291832 -0.805764 2.815158 0
M  V30 31 N 5.286921 -0.308862 1.915073 0
M  V30 32 C 6.288522 0.663553 2.298411 0
M  V30 33 C 5.669560 1.966008 2.763352 0
M  V30 34 C 6.643108 2.782795 3.578394 0
M  V30 35 O 7.129226 2.022908 4.645986 0
M  V30 36 C 7.981370 1.067355 4.098942 0
M  V30 37 C 7.182732 0.041880 3.324732 0
M  V30 38 N 4.235888 -0.403912 4.109693 0
M  V30 39 C 3.323009 -0.858009 4.980193 0
M  V30 40 C 2.378563 -1.778237 4.580539 0
M  V30 41 Cl 1.111944 -2.489780 5.558846 0
M  V30 42 C 1.033660 -2.850681 1.351659 0
M  V30 43 C 0.201684 -3.624699 0.570958 0
M  V30 44 C -0.453800 -3.572268 -0.727021 0
M  V30 45 O -0.228141 -2.497553 -1.387828 0
M  V30 46 H -1.277294 -4.993048 -4.296915 0
M  V30 47 H -0.799958 -3.426599 -3.629809 0
M  V30 48 H 0.149070 -4.850272 -3.122202 0
M  V30 49 H -2.437006 -5.658399 -2.417517 0
M  V30 50 H -3.395472 -3.541208 -4.172446 0
M  V30 51 H -4.561987 -1.931286 -1.789773 0
M  V30 52 H -6.423691 -1.165034 -3.146579 0
M  V30 53 H -6.341498 -3.001942 -3.298026 0
M  V30 54 H -5.406058 -2.828249 -5.273260 0
M  V30 55 H -3.090764 -1.385342 -5.193991 0
M  V30 56 H -1.880025 0.753645 -5.710906 0
M  V30 57 H -1.915204 2.628230 -4.022816 0
M  V30 58 H -2.829809 4.415446 -2.306362 0
M  V30 59 H -1.386037 3.319173 -2.188756 0
M  V30 60 H -1.113262 3.476287 0.068528 0
M  V30 61 H -1.509523 5.139580 -0.385737 0
M  V30 62 H -4.281811 5.428407 1.551427 0
M  V30 63 H -4.896617 4.831673 0.000020 0
M  V30 64 H -3.520731 6.083347 0.081491 0
M  V30 65 H -4.395412 2.783806 1.510193 0
M  V30 66 H -2.790578 2.116790 1.149855 0
M  V30 67 H -4.280746 1.206859 -0.419824 0
M  V30 68 H -5.052710 2.851830 -0.716572 0
M  V30 69 H -2.006186 -5.849680 0.709678 0
M  V30 70 H -0.554206 -6.561334 -0.090993 0
M  V30 71 H 0.044377 -6.159313 2.837480 0
M  V30 72 H 1.530776 -4.649089 4.094134 0
M  V30 73 H 5.237922 -0.708283 0.937833 0
M  V30 74 H 6.863047 0.917302 1.371109 0
M  V30 75 H 4.775276 1.811252 3.403434 0
M  V30 76 H 5.362404 2.591671 1.895663 0
M  V30 77 H 7.473224 3.191127 2.957418 0
M  V30 78 H 6.097402 3.660606 3.978321 0
M  V30 79 H 8.799689 1.519429 3.504125 0
M  V30 80 H 8.500904 0.508875 4.922170 0
M  V30 81 H 7.925777 -0.634461 2.827524 0
M  V30 82 H 6.600417 -0.554826 4.035415 0
M  V30 83 H 3.252610 -0.557812 6.023300 0
M  V30 84 H 1.333472 -1.890039 0.943186 0
M  V30 END ATOM
M  V30 BEGIN BOND
M  V30 1 1 1 2
M  V30 2 1 2 3
M  V30 3 2 3 4
M  V30 4 1 3 5
M  V30 5 1 5 6
M  V30 6 1 6 7
M  V30 7 1 7 8
M  V30 8 1 6 9
M  V30 9 2 9 10
M  V30 10 1 10 11
M  V30 11 2 11 12
M  V30 12 1 12 13
M  V30 13 1 13 14
M  V30 14 1 14 15
M  V30 15 1 15 16
M  V30 16 1 16 17
M  V30 17 1 17 18
M  V30 18 1 17 19
M  V30 19 1 19 20
M  V30 20 2 13 21
M  V30 21 1 2 22
M  V30 22 1 22 23
M  V30 23 1 23 24
M  V30 24 2 24 25
M  V30 25 1 25 26
M  V30 26 2 26 27
M  V30 27 1 27 28
M  V30 28 2 28 29
M  V30 29 1 29 30
M  V30 30 1 30 31
M  V30 31 1 31 32
M  V30 32 1 32 33
M  V30 33 1 33 34
M  V30 34 1 34 35
M  V30 35 1 35 36
M  V30 36 1 36 37
M  V30 37 2 30 38
M  V30 38 1 38 39
M  V30 39 2 39 40
M  V30 40 1 40 41
M  V30 41 1 27 42
M  V30 42 2 42 43
M  V30 43 1 43 44
M  V30 44 2 44 45
M  V30 45 1 21 9
M  V30 46 1 44 22
M  V30 47 1 20 14
M  V30 48 1 43 24
M  V30 49 1 40 28
M  V30 50 1 37 32
M  V30 51 1 1 46
M  V30 52 1 1 47
M  V30 53 1 1 48
M  V30 54 1 2 49 CFG=3
M  V30 55 1 5 50
M  V30 56 1 6 51 CFG=1
M  V30 57 1 7 52
M  V30 58 1 7 53
M  V30 59 1 8 54
M  V30 60 1 10 55
M  V30 61 1 11 56
M  V30 62 1 12 57
M  V30 63 1 15 58
M  V30 64 1 15 59
M  V30 65 1 16 60
M  V30 66 1 16 61
M  V30 67 1 18 62
M  V30 68 1 18 63
M  V30 69 1 18 64
M  V30 70 1 19 65
M  V30 71 1 19 66
M  V30 72 1 20 67
M  V30 73 1 20 68
M  V30 74 1 23 69
M  V30 75 1 23 70
M  V30 76 1 25 71
M  V30 77 1 26 72
M  V30 78 1 31 73
M  V30 79 1 32 74
M  V30 80 1 33 75
M  V30 81 1 33 76
M  V30 82 1 34 77
M  V30 83 1 34 78
M  V30 84 1 36 79
M  V30 85 1 36 80
M  V30 86 1 37 81
M  V30 87 1 37 82
M  V30 88 1 39 83
M  V30 89 1 42 84
M  V30 END BOND
M  V30 END CTAB
M  END
>  <Dataset>  (171) 
ChEMBL_Kinases

>  <Ligand_Instance>  (171) 
nan

>  <PDB_ID>  (171) 
nan

>  <Standardized_SMILES>  (171) 
C[C@H](C(=O)N[C@H](CO)c1cccc(N2CCN(C)CC2)n1)N1Cc2ccc(-c3nc(NC4CCOCC4)ncc3Cl)cc2C1=O

>  <Name>  (171) 
nan

>  <Pocket>  (171) 
nan

>  <ATP_Site>  (171) 
nan

>  <Peripheral>  (171) 
nan

>  <Num_H_Atoms_ProtBoundConf>  (171) 
nan

>  <Num_Resolved_Atoms>  (171) 
nan

>  <Num_Not_Resolved_Atoms>  (171) 
nan

$$$$
CHEMBL4856035
     RDKit          3D

  0  0  0  0  0  0  0  0  0  0999 V3000
M  V30 BEGIN CTAB
M  V30 COUNTS 70 75 0 0 0
M  V30 BEGIN ATOM
M  V30 1 C 4.204259 -3.051041 3.486604 0
M  V30 2 C 4.018671 -3.547390 2.268790 0
M  V30 3 C 4.565990 -2.975753 1.008343 0
M  V30 4 N 3.503484 -2.616075 0.089412 0
M  V30 5 C 3.072522 -3.543427 -0.782801 0
M  V30 6 O 3.430679 -4.725633 -0.971891 0
M  V30 7 C 2.059829 -2.941393 -1.529635 0
M  V30 8 C 1.214503 -3.315283 -2.556908 0
M  V30 9 N 0.340821 -2.403247 -3.013199 0
M  V30 10 C 0.251617 -1.154315 -2.520983 0
M  V30 11 N -0.794082 -0.480633 -3.247082 0
M  V30 12 C -2.066935 -0.412524 -2.597759 0
M  V30 13 C -2.197849 -0.864244 -1.301552 0
M  V30 14 C -3.350136 -0.863454 -0.544669 0
M  V30 15 C -4.490051 -0.352941 -1.161143 0
M  V30 16 N -5.762578 -0.268898 -0.487357 0
M  V30 17 C -7.080199 -0.040173 -1.070415 0
M  V30 18 C -7.995237 -1.169224 -0.618856 0
M  V30 19 N -7.261129 -2.122963 0.129450 0
M  V30 20 C -6.724092 -3.238137 -0.552944 0
M  V30 21 C -6.608593 -1.676973 1.306123 0
M  V30 22 C -5.869873 -0.398327 0.968432 0
M  V30 23 C -4.412421 0.116216 -2.470237 0
M  V30 24 C -3.213168 0.085951 -3.179351 0
M  V30 25 N 1.048686 -0.728495 -1.518584 0
M  V30 26 C 1.938742 -1.637560 -1.043785 0
M  V30 27 N 2.838057 -1.484672 -0.058047 0
M  V30 28 C 3.053172 -0.313488 0.716458 0
M  V30 29 C 1.880316 0.367422 1.060622 0
M  V30 30 C 1.842445 1.533625 1.814767 0
M  V30 31 C 3.081778 2.006730 2.225363 0
M  V30 32 C 4.247879 1.345913 1.894181 0
M  V30 33 N 4.206671 0.215571 1.156712 0
M  V30 34 C 5.414518 2.062556 2.459821 0 CFG=1
M  V30 35 O 5.755410 1.525198 3.700886 0
M  V30 36 C 6.616121 1.998689 1.546609 0
M  V30 37 F 6.941452 0.678363 1.377394 0
M  V30 38 F 7.668126 2.588589 2.244187 0
M  V30 39 C 4.893232 3.448286 2.652197 0
M  V30 40 C 3.428763 3.217530 3.039507 0
M  V30 41 H 4.784734 -2.160427 3.692360 0
M  V30 42 H 4.583075 -2.360697 4.217243 0
M  V30 43 H 3.407548 -4.438970 2.285631 0
M  V30 44 H 5.298388 -3.673135 0.562709 0
M  V30 45 H 5.122250 -2.032965 1.206696 0
M  V30 46 H 1.355862 -4.320461 -2.884634 0
M  V30 47 H -0.699665 -0.046093 -4.193659 0
M  V30 48 H -1.342081 -1.272127 -0.776023 0
M  V30 49 H -3.396717 -1.230743 0.466429 0
M  V30 50 H -7.480976 0.954484 -0.716282 0
M  V30 51 H -7.057021 0.061636 -2.175260 0
M  V30 52 H -8.828887 -0.710152 -0.032508 0
M  V30 53 H -8.446384 -1.686695 -1.494064 0
M  V30 54 H -5.615825 -3.336239 -0.387229 0
M  V30 55 H -6.828267 -3.061537 -1.645554 0
M  V30 56 H -7.241942 -4.200353 -0.349943 0
M  V30 57 H -7.294487 -1.524814 2.171138 0
M  V30 58 H -5.806569 -2.425027 1.572075 0
M  V30 59 H -4.886494 -0.308987 1.476131 0
M  V30 60 H -6.524929 0.437995 1.363132 0
M  V30 61 H -5.258057 0.526553 -3.014907 0
M  V30 62 H -3.095863 0.435953 -4.196146 0
M  V30 63 H 0.896966 0.008941 0.747425 0
M  V30 64 H 0.905587 2.017278 2.050380 0
M  V30 65 H 4.956074 1.118431 4.130411 0
M  V30 66 H 6.457303 2.566540 0.622507 0
M  V30 67 H 4.986047 4.007997 1.713514 0
M  V30 68 H 5.420198 3.988841 3.472647 0
M  V30 69 H 3.323280 3.047325 4.114644 0
M  V30 70 H 2.897219 4.118749 2.700984 0
M  V30 END ATOM
M  V30 BEGIN BOND
M  V30 1 2 1 2
M  V30 2 1 2 3
M  V30 3 1 3 4
M  V30 4 1 4 5
M  V30 5 2 5 6
M  V30 6 1 5 7
M  V30 7 2 7 8
M  V30 8 1 8 9
M  V30 9 2 9 10
M  V30 10 1 10 11
M  V30 11 1 11 12
M  V30 12 2 12 13
M  V30 13 1 13 14
M  V30 14 2 14 15
M  V30 15 1 15 16
M  V30 16 1 16 17
M  V30 17 1 17 18
M  V30 18 1 18 19
M  V30 19 1 19 20
M  V30 20 1 19 21
M  V30 21 1 21 22
M  V30 22 1 15 23
M  V30 23 2 23 24
M  V30 24 1 10 25
M  V30 25 2 25 26
M  V30 26 1 26 27
M  V30 27 1 27 28
M  V30 28 2 28 29
M  V30 29 1 29 30
M  V30 30 2 30 31
M  V30 31 1 31 32
M  V30 32 2 32 33
M  V30 33 1 32 34
M  V30 34 1 34 35 CFG=1
M  V30 35 1 34 36
M  V30 36 1 36 37
M  V30 37 1 36 38
M  V30 38 1 34 39
M  V30 39 1 39 40
M  V30 40 1 27 4
M  V30 41 1 33 28
M  V30 42 1 26 7
M  V30 43 1 40 31
M  V30 44 1 24 12
M  V30 45 1 22 16
M  V30 46 1 1 41
M  V30 47 1 1 42
M  V30 48 1 2 43
M  V30 49 1 3 44
M  V30 50 1 3 45
M  V30 51 1 8 46
M  V30 52 1 11 47
M  V30 53 1 13 48
M  V30 54 1 14 49
M  V30 55 1 17 50
M  V30 56 1 17 51
M  V30 57 1 18 52
M  V30 58 1 18 53
M  V30 59 1 20 54
M  V30 60 1 20 55
M  V30 61 1 20 56
M  V30 62 1 21 57
M  V30 63 1 21 58
M  V30 64 1 22 59
M  V30 65 1 22 60
M  V30 66 1 23 61
M  V30 67 1 24 62
M  V30 68 1 29 63
M  V30 69 1 30 64
M  V30 70 1 35 65
M  V30 71 1 36 66
M  V30 72 1 39 67
M  V30 73 1 39 68
M  V30 74 1 40 69
M  V30 75 1 40 70
M  V30 END BOND
M  V30 END CTAB
M  END
>  <Dataset>  (172) 
ChEMBL_Kinases

>  <Ligand_Instance>  (172) 
nan

>  <PDB_ID>  (172) 
nan

>  <Standardized_SMILES>  (172) 
C=CCn1c(=O)c2cnc(Nc3ccc(N4CCN(C)CC4)cc3)nc2n1-c1ccc2c(n1)[C@@](O)(C(F)F)CC2

>  <Name>  (172) 
nan

>  <Pocket>  (172) 
nan

>  <ATP_Site>  (172) 
nan

>  <Peripheral>  (172) 
nan

>  <Num_H_Atoms_ProtBoundConf>  (172) 
nan

>  <Num_Resolved_Atoms>  (172) 
nan

>  <Num_Not_Resolved_Atoms>  (172) 
nan

$$$$
CHEMBL4077186
     RDKit          3D

  0  0  0  0  0  0  0  0  0  0999 V3000
M  V30 BEGIN CTAB
M  V30 COUNTS 26 28 0 0 0
M  V30 BEGIN ATOM
M  V30 1 N 0.401912 -2.195584 3.502550 0
M  V30 2 C 0.785631 -2.221434 2.391318 0
M  V30 3 C 1.264822 -2.267350 1.064024 0
M  V30 4 C 2.145136 -3.256071 0.608668 0
M  V30 5 N 2.393022 -2.974627 -0.694044 0
M  V30 6 C 1.745026 -1.878124 -1.132538 0
M  V30 7 N 1.685627 -1.230831 -2.290478 0
M  V30 8 C 0.916858 -0.119228 -2.384215 0
M  V30 9 C 0.210235 0.319467 -1.277416 0
M  V30 10 C 0.257317 -0.348367 -0.044706 0
M  V30 11 C -0.576934 0.242402 0.986902 0
M  V30 12 C -0.285357 1.597558 1.194522 0
M  V30 13 C -0.940516 2.400904 2.102922 0
M  V30 14 C -1.948575 1.847830 2.861391 0
M  V30 15 C -2.252201 0.519314 2.674316 0
M  V30 16 C -1.591460 -0.275277 1.763406 0
M  V30 17 C 1.056887 -1.469578 -0.014662 0
M  V30 18 H 2.542515 -4.068339 1.170843 0
M  V30 19 H 3.035634 -3.573081 -1.284968 0
M  V30 20 H 0.872249 0.404969 -3.330218 0
M  V30 21 H -0.372277 1.205536 -1.437895 0
M  V30 22 H 0.495153 2.150553 0.651837 0
M  V30 23 H -0.729154 3.427652 2.269297 0
M  V30 24 H -2.538533 2.368050 3.607069 0
M  V30 25 H -3.019694 -0.024684 3.207790 0
M  V30 26 H -1.777367 -1.318591 1.552429 0
M  V30 END ATOM
M  V30 BEGIN BOND
M  V30 1 3 1 2
M  V30 2 1 2 3
M  V30 3 2 3 4
M  V30 4 1 4 5
M  V30 5 1 5 6
M  V30 6 2 6 7
M  V30 7 1 7 8
M  V30 8 2 8 9
M  V30 9 1 9 10
M  V30 10 1 10 11
M  V30 11 2 11 12
M  V30 12 1 12 13
M  V30 13 2 13 14
M  V30 14 1 14 15
M  V30 15 2 15 16
M  V30 16 2 10 17
M  V30 17 1 17 3
M  V30 18 1 17 6
M  V30 19 1 16 11
M  V30 20 1 4 18
M  V30 21 1 5 19
M  V30 22 1 8 20
M  V30 23 1 9 21
M  V30 24 1 12 22
M  V30 25 1 13 23
M  V30 26 1 14 24
M  V30 27 1 15 25
M  V30 28 1 16 26
M  V30 END BOND
M  V30 END CTAB
M  END
>  <Dataset>  (173) 
ChEMBL_Kinases

>  <Ligand_Instance>  (173) 
nan

>  <PDB_ID>  (173) 
nan

>  <Standardized_SMILES>  (173) 
N#Cc1c[nH]c2nccc(-c3ccccc3)c12

>  <Name>  (173) 
nan

>  <Pocket>  (173) 
nan

>  <ATP_Site>  (173) 
nan

>  <Peripheral>  (173) 
nan

>  <Num_H_Atoms_ProtBoundConf>  (173) 
nan

>  <Num_Resolved_Atoms>  (173) 
nan

>  <Num_Not_Resolved_Atoms>  (173) 
nan

$$$$
CHEMBL407718
     RDKit          3D

  0  0  0  0  0  0  0  0  0  0999 V3000
M  V30 BEGIN CTAB
M  V30 COUNTS 42 46 0 0 0
M  V30 BEGIN ATOM
M  V30 1 F 5.015768 -3.178750 1.787219 0
M  V30 2 C 3.790253 -2.593183 1.792855 0
M  V30 3 C 2.827560 -3.072949 2.671220 0
M  V30 4 C 1.556568 -2.518023 2.725828 0
M  V30 5 C 1.236383 -1.467224 1.892429 0
M  V30 6 C 2.171131 -0.969262 1.009574 0
M  V30 7 C 3.440530 -1.544220 0.974368 0
M  V30 8 C 1.678213 0.157102 0.180293 0
M  V30 9 C 1.455005 -0.379791 -1.203885 0
M  V30 10 C 1.249869 0.690807 -2.235169 0
M  V30 11 N 2.118998 1.828861 -2.049458 0
M  V30 12 C 2.139955 2.355345 -0.722441 0
M  V30 13 C 2.685871 1.283644 0.202177 0
M  V30 14 C 0.393674 0.531394 0.876546 0
M  V30 15 N 0.095744 -0.653695 1.650818 0
M  V30 16 C -1.195595 -1.013280 2.149102 0
M  V30 17 N -1.206359 -1.109816 3.505229 0
M  V30 18 C -2.384526 -1.447497 4.099605 0
M  V30 19 N -3.523463 -1.688347 3.437227 0
M  V30 20 C -3.511652 -1.592558 2.095677 0
M  V30 21 N -4.425175 -1.753986 1.104891 0
M  V30 22 C -3.859594 -1.527732 -0.108026 0
M  V30 23 C -2.515011 -1.203664 0.100025 0
M  V30 24 C -2.346314 -1.255748 1.467154 0
M  V30 25 H 3.097536 -3.894205 3.313709 0
M  V30 26 H 0.801031 -2.890288 3.411227 0
M  V30 27 H 4.216913 -1.182955 0.289840 0
M  V30 28 H 2.286735 -1.065390 -1.457828 0
M  V30 29 H 0.542622 -1.008276 -1.181810 0
M  V30 30 H 1.530967 0.242244 -3.210695 0
M  V30 31 H 0.192565 1.012370 -2.326454 0
M  V30 32 H 1.800308 2.569510 -2.722935 0
M  V30 33 H 1.150184 2.644750 -0.324215 0
M  V30 34 H 2.781920 3.234312 -0.703749 0
M  V30 35 H 2.716179 1.713061 1.202689 0
M  V30 36 H 3.650067 0.871856 -0.154351 0
M  V30 37 H 0.634258 1.393324 1.560283 0
M  V30 38 H -0.408329 0.802443 0.163505 0
M  V30 39 H -2.444733 -1.538344 5.193557 0
M  V30 40 H -5.404293 -2.013317 1.290909 0
M  V30 41 H -4.372127 -1.591489 -1.051610 0
M  V30 42 H -1.794742 -0.969580 -0.663614 0
M  V30 END ATOM
M  V30 BEGIN BOND
M  V30 1 1 1 2
M  V30 2 2 2 3
M  V30 3 1 3 4
M  V30 4 2 4 5
M  V30 5 1 5 6
M  V30 6 2 6 7
M  V30 7 1 6 8
M  V30 8 1 8 9
M  V30 9 1 9 10
M  V30 10 1 10 11
M  V30 11 1 11 12
M  V30 12 1 12 13
M  V30 13 1 8 14
M  V30 14 1 14 15
M  V30 15 1 15 16
M  V30 16 2 16 17
M  V30 17 1 17 18
M  V30 18 2 18 19
M  V30 19 1 19 20
M  V30 20 1 20 21
M  V30 21 1 21 22
M  V30 22 2 22 23
M  V30 23 1 23 24
M  V30 24 1 7 2
M  V30 25 1 13 8
M  V30 26 1 24 16
M  V30 27 1 15 5
M  V30 28 2 24 20
M  V30 29 1 3 25
M  V30 30 1 4 26
M  V30 31 1 7 27
M  V30 32 1 9 28
M  V30 33 1 9 29
M  V30 34 1 10 30
M  V30 35 1 10 31
M  V30 36 1 11 32
M  V30 37 1 12 33
M  V30 38 1 12 34
M  V30 39 1 13 35
M  V30 40 1 13 36
M  V30 41 1 14 37
M  V30 42 1 14 38
M  V30 43 1 18 39
M  V30 44 1 21 40
M  V30 45 1 22 41
M  V30 46 1 23 42
M  V30 END BOND
M  V30 END CTAB
M  END
>  <Dataset>  (174) 
ChEMBL_Kinases

>  <Ligand_Instance>  (174) 
nan

>  <PDB_ID>  (174) 
nan

>  <Standardized_SMILES>  (174) 
Fc1ccc2c(c1)C1(CCNCC1)CN2c1ncnc2[nH]ccc12

>  <Name>  (174) 
nan

>  <Pocket>  (174) 
nan

>  <ATP_Site>  (174) 
nan

>  <Peripheral>  (174) 
nan

>  <Num_H_Atoms_ProtBoundConf>  (174) 
nan

>  <Num_Resolved_Atoms>  (174) 
nan

>  <Num_Not_Resolved_Atoms>  (174) 
nan

$$$$
CHEMBL4077172
     RDKit          3D

  0  0  0  0  0  0  0  0  0  0999 V3000
M  V30 BEGIN CTAB
M  V30 COUNTS 34 37 0 0 0
M  V30 BEGIN ATOM
M  V30 1 O 2.993095 -1.107894 2.206019 0
M  V30 2 C 2.524621 -1.425273 1.066376 0
M  V30 3 C 3.182359 -2.177945 -0.002388 0
M  V30 4 C 2.025437 -2.572217 -0.875850 0
M  V30 5 C 2.122911 -3.538586 -1.848404 0
M  V30 6 C 1.011530 -3.823197 -2.595706 0
M  V30 7 Br 1.092386 -5.146772 -3.955148 0
M  V30 8 C -0.157655 -3.114101 -2.322730 0
M  V30 9 C -0.114022 -2.176859 -1.321253 0
M  V30 10 C 0.937213 -1.814795 -0.522855 0
M  V30 11 C 1.175163 -1.043345 0.670627 0
M  V30 12 C 0.319268 -0.391033 1.351509 0
M  V30 13 N 0.254268 0.127582 2.581299 0
M  V30 14 C -0.724685 0.996906 2.850407 0
M  V30 15 C -0.983201 1.637099 4.039477 0
M  V30 16 C -2.070113 2.475594 4.030027 0
M  V30 17 C -2.829234 2.643389 2.893993 0
M  V30 18 C -2.507171 1.969076 1.744838 0
M  V30 19 C -1.429987 1.095927 1.639463 0
M  V30 20 C -0.747319 0.239882 0.765624 0
M  V30 21 C -1.138726 0.517770 -0.466781 0
M  V30 22 O -2.196520 1.132205 -1.073335 0
M  V30 23 H 3.946217 -1.616757 -0.569157 0
M  V30 24 H 3.636077 -3.086175 0.476217 0
M  V30 25 H 3.022284 -4.091642 -2.066640 0
M  V30 26 H -0.983865 -3.392042 -2.947858 0
M  V30 27 H -1.127241 -1.829080 -1.210558 0
M  V30 28 H 1.006189 -0.207137 3.245172 0
M  V30 29 H -0.366265 1.478570 4.902718 0
M  V30 30 H -2.352880 3.020136 4.909903 0
M  V30 31 H -3.706002 3.292454 2.813141 0
M  V30 32 H -3.080107 2.075862 0.839078 0
M  V30 33 H -0.552727 0.256126 -1.318167 0
M  V30 34 H -2.182909 2.052785 -1.470814 0
M  V30 END ATOM
M  V30 BEGIN BOND
M  V30 1 2 1 2
M  V30 2 1 2 3
M  V30 3 1 3 4
M  V30 4 2 4 5
M  V30 5 1 5 6
M  V30 6 1 6 7
M  V30 7 2 6 8
M  V30 8 1 8 9
M  V30 9 2 9 10
M  V30 10 1 10 11
M  V30 11 2 11 12
M  V30 12 1 12 13
M  V30 13 1 13 14
M  V30 14 2 14 15
M  V30 15 1 15 16
M  V30 16 2 16 17
M  V30 17 1 17 18
M  V30 18 2 18 19
M  V30 19 1 19 20
M  V30 20 2 20 21
M  V30 21 1 21 22
M  V30 22 1 11 2
M  V30 23 1 20 12
M  V30 24 1 10 4
M  V30 25 1 19 14
M  V30 26 1 3 23
M  V30 27 1 3 24
M  V30 28 1 5 25
M  V30 29 1 8 26
M  V30 30 1 9 27
M  V30 31 1 13 28
M  V30 32 1 15 29
M  V30 33 1 16 30
M  V30 34 1 17 31
M  V30 35 1 18 32
M  V30 36 1 21 33
M  V30 37 1 22 34
M  V30 END BOND
M  V30 END CTAB
M  END
>  <Dataset>  (175) 
ChEMBL_Kinases

>  <Ligand_Instance>  (175) 
nan

>  <PDB_ID>  (175) 
nan

>  <Standardized_SMILES>  (175) 
O=C1Cc2cc(Br)ccc2/C1=c1/[nH]c2ccccc2/c1=C\O

>  <Name>  (175) 
nan

>  <Pocket>  (175) 
nan

>  <ATP_Site>  (175) 
nan

>  <Peripheral>  (175) 
nan

>  <Num_H_Atoms_ProtBoundConf>  (175) 
nan

>  <Num_Resolved_Atoms>  (175) 
nan

>  <Num_Not_Resolved_Atoms>  (175) 
nan

$$$$
CHEMBL4077170
     RDKit          3D

  0  0  0  0  0  0  0  0  0  0999 V3000
M  V30 BEGIN CTAB
M  V30 COUNTS 30 32 0 0 0
M  V30 BEGIN ATOM
M  V30 1 O 1.346061 -5.501905 2.394322 0
M  V30 2 C 1.917174 -4.806847 1.518637 0
M  V30 3 N 3.127565 -5.047484 0.815854 0
M  V30 4 C 3.397949 -4.253247 -0.301283 0
M  V30 5 O 4.419245 -4.338000 -1.028856 0
M  V30 6 C 2.377435 -3.257233 -0.605199 0
M  V30 7 C 2.117672 -2.482169 -1.629770 0
M  V30 8 C 1.000662 -1.541356 -1.692156 0
M  V30 9 C 0.258052 -1.278391 -2.863503 0
M  V30 10 S -0.985005 0.002604 -2.217370 0
M  V30 11 C -0.255348 -0.089806 -0.551075 0
M  V30 12 C -0.754114 0.723425 0.635914 0
M  V30 13 C -0.115237 0.566660 1.853121 0
M  V30 14 C -0.612273 1.329436 2.888666 0
M  V30 15 C -1.679343 2.191252 2.713441 0
M  V30 16 C -2.054345 2.917179 3.962490 0
M  V30 17 F -3.227593 3.624962 3.804021 0
M  V30 18 F -1.063312 3.862960 4.218964 0
M  V30 19 F -2.172004 2.049769 5.036482 0
M  V30 20 C -2.281382 2.309083 1.473792 0
M  V30 21 C -1.816425 1.565490 0.410903 0
M  V30 22 N 0.623850 -0.866161 -0.606406 0
M  V30 23 S 1.326681 -3.218664 0.873130 0
M  V30 24 H 3.767197 -5.808619 1.163144 0
M  V30 25 H 2.824036 -2.598105 -2.460404 0
M  V30 26 H 0.511214 -1.810187 -3.833166 0
M  V30 27 H 0.703145 -0.129970 1.880168 0
M  V30 28 H -0.086735 1.184017 3.838768 0
M  V30 29 H -3.102732 3.000908 1.426742 0
M  V30 30 H -2.309213 1.683260 -0.536468 0
M  V30 END ATOM
M  V30 BEGIN BOND
M  V30 1 2 1 2
M  V30 2 1 2 3
M  V30 3 1 3 4
M  V30 4 2 4 5
M  V30 5 1 4 6
M  V30 6 2 6 7
M  V30 7 1 7 8
M  V30 8 2 8 9
M  V30 9 1 9 10
M  V30 10 1 10 11
M  V30 11 1 11 12
M  V30 12 2 12 13
M  V30 13 1 13 14
M  V30 14 2 14 15
M  V30 15 1 15 16
M  V30 16 1 16 17
M  V30 17 1 16 18
M  V30 18 1 16 19
M  V30 19 1 15 20
M  V30 20 2 20 21
M  V30 21 2 11 22
M  V30 22 1 6 23
M  V30 23 1 23 2
M  V30 24 1 22 8
M  V30 25 1 21 12
M  V30 26 1 3 24
M  V30 27 1 7 25
M  V30 28 1 9 26
M  V30 29 1 13 27
M  V30 30 1 14 28
M  V30 31 1 20 29
M  V30 32 1 21 30
M  V30 END BOND
M  V30 END CTAB
M  END
>  <Dataset>  (176) 
ChEMBL_Kinases

>  <Ligand_Instance>  (176) 
nan

>  <PDB_ID>  (176) 
nan

>  <Standardized_SMILES>  (176) 
O=C1NC(=O)/C(=C/c2csc(-c3ccc(C(F)(F)F)cc3)n2)S1

>  <Name>  (176) 
nan

>  <Pocket>  (176) 
nan

>  <ATP_Site>  (176) 
nan

>  <Peripheral>  (176) 
nan

>  <Num_H_Atoms_ProtBoundConf>  (176) 
nan

>  <Num_Resolved_Atoms>  (176) 
nan

>  <Num_Not_Resolved_Atoms>  (176) 
nan

$$$$
CHEMBL4077146
     RDKit          3D

  0  0  0  0  0  0  0  0  0  0999 V3000
M  V30 BEGIN CTAB
M  V30 COUNTS 51 54 0 0 0
M  V30 BEGIN ATOM
M  V30 1 C 0.948960 -2.724080 4.955565 0
M  V30 2 C 1.577222 -3.282315 3.734007 0
M  V30 3 C 2.135786 -4.546776 3.759011 0
M  V30 4 C 2.705709 -5.013167 2.592886 0
M  V30 5 C 2.712294 -4.248641 1.465681 0
M  V30 6 F 3.285152 -4.737401 0.322797 0
M  V30 7 C 2.165054 -2.985249 1.405621 0
M  V30 8 C 2.213496 -2.232648 0.160183 0
M  V30 9 C 1.686149 -0.970194 0.036810 0
M  V30 10 C 1.778326 -0.333049 -1.183263 0
M  V30 11 N 1.235538 0.973133 -1.324820 0
M  V30 12 C 0.569274 1.791221 -0.374720 0
M  V30 13 C 1.103964 3.039058 -0.035451 0
M  V30 14 C 0.471944 3.870600 0.895762 0
M  V30 15 N -0.681413 3.466795 1.485401 0
M  V30 16 C -1.215779 2.283406 1.183081 0
M  V30 17 C -2.363505 1.672703 1.648364 0
M  V30 18 N -2.401441 0.488725 0.991052 0
M  V30 19 C -3.415656 -0.535182 1.122333 0
M  V30 20 C -4.497514 -0.246786 0.100325 0 CFG=1
M  V30 21 C -5.042589 1.133595 0.431558 0
M  V30 22 O -3.950379 -0.301724 -1.177743 0
M  V30 23 N -1.361712 0.372865 0.182814 0
M  V30 24 C -0.587833 1.447228 0.252095 0
M  V30 25 C 2.365542 -0.870428 -2.302547 0
M  V30 26 C 2.439638 -0.140974 -3.597929 0
M  V30 27 C 2.882529 -2.155144 -2.113385 0
M  V30 28 N 2.796700 -2.779302 -0.932805 0
M  V30 29 C 1.602135 -2.536756 2.575052 0
M  V30 30 H 1.608404 -2.868756 5.844361 0
M  V30 31 H 0.809560 -1.622433 4.850402 0
M  V30 32 H -0.012253 -3.206142 5.205579 0
M  V30 33 H 2.101073 -5.108475 4.683682 0
M  V30 34 H 3.134920 -6.016406 2.657669 0
M  V30 35 H 1.208382 -0.479995 0.873833 0
M  V30 36 H 1.262343 1.529214 -2.206253 0
M  V30 37 H 2.008262 3.410283 -0.466216 0
M  V30 38 H 0.888209 4.836585 1.156728 0
M  V30 39 H -3.049206 2.057041 2.359433 0
M  V30 40 H -3.031051 -1.547803 0.902961 0
M  V30 41 H -3.895458 -0.529303 2.120927 0
M  V30 42 H -5.318230 -0.990496 0.244776 0
M  V30 43 H -5.997853 1.320905 -0.067450 0
M  V30 44 H -5.133475 1.173530 1.537410 0
M  V30 45 H -4.291014 1.889249 0.127010 0
M  V30 46 H -3.104273 -0.795404 -1.160969 0
M  V30 47 H 3.219255 0.643079 -3.578597 0
M  V30 48 H 1.491796 0.358766 -3.862553 0
M  V30 49 H 2.666449 -0.873953 -4.386459 0
M  V30 50 H 3.366404 -2.647147 -2.964446 0
M  V30 51 H 1.157868 -1.558558 2.595100 0
M  V30 END ATOM
M  V30 BEGIN BOND
M  V30 1 1 1 2
M  V30 2 2 2 3
M  V30 3 1 3 4
M  V30 4 2 4 5
M  V30 5 1 5 6
M  V30 6 1 5 7
M  V30 7 1 7 8
M  V30 8 2 8 9
M  V30 9 1 9 10
M  V30 10 1 10 11
M  V30 11 1 11 12
M  V30 12 2 12 13
M  V30 13 1 13 14
M  V30 14 2 14 15
M  V30 15 1 15 16
M  V30 16 2 16 17
M  V30 17 1 17 18
M  V30 18 1 18 19
M  V30 19 1 19 20
M  V30 20 1 20 21
M  V30 21 1 20 22
M  V30 22 1 18 23
M  V30 23 2 23 24
M  V30 24 2 10 25
M  V30 25 1 25 26
M  V30 26 1 25 27
M  V30 27 2 27 28
M  V30 28 2 7 29
M  V30 29 1 29 2
M  V30 30 1 28 8
M  V30 31 1 24 12
M  V30 32 1 24 16
M  V30 33 1 1 30
M  V30 34 1 1 31
M  V30 35 1 1 32
M  V30 36 1 3 33
M  V30 37 1 4 34
M  V30 38 1 9 35
M  V30 39 1 11 36
M  V30 40 1 13 37
M  V30 41 1 14 38
M  V30 42 1 17 39
M  V30 43 1 19 40
M  V30 44 1 19 41
M  V30 45 1 20 42 CFG=3
M  V30 46 1 21 43
M  V30 47 1 21 44
M  V30 48 1 21 45
M  V30 49 1 22 46
M  V30 50 1 26 47
M  V30 51 1 26 48
M  V30 52 1 26 49
M  V30 53 1 27 50
M  V30 54 1 29 51
M  V30 END BOND
M  V30 END CTAB
M  END
>  <Dataset>  (177) 
ChEMBL_Kinases

>  <Ligand_Instance>  (177) 
nan

>  <PDB_ID>  (177) 
nan

>  <Standardized_SMILES>  (177) 
Cc1ccc(F)c(-c2cc(Nc3ccnc4cn(C[C@@H](C)O)nc34)c(C)cn2)c1

>  <Name>  (177) 
nan

>  <Pocket>  (177) 
nan

>  <ATP_Site>  (177) 
nan

>  <Peripheral>  (177) 
nan

>  <Num_H_Atoms_ProtBoundConf>  (177) 
nan

>  <Num_Resolved_Atoms>  (177) 
nan

>  <Num_Not_Resolved_Atoms>  (177) 
nan

$$$$
CHEMBL4077133
     RDKit          3D

  0  0  0  0  0  0  0  0  0  0999 V3000
M  V30 BEGIN CTAB
M  V30 COUNTS 51 54 0 0 0
M  V30 BEGIN ATOM
M  V30 1 C 1.576518 -6.354924 2.276045 0
M  V30 2 N 1.903665 -5.481818 1.184706 0
M  V30 3 C 1.852035 -4.071552 1.311128 0
M  V30 4 O 1.484072 -3.777817 2.500939 0
M  V30 5 C 2.147741 -3.051987 0.317823 0
M  V30 6 C 2.004384 -1.736999 0.743093 0
M  V30 7 C 2.250213 -0.674211 -0.089746 0
M  V30 8 C 2.067207 0.709453 0.462304 0 CFG=2
M  V30 9 C 3.030498 0.984992 1.578014 0
M  V30 10 C 2.679219 2.175782 2.412673 0
M  V30 11 N 1.290873 2.481365 2.458943 0
M  V30 12 C 0.551757 1.270896 2.290497 0
M  V30 13 C 0.632714 0.890152 0.822732 0 CFG=1
M  V30 14 C 0.022846 1.939606 -0.057889 0
M  V30 15 O -1.300124 2.240408 0.138394 0
M  V30 16 C -2.430506 1.511145 0.042391 0
M  V30 17 C -3.504853 2.353279 0.373877 0
M  V30 18 C -4.831677 1.896999 0.370684 0
M  V30 19 C -5.103238 0.588152 0.034867 0
M  V30 20 C -4.058498 -0.248589 -0.292583 0
M  V30 21 C -2.765476 0.215984 -0.284145 0
M  V30 22 O -4.530330 -1.512394 -0.597429 0
M  V30 23 C -5.919441 -1.530952 -0.242958 0
M  V30 24 O -6.275603 -0.174562 -0.066984 0
M  V30 25 C 2.658580 -0.880740 -1.411634 0
M  V30 26 C 2.809114 -2.174725 -1.860862 0
M  V30 27 C 2.550606 -3.203895 -0.987814 0
M  V30 28 F 2.693945 -4.475682 -1.414062 0
M  V30 29 H 1.801231 -5.847269 3.246620 0
M  V30 30 H 2.235292 -7.233153 2.222226 0
M  V30 31 H 0.505559 -6.640673 2.323205 0
M  V30 32 H 2.191290 -5.860472 0.258959 0
M  V30 33 H 1.691293 -1.523437 1.754887 0
M  V30 34 H 2.314685 1.399834 -0.370689 0
M  V30 35 H 4.047113 1.094618 1.158542 0
M  V30 36 H 3.045446 0.093108 2.238249 0
M  V30 37 H 3.221811 3.063281 2.024081 0
M  V30 38 H 3.028194 2.059905 3.476608 0
M  V30 39 H 0.948723 3.244228 1.872519 0
M  V30 40 H -0.491705 1.324902 2.649125 0
M  V30 41 H 1.046674 0.488928 2.887855 0
M  V30 42 H 0.098099 -0.082430 0.644601 0
M  V30 43 H 0.623917 2.872446 -0.094310 0
M  V30 44 H 0.111468 1.527281 -1.111857 0
M  V30 45 H -3.510285 3.414705 0.667074 0
M  V30 46 H -5.710103 2.472462 0.610505 0
M  V30 47 H -1.897610 -0.359233 -0.530835 0
M  V30 48 H -5.971924 -2.093141 0.732118 0
M  V30 49 H -6.537349 -1.972852 -1.024640 0
M  V30 50 H 2.849185 -0.052461 -2.057468 0
M  V30 51 H 3.120454 -2.424652 -2.865714 0
M  V30 END ATOM
M  V30 BEGIN BOND
M  V30 1 1 1 2
M  V30 2 1 2 3
M  V30 3 2 3 4
M  V30 4 1 3 5
M  V30 5 2 5 6
M  V30 6 1 6 7
M  V30 7 1 7 8
M  V30 8 1 8 9
M  V30 9 1 9 10
M  V30 10 1 10 11
M  V30 11 1 11 12
M  V30 12 1 12 13
M  V30 13 1 13 14
M  V30 14 1 14 15
M  V30 15 1 15 16
M  V30 16 2 16 17
M  V30 17 1 17 18
M  V30 18 2 18 19
M  V30 19 1 19 20
M  V30 20 2 20 21
M  V30 21 1 20 22
M  V30 22 1 22 23
M  V30 23 1 23 24
M  V30 24 2 7 25
M  V30 25 1 25 26
M  V30 26 2 26 27
M  V30 27 1 27 28
M  V30 28 1 27 5
M  V30 29 1 13 8
M  V30 30 1 21 16
M  V30 31 1 24 19
M  V30 32 1 1 29
M  V30 33 1 1 30
M  V30 34 1 1 31
M  V30 35 1 2 32
M  V30 36 1 6 33
M  V30 37 1 8 34 CFG=3
M  V30 38 1 9 35
M  V30 39 1 9 36
M  V30 40 1 10 37
M  V30 41 1 10 38
M  V30 42 1 11 39
M  V30 43 1 12 40
M  V30 44 1 12 41
M  V30 45 1 13 42 CFG=1
M  V30 46 1 14 43
M  V30 47 1 14 44
M  V30 48 1 17 45
M  V30 49 1 18 46
M  V30 50 1 21 47
M  V30 51 1 23 48
M  V30 52 1 23 49
M  V30 53 1 25 50
M  V30 54 1 26 51
M  V30 END BOND
M  V30 END CTAB
M  END
>  <Dataset>  (178) 
ChEMBL_Kinases

>  <Ligand_Instance>  (178) 
nan

>  <PDB_ID>  (178) 
nan

>  <Standardized_SMILES>  (178) 
CNC(=O)c1cc([C@@H]2CCNC[C@H]2COc2ccc3c(c2)OCO3)ccc1F

>  <Name>  (178) 
nan

>  <Pocket>  (178) 
nan

>  <ATP_Site>  (178) 
nan

>  <Peripheral>  (178) 
nan

>  <Num_H_Atoms_ProtBoundConf>  (178) 
nan

>  <Num_Resolved_Atoms>  (178) 
nan

>  <Num_Not_Resolved_Atoms>  (178) 
nan

$$$$
CHEMBL485611
     RDKit          3D

  0  0  0  0  0  0  0  0  0  0999 V3000
M  V30 BEGIN CTAB
M  V30 COUNTS 54 58 0 0 0
M  V30 BEGIN ATOM
M  V30 1 C 1.434292 -1.181482 -2.457493 0
M  V30 2 C 0.188174 -1.433796 -1.699247 0
M  V30 3 C -0.020852 -1.023636 -0.470457 0
M  V30 4 C 0.960615 -0.237171 0.313396 0
M  V30 5 O 0.855546 0.229326 1.512092 0
M  V30 6 N 2.250418 0.290193 0.163411 0
M  V30 7 C 2.665818 0.983757 1.337477 0
M  V30 8 C 3.337440 0.394767 2.395086 0
M  V30 9 C 3.712889 1.132251 3.510611 0
M  V30 10 C 3.400982 2.478281 3.546583 0
M  V30 11 N 3.643795 3.424752 4.498795 0
M  V30 12 N 3.138139 4.584122 4.054415 0
M  V30 13 C 2.581599 4.399942 2.847613 0
M  V30 14 C 1.920524 5.469063 2.047157 0
M  V30 15 C 2.730948 3.072764 2.494856 0
M  V30 16 C 2.361482 2.329023 1.388260 0
M  V30 17 C -1.150711 -1.254320 0.458308 0
M  V30 18 C -0.904330 -2.497295 1.316391 0
M  V30 19 C -2.069116 -3.211222 1.667819 0
M  V30 20 C -2.158219 -4.335959 2.475458 0
M  V30 21 C -0.992550 -4.802899 2.985574 0
M  V30 22 Cl -1.011726 -6.208339 4.009678 0
M  V30 23 C 0.186763 -4.172958 2.696367 0
M  V30 24 C 0.193496 -3.073275 1.894138 0
M  V30 25 F 1.393790 -2.537283 1.618420 0
M  V30 26 N -2.285090 -1.709076 -0.392990 0
M  V30 27 C -2.151905 -2.109520 -1.590947 0
M  V30 28 C -3.372968 -2.534157 -2.265212 0
M  V30 29 C -3.427784 -2.998382 -3.559590 0
M  V30 30 C -4.588434 -3.397196 -4.188794 0
M  V30 31 N -5.746080 -3.342147 -3.530525 0
M  V30 32 C -5.789256 -2.909077 -2.282066 0
M  V30 33 Cl -7.308280 -2.826551 -1.389094 0
M  V30 34 C -4.624706 -2.511780 -1.658886 0
M  V30 35 N -0.949816 -2.021683 -2.322290 0
M  V30 36 H 1.591461 -0.143050 -2.755234 0
M  V30 37 H 1.254599 -1.705125 -3.452998 0
M  V30 38 H 2.319483 -1.730135 -2.074189 0
M  V30 39 H 2.679740 0.089990 -0.766584 0
M  V30 40 H 3.559677 -0.651755 2.326472 0
M  V30 41 H 4.230907 0.693328 4.333881 0
M  V30 42 H 4.124907 3.332899 5.418619 0
M  V30 43 H 1.812540 5.174082 0.980863 0
M  V30 44 H 2.401006 6.462610 2.166094 0
M  V30 45 H 0.864565 5.594787 2.422800 0
M  V30 46 H 1.831737 2.864174 0.588770 0
M  V30 47 H -1.487456 -0.411008 1.035134 0
M  V30 48 H -3.035089 -2.866875 1.276641 0
M  V30 49 H -3.110696 -4.797888 2.674019 0
M  V30 50 H 1.112374 -4.535468 3.095778 0
M  V30 51 H -2.536566 -3.070688 -4.150089 0
M  V30 52 H -4.573970 -3.757707 -5.218781 0
M  V30 53 H -4.697738 -2.156705 -0.618944 0
M  V30 54 H -0.855410 -2.367954 -3.297866 0
M  V30 END ATOM
M  V30 BEGIN BOND
M  V30 1 1 1 2
M  V30 2 2 2 3
M  V30 3 1 3 4
M  V30 4 2 4 5
M  V30 5 1 4 6
M  V30 6 1 6 7
M  V30 7 2 7 8
M  V30 8 1 8 9
M  V30 9 2 9 10
M  V30 10 1 10 11
M  V30 11 1 11 12
M  V30 12 2 12 13
M  V30 13 1 13 14
M  V30 14 1 13 15
M  V30 15 2 15 16
M  V30 16 1 3 17
M  V30 17 1 17 18
M  V30 18 2 18 19
M  V30 19 1 19 20
M  V30 20 2 20 21
M  V30 21 1 21 22
M  V30 22 1 21 23
M  V30 23 2 23 24
M  V30 24 1 24 25
M  V30 25 1 17 26
M  V30 26 2 26 27
M  V30 27 1 27 28
M  V30 28 2 28 29
M  V30 29 1 29 30
M  V30 30 2 30 31
M  V30 31 1 31 32
M  V30 32 1 32 33
M  V30 33 2 32 34
M  V30 34 1 27 35
M  V30 35 1 35 2
M  V30 36 1 16 7
M  V30 37 1 24 18
M  V30 38 1 34 28
M  V30 39 1 15 10
M  V30 40 1 1 36
M  V30 41 1 1 37
M  V30 42 1 1 38
M  V30 43 1 6 39
M  V30 44 1 8 40
M  V30 45 1 9 41
M  V30 46 1 11 42
M  V30 47 1 14 43
M  V30 48 1 14 44
M  V30 49 1 14 45
M  V30 50 1 16 46
M  V30 51 1 17 47
M  V30 52 1 19 48
M  V30 53 1 20 49
M  V30 54 1 23 50
M  V30 55 1 29 51
M  V30 56 1 30 52
M  V30 57 1 34 53
M  V30 58 1 35 54
M  V30 END BOND
M  V30 END CTAB
M  END
>  <Dataset>  (179) 
ChEMBL_Kinases

>  <Ligand_Instance>  (179) 
nan

>  <PDB_ID>  (179) 
nan

>  <Standardized_SMILES>  (179) 
CC1=C(C(=O)Nc2ccc3[nH]nc(C)c3c2)C(c2ccc(Cl)cc2F)N=C(c2ccnc(Cl)c2)N1

>  <Name>  (179) 
nan

>  <Pocket>  (179) 
nan

>  <ATP_Site>  (179) 
nan

>  <Peripheral>  (179) 
nan

>  <Num_H_Atoms_ProtBoundConf>  (179) 
nan

>  <Num_Resolved_Atoms>  (179) 
nan

>  <Num_Not_Resolved_Atoms>  (179) 
nan

$$$$
CHEMBL485612
     RDKit          3D

  0  0  0  0  0  0  0  0  0  0999 V3000
M  V30 BEGIN CTAB
M  V30 COUNTS 55 59 0 0 0
M  V30 BEGIN ATOM
M  V30 1 C 6.589378 -5.159164 0.944583 0
M  V30 2 O 5.795369 -4.412479 0.249130 0
M  V30 3 C 5.066785 -3.708585 -0.511151 0
M  V30 4 C 3.997537 -2.873664 -0.356298 0
M  V30 5 C 3.394937 -2.221600 -1.486911 0
M  V30 6 C 2.215186 -1.553468 -0.840102 0
M  V30 7 N 1.818135 -1.503363 0.337893 0
M  V30 8 C 0.714518 -0.874466 0.945039 0
M  V30 9 C 1.181857 0.369642 1.684690 0
M  V30 10 C 1.430717 1.486820 0.906631 0
M  V30 11 C 1.877646 2.728696 1.376789 0
M  V30 12 C 2.043598 2.718916 2.759784 0
M  V30 13 Cl 2.608736 4.287760 3.391444 0
M  V30 14 C 1.812193 1.649469 3.591689 0
M  V30 15 C 1.376770 0.459833 3.046102 0
M  V30 16 F 1.123708 -0.637668 3.781654 0
M  V30 17 C -0.386204 -0.442396 -0.006265 0
M  V30 18 C -1.627089 -0.240801 0.699483 0
M  V30 19 O -1.765393 -0.261613 1.955853 0
M  V30 20 N -2.900293 0.005656 0.263977 0
M  V30 21 C -4.225792 0.178168 0.775248 0
M  V30 22 C -4.632382 1.059118 1.775246 0
M  V30 23 C -5.950954 1.013464 2.126775 0
M  V30 24 C -6.702793 1.693503 3.068889 0
M  V30 25 N -7.981577 1.305049 3.071433 0
M  V30 26 N -8.125049 0.340359 2.122730 0
M  V30 27 C -6.904688 0.200948 1.591345 0
M  V30 28 C -6.551004 -0.699139 0.579471 0
M  V30 29 C -5.212459 -0.654489 0.227862 0
M  V30 30 F -4.825000 -1.521236 -0.776425 0
M  V30 31 C -0.015912 -0.450619 -1.265202 0
M  V30 32 C -1.067823 -0.021271 -2.202119 0
M  V30 33 N 1.223666 -0.970245 -1.711352 0
M  V30 34 C 3.797426 -2.327535 -2.896663 0
M  V30 35 C 4.905357 -3.244154 -2.748813 0
M  V30 36 N 5.540089 -3.899018 -1.781164 0
M  V30 37 H 6.265519 -5.384904 2.024040 0
M  V30 38 H 6.746410 -6.207151 0.519774 0
M  V30 39 H 7.629732 -4.741272 1.133242 0
M  V30 40 H 3.819323 -2.901680 0.754946 0
M  V30 41 H 0.318472 -1.540260 1.726096 0
M  V30 42 H 1.277737 1.419543 -0.149826 0
M  V30 43 H 2.050704 3.562827 0.741134 0
M  V30 44 H 1.965923 1.754089 4.672201 0
M  V30 45 H -3.045989 0.090151 -0.769223 0
M  V30 46 H -3.921660 1.716192 2.215503 0
M  V30 47 H -6.362228 2.471371 3.772798 0
M  V30 48 H -9.005969 -0.171653 1.878943 0
M  V30 49 H -7.184376 -1.388247 0.055917 0
M  V30 50 H -1.427946 1.026174 -2.018953 0
M  V30 51 H -1.803107 -0.775926 -2.434112 0
M  V30 52 H -0.518524 0.124172 -3.199619 0
M  V30 53 H 1.355202 -0.885110 -2.752774 0
M  V30 54 H 3.073915 -1.717284 -2.897459 0
M  V30 55 H 5.072749 -3.212394 -3.856656 0
M  V30 END ATOM
M  V30 BEGIN BOND
M  V30 1 1 1 2
M  V30 2 1 2 3
M  V30 3 2 3 4
M  V30 4 1 4 5
M  V30 5 1 5 6
M  V30 6 2 6 7
M  V30 7 1 7 8
M  V30 8 1 8 9
M  V30 9 2 9 10
M  V30 10 1 10 11
M  V30 11 2 11 12
M  V30 12 1 12 13
M  V30 13 1 12 14
M  V30 14 2 14 15
M  V30 15 1 15 16
M  V30 16 1 8 17
M  V30 17 1 17 18
M  V30 18 2 18 19
M  V30 19 1 18 20
M  V30 20 1 20 21
M  V30 21 2 21 22
M  V30 22 1 22 23
M  V30 23 1 23 24
M  V30 24 2 24 25
M  V30 25 1 25 26
M  V30 26 1 26 27
M  V30 27 1 27 28
M  V30 28 2 28 29
M  V30 29 1 29 30
M  V30 30 2 17 31
M  V30 31 1 31 32
M  V30 32 1 31 33
M  V30 33 2 5 34
M  V30 34 1 34 35
M  V30 35 2 35 36
M  V30 36 1 36 3
M  V30 37 1 33 6
M  V30 38 1 15 9
M  V30 39 1 29 21
M  V30 40 2 27 23
M  V30 41 1 1 37
M  V30 42 1 1 38
M  V30 43 1 1 39
M  V30 44 1 4 40
M  V30 45 1 8 41
M  V30 46 1 10 42
M  V30 47 1 11 43
M  V30 48 1 14 44
M  V30 49 1 20 45
M  V30 50 1 22 46
M  V30 51 1 24 47
M  V30 52 1 26 48
M  V30 53 1 28 49
M  V30 54 1 32 50
M  V30 55 1 32 51
M  V30 56 1 32 52
M  V30 57 1 33 53
M  V30 58 1 34 54
M  V30 59 1 35 55
M  V30 END BOND
M  V30 END CTAB
M  END
>  <Dataset>  (180) 
ChEMBL_Kinases

>  <Ligand_Instance>  (180) 
nan

>  <PDB_ID>  (180) 
nan

>  <Standardized_SMILES>  (180) 
COc1cc(C2=NC(c3ccc(Cl)cc3F)C(C(=O)Nc3cc4cn[nH]c4cc3F)=C(C)N2)ccn1

>  <Name>  (180) 
nan

>  <Pocket>  (180) 
nan

>  <ATP_Site>  (180) 
nan

>  <Peripheral>  (180) 
nan

>  <Num_H_Atoms_ProtBoundConf>  (180) 
nan

>  <Num_Resolved_Atoms>  (180) 
nan

>  <Num_Not_Resolved_Atoms>  (180) 
nan

$$$$
CHEMBL4077106
     RDKit          3D

  0  0  0  0  0  0  0  0  0  0999 V3000
M  V30 BEGIN CTAB
M  V30 COUNTS 64 68 0 0 0
M  V30 BEGIN ATOM
M  V30 1 O 3.408418 2.520955 4.605293 0
M  V30 2 C 3.965409 3.538929 5.067088 0
M  V30 3 N 4.364479 4.454031 4.066653 0
M  V30 4 C 4.025491 3.976291 2.753758 0
M  V30 5 C 2.787929 4.308677 2.240001 0
M  V30 6 C 2.438413 3.869812 0.995339 0
M  V30 7 N 1.226138 4.098539 0.287488 0
M  V30 8 C 0.400583 3.005346 -0.107800 0
M  V30 9 C -0.739288 3.177894 -0.889368 0
M  V30 10 C -1.524388 2.084715 -1.254069 0
M  V30 11 C -1.188796 0.808894 -0.848465 0
M  V30 12 C -0.056531 0.647599 -0.073301 0
M  V30 13 C 0.730471 1.720406 0.295500 0
M  V30 14 O 0.341390 -0.607678 0.371508 0
M  V30 15 C -0.393893 -1.723521 0.819613 0
M  V30 16 C -1.299776 -2.288703 -0.183371 0
M  V30 17 C -1.318462 -3.665402 -0.092546 0
M  V30 18 C -2.128166 -4.351616 -0.974431 0
M  V30 19 C -2.897723 -3.705622 -1.918985 0
M  V30 20 C -3.770531 -4.381421 -2.874379 0
M  V30 21 O -4.468144 -3.781172 -3.743060 0
M  V30 22 N -3.905343 -5.795218 -2.900996 0
M  V30 23 C -4.706109 -6.606665 -3.759650 0
M  V30 24 C -5.719065 -7.439742 -3.002390 0
M  V30 25 O -5.112929 -8.306653 -2.097916 0
M  V30 26 C -3.823109 -7.560931 -4.532985 0
M  V30 27 O -3.132361 -8.376715 -3.614890 0
M  V30 28 C -2.852789 -2.313373 -1.980907 0
M  V30 29 C -2.060714 -1.581880 -1.122814 0
M  V30 30 C -2.169389 -0.141548 -1.365925 0
M  V30 31 O -3.143266 0.245170 -2.039791 0
M  V30 32 C 3.331511 3.089701 0.250528 0
M  V30 33 F 3.152737 2.573975 -0.992026 0
M  V30 34 C 4.566490 2.773540 0.795499 0
M  V30 35 C 4.941373 3.208003 2.055955 0
M  V30 36 F 6.150651 2.894418 2.582597 0
M  V30 37 C 4.207686 3.813689 6.477520 0
M  V30 38 C 3.753033 2.851716 7.291084 0
M  V30 39 C 3.962702 3.066801 8.665673 0
M  V30 40 S 4.851432 4.724598 8.780660 0
M  V30 41 C 4.841112 4.946790 6.932550 0
M  V30 42 H 4.848069 5.357557 4.337167 0
M  V30 43 H 2.040432 4.904897 2.745557 0
M  V30 44 H 0.890468 5.050856 0.029618 0
M  V30 45 H -1.003900 4.191612 -1.210183 0
M  V30 46 H -2.403082 2.238363 -1.859689 0
M  V30 47 H 1.586327 1.483563 0.900830 0
M  V30 48 H 0.339954 -2.476557 1.174791 0
M  V30 49 H -1.003929 -1.486880 1.731446 0
M  V30 50 H -0.729782 -4.210117 0.634174 0
M  V30 51 H -2.163660 -5.426403 -0.927118 0
M  V30 52 H -3.383190 -6.404021 -2.236103 0
M  V30 53 H -5.292067 -6.026527 -4.506349 0
M  V30 54 H -6.462425 -6.749894 -2.509206 0
M  V30 55 H -6.335617 -8.051694 -3.689166 0
M  V30 56 H -5.052998 -9.202740 -2.498441 0
M  V30 57 H -3.060626 -7.030323 -5.143354 0
M  V30 58 H -4.438934 -8.211170 -5.193565 0
M  V30 59 H -2.299325 -7.905290 -3.344979 0
M  V30 60 H -3.435120 -1.763807 -2.700598 0
M  V30 61 H 5.318488 2.173547 0.287719 0
M  V30 62 H 3.246699 1.909559 7.207287 0
M  V30 63 H 3.752753 2.544748 9.636415 0
M  V30 64 H 5.215252 5.732711 6.303222 0
M  V30 END ATOM
M  V30 BEGIN BOND
M  V30 1 2 1 2
M  V30 2 1 2 3
M  V30 3 1 3 4
M  V30 4 2 4 5
M  V30 5 1 5 6
M  V30 6 1 6 7
M  V30 7 1 7 8
M  V30 8 2 8 9
M  V30 9 1 9 10
M  V30 10 2 10 11
M  V30 11 1 11 12
M  V30 12 2 12 13
M  V30 13 1 12 14
M  V30 14 1 14 15
M  V30 15 1 15 16
M  V30 16 2 16 17
M  V30 17 1 17 18
M  V30 18 2 18 19
M  V30 19 1 19 20
M  V30 20 2 20 21
M  V30 21 1 20 22
M  V30 22 1 22 23
M  V30 23 1 23 24
M  V30 24 1 24 25
M  V30 25 1 23 26
M  V30 26 1 26 27
M  V30 27 1 19 28
M  V30 28 2 28 29
M  V30 29 1 29 30
M  V30 30 2 30 31
M  V30 31 2 6 32
M  V30 32 1 32 33
M  V30 33 1 32 34
M  V30 34 2 34 35
M  V30 35 1 35 36
M  V30 36 1 2 37
M  V30 37 1 37 38
M  V30 38 2 38 39
M  V30 39 1 39 40
M  V30 40 1 40 41
M  V30 41 1 35 4
M  V30 42 2 41 37
M  V30 43 1 13 8
M  V30 44 1 29 16
M  V30 45 1 30 11
M  V30 46 1 3 42
M  V30 47 1 5 43
M  V30 48 1 7 44
M  V30 49 1 9 45
M  V30 50 1 10 46
M  V30 51 1 13 47
M  V30 52 1 15 48
M  V30 53 1 15 49
M  V30 54 1 17 50
M  V30 55 1 18 51
M  V30 56 1 22 52
M  V30 57 1 23 53
M  V30 58 1 24 54
M  V30 59 1 24 55
M  V30 60 1 25 56
M  V30 61 1 26 57
M  V30 62 1 26 58
M  V30 63 1 27 59
M  V30 64 1 28 60
M  V30 65 1 34 61
M  V30 66 1 38 62
M  V30 67 1 39 63
M  V30 68 1 41 64
M  V30 END BOND
M  V30 END CTAB
M  END
>  <Dataset>  (181) 
ChEMBL_Kinases

>  <Ligand_Instance>  (181) 
nan

>  <PDB_ID>  (181) 
nan

>  <Standardized_SMILES>  (181) 
O=C(Nc1cc(Nc2ccc3c(c2)OCc2ccc(C(=O)NC(CO)CO)cc2C3=O)c(F)cc1F)c1ccsc1

>  <Name>  (181) 
nan

>  <Pocket>  (181) 
nan

>  <ATP_Site>  (181) 
nan

>  <Peripheral>  (181) 
nan

>  <Num_H_Atoms_ProtBoundConf>  (181) 
nan

>  <Num_Resolved_Atoms>  (181) 
nan

>  <Num_Not_Resolved_Atoms>  (181) 
nan

$$$$
CHEMBL4077048
     RDKit          3D

  0  0  0  0  0  0  0  0  0  0999 V3000
M  V30 BEGIN CTAB
M  V30 COUNTS 49 52 0 0 0
M  V30 BEGIN ATOM
M  V30 1 C -0.407527 1.421795 2.751499 0
M  V30 2 C 0.463271 0.219389 2.382787 0 CFG=2
M  V30 3 C 1.891077 0.538886 2.180105 0
M  V30 4 N 2.380621 0.509345 0.838228 0
M  V30 5 C 3.703590 0.203626 0.414899 0
M  V30 6 C 4.604946 -0.474114 1.187100 0
M  V30 7 C 5.896131 -0.781852 0.816544 0
M  V30 8 C 6.307111 -0.361809 -0.454191 0
M  V30 9 Cl 7.944182 -0.693864 -1.048585 0
M  V30 10 C 5.402820 0.335683 -1.268992 0
M  V30 11 C 4.104006 0.628137 -0.858834 0
M  V30 12 C 1.299593 0.821055 -0.089270 0
M  V30 13 C 0.406975 -0.438618 -0.018490 0
M  V30 14 N -0.137601 -0.560276 1.320839 0
M  V30 15 C -1.192365 -1.505579 1.209407 0
M  V30 16 N -2.317861 -1.033167 0.634251 0
M  V30 17 C -3.410705 -1.766088 0.439638 0
M  V30 18 C -4.571413 -1.166388 -0.205276 0
M  V30 19 C -4.610049 0.142841 -0.633650 0
M  V30 20 C -5.727357 0.697083 -1.262751 0
M  V30 21 N -6.792231 -0.093167 -1.445839 0
M  V30 22 C -6.768222 -1.371426 -1.033125 0
M  V30 23 N -5.684958 -1.936381 -0.415726 0
M  V30 24 C -3.390132 -3.067787 0.846174 0
M  V30 25 C -2.220367 -3.547661 1.440975 0
M  V30 26 O -2.124615 -4.716376 1.836199 0
M  V30 27 N -1.142047 -2.780393 1.619001 0
M  V30 28 C 0.108227 -3.155031 2.213151 0
M  V30 29 H -1.279557 1.048502 3.370010 0
M  V30 30 H 0.139575 2.111461 3.391486 0
M  V30 31 H -0.854372 1.927993 1.901296 0
M  V30 32 H 0.416453 -0.416622 3.325973 0
M  V30 33 H 2.043626 1.600858 2.541950 0
M  V30 34 H 2.579726 -0.046502 2.863194 0
M  V30 35 H 4.319052 -0.812019 2.163773 0
M  V30 36 H 6.594270 -1.325143 1.452580 0
M  V30 37 H 5.785817 0.634039 -2.243906 0
M  V30 38 H 3.539628 1.169270 -1.587053 0
M  V30 39 H 0.730187 1.712185 0.172218 0
M  V30 40 H 1.634485 0.855456 -1.147926 0
M  V30 41 H -0.339484 -0.280251 -0.807332 0
M  V30 42 H 1.024658 -1.314968 -0.297101 0
M  V30 43 H -3.689703 0.671431 -0.426503 0
M  V30 44 H -5.533385 1.749961 -1.515419 0
M  V30 45 H -7.660564 -1.936830 -1.220795 0
M  V30 46 H -4.245898 -3.720078 0.719836 0
M  V30 47 H 0.175289 -2.945041 3.310420 0
M  V30 48 H 0.969351 -2.609591 1.778067 0
M  V30 49 H 0.228645 -4.249425 2.104763 0
M  V30 END ATOM
M  V30 BEGIN BOND
M  V30 1 1 1 2
M  V30 2 1 2 3
M  V30 3 1 3 4
M  V30 4 1 4 5
M  V30 5 2 5 6
M  V30 6 1 6 7
M  V30 7 2 7 8
M  V30 8 1 8 9
M  V30 9 1 8 10
M  V30 10 2 10 11
M  V30 11 1 4 12
M  V30 12 1 12 13
M  V30 13 1 13 14
M  V30 14 1 14 15
M  V30 15 2 15 16
M  V30 16 1 16 17
M  V30 17 1 17 18
M  V30 18 2 18 19
M  V30 19 1 19 20
M  V30 20 2 20 21
M  V30 21 1 21 22
M  V30 22 2 22 23
M  V30 23 2 17 24
M  V30 24 1 24 25
M  V30 25 2 25 26
M  V30 26 1 25 27
M  V30 27 1 27 28
M  V30 28 1 14 2
M  V30 29 1 27 15
M  V30 30 1 11 5
M  V30 31 1 23 18
M  V30 32 1 1 29
M  V30 33 1 1 30
M  V30 34 1 1 31
M  V30 35 1 2 32 CFG=1
M  V30 36 1 3 33
M  V30 37 1 3 34
M  V30 38 1 6 35
M  V30 39 1 7 36
M  V30 40 1 10 37
M  V30 41 1 11 38
M  V30 42 1 12 39
M  V30 43 1 12 40
M  V30 44 1 13 41
M  V30 45 1 13 42
M  V30 46 1 19 43
M  V30 47 1 20 44
M  V30 48 1 22 45
M  V30 49 1 24 46
M  V30 50 1 28 47
M  V30 51 1 28 48
M  V30 52 1 28 49
M  V30 END BOND
M  V30 END CTAB
M  END
>  <Dataset>  (182) 
ChEMBL_Kinases

>  <Ligand_Instance>  (182) 
nan

>  <PDB_ID>  (182) 
nan

>  <Standardized_SMILES>  (182) 
C[C@@H]1CN(c2ccc(Cl)cc2)CCN1c1nc(-c2ccncn2)cc(=O)n1C

>  <Name>  (182) 
nan

>  <Pocket>  (182) 
nan

>  <ATP_Site>  (182) 
nan

>  <Peripheral>  (182) 
nan

>  <Num_H_Atoms_ProtBoundConf>  (182) 
nan

>  <Num_Resolved_Atoms>  (182) 
nan

>  <Num_Not_Resolved_Atoms>  (182) 
nan

$$$$
CHEMBL4077034
     RDKit          3D

  0  0  0  0  0  0  0  0  0  0999 V3000
M  V30 BEGIN CTAB
M  V30 COUNTS 40 43 0 0 0
M  V30 BEGIN ATOM
M  V30 1 C -0.103614 -6.108946 2.283074 0
M  V30 2 C -0.050069 -4.986983 1.297715 0
M  V30 3 C 0.003345 -3.708043 1.799390 0
M  V30 4 C 0.055844 -2.558174 1.044217 0
M  V30 5 C 0.102114 -1.167529 1.457790 0
M  V30 6 C 1.201898 -0.505121 0.917975 0
M  V30 7 C 1.411422 0.832211 1.250569 0
M  V30 8 N 2.449410 1.706098 0.823702 0
M  V30 9 C 2.195381 2.530109 -0.323274 0
M  V30 10 N 1.065881 2.585541 -1.050159 0
M  V30 11 N 1.158341 3.444890 -2.034336 0
M  V30 12 C 0.080358 3.702447 -2.970328 0
M  V30 13 C 2.386081 3.996149 -1.983291 0
M  V30 14 C 3.064416 3.436938 -0.911391 0
M  V30 15 Cl 4.695663 3.785932 -0.380720 0
M  V30 16 N 0.556630 1.456882 2.079574 0
M  V30 17 C -0.512161 0.863471 2.620935 0
M  V30 18 N -1.522823 1.198487 3.442667 0
M  V30 19 C -2.351816 0.131693 3.635099 0
M  V30 20 C -1.854518 -0.948442 2.902489 0
M  V30 21 C -2.499195 -2.216961 2.875681 0
M  V30 22 N -3.041205 -3.238628 2.854752 0
M  V30 23 C -0.725292 -0.458106 2.296272 0
M  V30 24 C 0.053349 -2.764235 -0.337735 0
M  V30 25 C -0.000223 -4.057772 -0.860823 0
M  V30 26 N -0.050854 -5.140525 -0.038328 0
M  V30 27 H 0.350909 -7.033716 1.885668 0
M  V30 28 H 0.550894 -5.809341 3.136484 0
M  V30 29 H -1.101929 -6.257074 2.723768 0
M  V30 30 H 0.016881 -3.538843 2.865888 0
M  V30 31 H 1.962517 -0.889115 0.241616 0
M  V30 32 H 3.388346 1.795275 1.283442 0
M  V30 33 H 0.144421 3.017518 -3.834250 0
M  V30 34 H -0.909740 3.552795 -2.445814 0
M  V30 35 H 0.066183 4.775219 -3.259128 0
M  V30 36 H 2.772615 4.751083 -2.669288 0
M  V30 37 H -1.645831 2.153192 3.870764 0
M  V30 38 H -3.243607 0.147330 4.258834 0
M  V30 39 H 0.089128 -2.030424 -1.128054 0
M  V30 40 H -0.005671 -4.293730 -1.915622 0
M  V30 END ATOM
M  V30 BEGIN BOND
M  V30 1 1 1 2
M  V30 2 2 2 3
M  V30 3 1 3 4
M  V30 4 1 4 5
M  V30 5 2 5 6
M  V30 6 1 6 7
M  V30 7 1 7 8
M  V30 8 1 8 9
M  V30 9 2 9 10
M  V30 10 1 10 11
M  V30 11 1 11 12
M  V30 12 1 11 13
M  V30 13 2 13 14
M  V30 14 1 14 15
M  V30 15 2 7 16
M  V30 16 1 16 17
M  V30 17 1 17 18
M  V30 18 1 18 19
M  V30 19 2 19 20
M  V30 20 1 20 21
M  V30 21 3 21 22
M  V30 22 1 20 23
M  V30 23 2 4 24
M  V30 24 1 24 25
M  V30 25 2 25 26
M  V30 26 1 26 2
M  V30 27 1 23 5
M  V30 28 1 14 9
M  V30 29 2 23 17
M  V30 30 1 1 27
M  V30 31 1 1 28
M  V30 32 1 1 29
M  V30 33 1 3 30
M  V30 34 1 6 31
M  V30 35 1 8 32
M  V30 36 1 12 33
M  V30 37 1 12 34
M  V30 38 1 12 35
M  V30 39 1 13 36
M  V30 40 1 18 37
M  V30 41 1 19 38
M  V30 42 1 24 39
M  V30 43 1 25 40
M  V30 END BOND
M  V30 END CTAB
M  END
>  <Dataset>  (183) 
ChEMBL_Kinases

>  <Ligand_Instance>  (183) 
nan

>  <PDB_ID>  (183) 
nan

>  <Standardized_SMILES>  (183) 
Cc1cc(-c2cc(Nc3nn(C)cc3Cl)nc3[nH]cc(C#N)c23)ccn1

>  <Name>  (183) 
nan

>  <Pocket>  (183) 
nan

>  <ATP_Site>  (183) 
nan

>  <Peripheral>  (183) 
nan

>  <Num_H_Atoms_ProtBoundConf>  (183) 
nan

>  <Num_Resolved_Atoms>  (183) 
nan

>  <Num_Not_Resolved_Atoms>  (183) 
nan

$$$$
CHEMBL4077197
     RDKit          3D

  0  0  0  0  0  0  0  0  0  0999 V3000
M  V30 BEGIN CTAB
M  V30 COUNTS 60 64 0 0 0
M  V30 BEGIN ATOM
M  V30 1 O 2.633537 -0.302421 -1.643441 0
M  V30 2 C 2.254425 0.889880 -1.909847 0
M  V30 3 N 3.346152 1.660079 -2.340310 0
M  V30 4 C 4.718372 1.223700 -2.479813 0
M  V30 5 C 5.451745 1.113312 -1.209091 0
M  V30 6 C 5.625727 0.057420 -0.344214 0
M  V30 7 C 6.366015 0.228492 0.792260 0
M  V30 8 C 6.962019 1.425971 1.128927 0
M  V30 9 N 6.784668 2.458980 0.270799 0
M  V30 10 C 6.053231 2.323736 -0.870395 0
M  V30 11 C 0.867199 1.282839 -1.753717 0
M  V30 12 C -0.015322 0.301073 -1.310394 0
M  V30 13 C -1.353968 0.548403 -1.123455 0
M  V30 14 C -2.289791 -0.499271 -0.653838 0 CFG=2
M  V30 15 C -3.409239 -0.762251 -1.597880 0
M  V30 16 C -4.780171 -0.656462 -0.991808 0
M  V30 17 N -4.931676 0.470840 -0.128017 0
M  V30 18 C -3.951691 0.619342 0.892832 0
M  V30 19 C -2.703975 -0.169806 0.748078 0 CFG=1
M  V30 20 C -2.793045 -1.423863 1.616520 0
M  V30 21 O -1.552576 -2.094485 1.691948 0
M  V30 22 C -1.366439 -3.260781 2.417968 0
M  V30 23 C -0.090133 -3.804393 2.396332 0
M  V30 24 C 0.187791 -4.962501 3.089168 0
M  V30 25 C -0.838618 -5.578636 3.813223 0
M  V30 26 C -2.090305 -5.003006 3.806047 0
M  V30 27 C -2.401424 -3.842406 3.121532 0
M  V30 28 O -2.918909 -5.799771 4.591691 0
M  V30 29 C -2.122832 -6.714409 5.328635 0
M  V30 30 O -0.914391 -6.717864 4.600245 0
M  V30 31 C -1.879392 1.772871 -1.365161 0
M  V30 32 C -1.060629 2.790990 -1.806324 0
M  V30 33 C 0.273720 2.502035 -1.980906 0
M  V30 34 F 1.096064 3.483547 -2.412118 0
M  V30 35 H 3.154347 2.655354 -2.587225 0
M  V30 36 H 5.226905 1.833676 -3.231911 0
M  V30 37 H 4.725888 0.177814 -2.916503 0
M  V30 38 H 5.130144 -0.839756 -0.683560 0
M  V30 39 H 6.470558 -0.643791 1.441856 0
M  V30 40 H 7.544518 1.520915 2.044159 0
M  V30 41 H 6.017823 3.254209 -1.436954 0
M  V30 42 H 0.349550 -0.697919 -1.101057 0
M  V30 43 H -1.646282 -1.424894 -0.557251 0
M  V30 44 H -3.353075 -0.158000 -2.550065 0
M  V30 45 H -3.343798 -1.822788 -1.979764 0
M  V30 46 H -5.487550 -0.481017 -1.852299 0
M  V30 47 H -5.120561 -1.625717 -0.537574 0
M  V30 48 H -5.880285 0.416055 0.311509 0
M  V30 49 H -4.400656 0.382420 1.899807 0
M  V30 50 H -3.715630 1.720586 0.986249 0
M  V30 51 H -1.884826 0.425181 1.211643 0
M  V30 52 H -3.085513 -1.147617 2.649573 0
M  V30 53 H -3.568587 -2.103297 1.227008 0
M  V30 54 H 0.734498 -3.347620 1.839886 0
M  V30 55 H 1.158881 -5.441959 3.116859 0
M  V30 56 H -3.393389 -3.416255 3.135949 0
M  V30 57 H -2.569045 -7.727226 5.395168 0
M  V30 58 H -1.921852 -6.255832 6.314967 0
M  V30 59 H -2.922855 2.066043 -1.248109 0
M  V30 60 H -1.418668 3.775285 -2.012971 0
M  V30 END ATOM
M  V30 BEGIN BOND
M  V30 1 2 1 2
M  V30 2 1 2 3
M  V30 3 1 3 4
M  V30 4 1 4 5
M  V30 5 2 5 6
M  V30 6 1 6 7
M  V30 7 2 7 8
M  V30 8 1 8 9
M  V30 9 2 9 10
M  V30 10 1 2 11
M  V30 11 2 11 12
M  V30 12 1 12 13
M  V30 13 1 13 14
M  V30 14 1 14 15
M  V30 15 1 15 16
M  V30 16 1 16 17
M  V30 17 1 17 18
M  V30 18 1 18 19
M  V30 19 1 19 20
M  V30 20 1 20 21
M  V30 21 1 21 22
M  V30 22 2 22 23
M  V30 23 1 23 24
M  V30 24 2 24 25
M  V30 25 1 25 26
M  V30 26 2 26 27
M  V30 27 1 26 28
M  V30 28 1 28 29
M  V30 29 1 29 30
M  V30 30 2 13 31
M  V30 31 1 31 32
M  V30 32 2 32 33
M  V30 33 1 33 34
M  V30 34 1 10 5
M  V30 35 1 33 11
M  V30 36 1 19 14
M  V30 37 1 27 22
M  V30 38 1 30 25
M  V30 39 1 3 35
M  V30 40 1 4 36
M  V30 41 1 4 37
M  V30 42 1 6 38
M  V30 43 1 7 39
M  V30 44 1 8 40
M  V30 45 1 10 41
M  V30 46 1 12 42
M  V30 47 1 14 43 CFG=1
M  V30 48 1 15 44
M  V30 49 1 15 45
M  V30 50 1 16 46
M  V30 51 1 16 47
M  V30 52 1 17 48
M  V30 53 1 18 49
M  V30 54 1 18 50
M  V30 55 1 19 51 CFG=1
M  V30 56 1 20 52
M  V30 57 1 20 53
M  V30 58 1 23 54
M  V30 59 1 24 55
M  V30 60 1 27 56
M  V30 61 1 29 57
M  V30 62 1 29 58
M  V30 63 1 31 59
M  V30 64 1 32 60
M  V30 END BOND
M  V30 END CTAB
M  END
>  <Dataset>  (184) 
ChEMBL_Kinases

>  <Ligand_Instance>  (184) 
nan

>  <PDB_ID>  (184) 
nan

>  <Standardized_SMILES>  (184) 
O=C(NCc1cccnc1)c1cc([C@@H]2CCNC[C@H]2COc2ccc3c(c2)OCO3)ccc1F

>  <Name>  (184) 
nan

>  <Pocket>  (184) 
nan

>  <ATP_Site>  (184) 
nan

>  <Peripheral>  (184) 
nan

>  <Num_H_Atoms_ProtBoundConf>  (184) 
nan

>  <Num_Resolved_Atoms>  (184) 
nan

>  <Num_Not_Resolved_Atoms>  (184) 
nan

$$$$
CHEMBL4075801
     RDKit          3D

  0  0  0  0  0  0  0  0  0  0999 V3000
M  V30 BEGIN CTAB
M  V30 COUNTS 47 50 0 0 0
M  V30 BEGIN ATOM
M  V30 1 C 1.004156 -3.921936 2.710571 0
M  V30 2 N -0.156646 -3.206230 2.272841 0
M  V30 3 C 0.053414 -2.338802 1.294148 0
M  V30 4 N 1.247906 -1.997925 0.607052 0
M  V30 5 C 1.970557 -2.506613 -0.571145 0
M  V30 6 C 3.069309 -1.606959 -0.982184 0
M  V30 7 N 2.804804 -0.207937 -1.005529 0
M  V30 8 C 1.877613 0.169704 0.013524 0 CFG=2
M  V30 9 C 2.004244 1.566254 0.488340 0
M  V30 10 C 0.859829 2.352774 0.671418 0
M  V30 11 C 0.801867 3.643704 1.096845 0
M  V30 12 C 2.019663 4.249789 1.381870 0
M  V30 13 Cl 1.980610 5.911714 1.932368 0
M  V30 14 C 3.193221 3.520276 1.219612 0
M  V30 15 C 3.184272 2.207186 0.782303 0
M  V30 16 C 1.999958 -0.849892 1.136556 0
M  V30 17 N -0.959916 -1.602192 0.794303 0
M  V30 18 C -2.238281 -1.689411 1.242502 0
M  V30 19 C -3.333407 -0.885970 0.701548 0
M  V30 20 C -4.627192 -0.953163 1.131373 0
M  V30 21 C -5.646260 -0.192140 0.618104 0
M  V30 22 N -5.334686 0.679741 -0.380848 0
M  V30 23 C -4.059860 0.740462 -0.798655 0
M  V30 24 C -2.985750 0.001728 -0.323934 0
M  V30 25 C -2.403438 -2.603901 2.258232 0
M  V30 26 C -1.378772 -3.369505 2.785449 0
M  V30 27 O -1.525638 -4.200949 3.708112 0
M  V30 28 H 0.624081 -4.857524 3.203023 0
M  V30 29 H 1.484697 -3.327444 3.514456 0
M  V30 30 H 1.717891 -4.136282 1.912136 0
M  V30 31 H 1.288734 -2.711310 -1.414280 0
M  V30 32 H 2.434989 -3.483620 -0.274668 0
M  V30 33 H 4.002813 -1.853835 -0.418681 0
M  V30 34 H 3.323111 -1.886858 -2.046244 0
M  V30 35 H 3.658850 0.380343 -1.010355 0
M  V30 36 H 0.858546 0.081227 -0.473135 0
M  V30 37 H -0.092765 1.850424 0.439756 0
M  V30 38 H -0.161862 4.127935 1.192304 0
M  V30 39 H 4.138444 4.013789 1.448425 0
M  V30 40 H 4.087991 1.638756 0.654693 0
M  V30 41 H 1.565679 -0.458616 2.076670 0
M  V30 42 H 3.031075 -1.171236 1.293639 0
M  V30 43 H -4.887094 -1.636789 1.918278 0
M  V30 44 H -6.643063 -0.278423 0.985213 0
M  V30 45 H -3.890404 1.463136 -1.602760 0
M  V30 46 H -2.002805 0.149360 -0.751206 0
M  V30 47 H -3.370398 -2.757112 2.689553 0
M  V30 END ATOM
M  V30 BEGIN BOND
M  V30 1 1 1 2
M  V30 2 1 2 3
M  V30 3 1 3 4
M  V30 4 1 4 5
M  V30 5 1 5 6
M  V30 6 1 6 7
M  V30 7 1 7 8
M  V30 8 1 8 9
M  V30 9 2 9 10
M  V30 10 1 10 11
M  V30 11 2 11 12
M  V30 12 1 12 13
M  V30 13 1 12 14
M  V30 14 2 14 15
M  V30 15 1 8 16
M  V30 16 2 3 17
M  V30 17 1 17 18
M  V30 18 1 18 19
M  V30 19 2 19 20
M  V30 20 1 20 21
M  V30 21 2 21 22
M  V30 22 1 22 23
M  V30 23 2 23 24
M  V30 24 2 18 25
M  V30 25 1 25 26
M  V30 26 2 26 27
M  V30 27 1 26 2
M  V30 28 1 16 4
M  V30 29 1 24 19
M  V30 30 1 15 9
M  V30 31 1 1 28
M  V30 32 1 1 29
M  V30 33 1 1 30
M  V30 34 1 5 31
M  V30 35 1 5 32
M  V30 36 1 6 33
M  V30 37 1 6 34
M  V30 38 1 7 35
M  V30 39 1 8 36 CFG=3
M  V30 40 1 10 37
M  V30 41 1 11 38
M  V30 42 1 14 39
M  V30 43 1 15 40
M  V30 44 1 16 41
M  V30 45 1 16 42
M  V30 46 1 20 43
M  V30 47 1 21 44
M  V30 48 1 23 45
M  V30 49 1 24 46
M  V30 50 1 25 47
M  V30 END BOND
M  V30 END CTAB
M  END
>  <Dataset>  (185) 
ChEMBL_Kinases

>  <Ligand_Instance>  (185) 
nan

>  <PDB_ID>  (185) 
nan

>  <Standardized_SMILES>  (185) 
Cn1c(N2CCN[C@H](c3ccc(Cl)cc3)C2)nc(-c2ccncc2)cc1=O

>  <Name>  (185) 
nan

>  <Pocket>  (185) 
nan

>  <ATP_Site>  (185) 
nan

>  <Peripheral>  (185) 
nan

>  <Num_H_Atoms_ProtBoundConf>  (185) 
nan

>  <Num_Resolved_Atoms>  (185) 
nan

>  <Num_Not_Resolved_Atoms>  (185) 
nan

$$$$
CHEMBL4075798
     RDKit          3D

  0  0  0  0  0  0  0  0  0  0999 V3000
M  V30 BEGIN CTAB
M  V30 COUNTS 48 51 0 0 0
M  V30 BEGIN ATOM
M  V30 1 C -0.802790 -6.633187 -1.289603 0
M  V30 2 C -0.223620 -5.468346 -0.571732 0
M  V30 3 C 0.504881 -5.712720 0.573063 0
M  V30 4 C 1.037114 -4.623571 1.230151 0
M  V30 5 C 0.825812 -3.357997 0.729136 0
M  V30 6 F 1.373039 -2.363878 1.422555 0
M  V30 7 C 0.108560 -3.077432 -0.403629 0
M  V30 8 C -0.150305 -1.775590 -0.982189 0
M  V30 9 C 0.257576 -0.551056 -0.534119 0
M  V30 10 C -0.038121 0.640063 -1.153050 0
M  V30 11 N 0.418062 1.864112 -0.628353 0
M  V30 12 C 1.195313 2.101876 0.534469 0
M  V30 13 C 2.422920 2.724780 0.352529 0
M  V30 14 C 3.284298 3.018237 1.415233 0
M  V30 15 N 2.885432 2.672240 2.664803 0
M  V30 16 C 1.706834 2.068527 2.887002 0
M  V30 17 C 1.057242 1.614968 4.019513 0
M  V30 18 N -0.109501 1.093544 3.612783 0
M  V30 19 C -1.045194 0.520818 4.573479 0
M  V30 20 C -1.984300 1.552690 5.065610 0
M  V30 21 N -1.865544 2.892543 4.571415 0
M  V30 22 O -2.784511 1.023773 5.898653 0
M  V30 23 N -0.236876 1.190263 2.289150 0
M  V30 24 C 0.882094 1.791076 1.840233 0
M  V30 25 C -0.792425 0.653079 -2.304045 0
M  V30 26 C -1.165383 1.862483 -3.043359 0
M  V30 27 C -1.199646 -0.585846 -2.749123 0
M  V30 28 N -0.884774 -1.726605 -2.108011 0
M  V30 29 C -0.411396 -4.185893 -1.039270 0
M  V30 30 H -0.999806 -7.437675 -0.551361 0
M  V30 31 H -1.793501 -6.357253 -1.708201 0
M  V30 32 H -0.161106 -6.975590 -2.120661 0
M  V30 33 H 0.630204 -6.732341 0.908246 0
M  V30 34 H 1.602264 -4.803606 2.116914 0
M  V30 35 H 0.843665 -0.502806 0.349570 0
M  V30 36 H 0.202993 2.771876 -1.091669 0
M  V30 37 H 2.830648 3.038573 -0.593962 0
M  V30 38 H 4.232971 3.496484 1.300348 0
M  V30 39 H 1.498687 1.712897 5.000494 0
M  V30 40 H -1.622803 -0.276995 4.043364 0
M  V30 41 H -0.529422 0.056836 5.424950 0
M  V30 42 H -1.016692 3.182201 5.112052 0
M  V30 43 H -2.711616 2.744028 3.971063 0
M  V30 44 H -1.319317 2.762277 -2.451043 0
M  V30 45 H -0.352793 2.114884 -3.780089 0
M  V30 46 H -2.047478 1.622801 -3.701813 0
M  V30 47 H -1.802580 -0.698718 -3.651707 0
M  V30 48 H -1.005081 -4.108034 -1.955060 0
M  V30 END ATOM
M  V30 BEGIN BOND
M  V30 1 1 1 2
M  V30 2 2 2 3
M  V30 3 1 3 4
M  V30 4 2 4 5
M  V30 5 1 5 6
M  V30 6 1 5 7
M  V30 7 1 7 8
M  V30 8 2 8 9
M  V30 9 1 9 10
M  V30 10 1 10 11
M  V30 11 1 11 12
M  V30 12 2 12 13
M  V30 13 1 13 14
M  V30 14 2 14 15
M  V30 15 1 15 16
M  V30 16 2 16 17
M  V30 17 1 17 18
M  V30 18 1 18 19
M  V30 19 1 19 20
M  V30 20 1 20 21
M  V30 21 2 20 22
M  V30 22 1 18 23
M  V30 23 2 23 24
M  V30 24 2 10 25
M  V30 25 1 25 26
M  V30 26 1 25 27
M  V30 27 2 27 28
M  V30 28 2 7 29
M  V30 29 1 29 2
M  V30 30 1 28 8
M  V30 31 1 24 12
M  V30 32 1 24 16
M  V30 33 1 1 30
M  V30 34 1 1 31
M  V30 35 1 1 32
M  V30 36 1 3 33
M  V30 37 1 4 34
M  V30 38 1 9 35
M  V30 39 1 11 36
M  V30 40 1 13 37
M  V30 41 1 14 38
M  V30 42 1 17 39
M  V30 43 1 19 40
M  V30 44 1 19 41
M  V30 45 1 21 42
M  V30 46 1 21 43
M  V30 47 1 26 44
M  V30 48 1 26 45
M  V30 49 1 26 46
M  V30 50 1 27 47
M  V30 51 1 29 48
M  V30 END BOND
M  V30 END CTAB
M  END
>  <Dataset>  (186) 
ChEMBL_Kinases

>  <Ligand_Instance>  (186) 
nan

>  <PDB_ID>  (186) 
nan

>  <Standardized_SMILES>  (186) 
Cc1ccc(F)c(-c2cc(Nc3ccnc4cn(CC(N)=O)nc34)c(C)cn2)c1

>  <Name>  (186) 
nan

>  <Pocket>  (186) 
nan

>  <ATP_Site>  (186) 
nan

>  <Peripheral>  (186) 
nan

>  <Num_H_Atoms_ProtBoundConf>  (186) 
nan

>  <Num_Resolved_Atoms>  (186) 
nan

>  <Num_Not_Resolved_Atoms>  (186) 
nan

$$$$
CHEMBL4075759
     RDKit          3D

  0  0  0  0  0  0  0  0  0  0999 V3000
M  V30 BEGIN CTAB
M  V30 COUNTS 60 64 0 0 0
M  V30 BEGIN ATOM
M  V30 1 C 6.017046 0.128901 7.380705 0
M  V30 2 O 5.264603 0.298626 6.209530 0
M  V30 3 C 5.758833 0.122762 4.927541 0
M  V30 4 O 6.946753 -0.209839 4.716414 0
M  V30 5 C 4.867535 0.331655 3.791056 0
M  V30 6 C 5.299122 0.172640 2.497127 0
M  V30 7 C 4.481245 0.362651 1.402218 0
M  V30 8 C 3.167281 0.728777 1.582375 0
M  V30 9 C 2.709213 0.895081 2.877597 0
M  V30 10 C 3.550249 0.698771 3.973863 0
M  V30 11 C 1.369898 1.277197 3.349556 0
M  V30 12 O 1.260122 1.741622 4.512276 0
M  V30 13 C 0.171928 1.138425 2.524511 0
M  V30 14 C -0.947311 1.575912 3.199563 0
M  V30 15 C -2.190956 1.536755 2.611168 0
M  V30 16 C -2.411668 1.069730 1.334520 0
M  V30 17 N -3.685407 1.053086 0.746459 0
M  V30 18 C -4.244683 0.319165 -0.299613 0
M  V30 19 C -5.356063 0.777504 -0.978610 0
M  V30 20 C -5.951148 0.082604 -2.005488 0
M  V30 21 C -5.450338 -1.135240 -2.412834 0
M  V30 22 F -6.059370 -1.794177 -3.427283 0
M  V30 23 C -4.340637 -1.647615 -1.773050 0
M  V30 24 N -3.812149 -2.904118 -2.182600 0
M  V30 25 C -2.835493 -2.740589 -3.201498 0
M  V30 26 O -2.646172 -1.526717 -3.523777 0
M  V30 27 C -2.111504 -3.847029 -3.827208 0
M  V30 28 C -2.318081 -5.165915 -3.476585 0
M  V30 29 C -1.620887 -6.204328 -4.081796 0
M  V30 30 C -0.694797 -5.890171 -5.064061 0
M  V30 31 C -0.508414 -4.563448 -5.394820 0
M  V30 32 C -1.199081 -3.529001 -4.795875 0
M  V30 33 C -3.790609 -0.902452 -0.751063 0
M  V30 34 C -1.263471 0.645159 0.702468 0
M  V30 35 C 0.007562 0.659640 1.239266 0
M  V30 36 C 1.073812 0.143613 0.343159 0
M  V30 37 C 2.344888 0.916264 0.358368 0
M  V30 38 H 7.041322 -0.268462 7.180410 0
M  V30 39 H 6.172924 1.131153 7.872378 0
M  V30 40 H 5.468714 -0.481826 8.138672 0
M  V30 41 H 6.331197 -0.116320 2.311876 0
M  V30 42 H 4.802379 0.241971 0.365213 0
M  V30 43 H 3.162560 0.836253 4.964838 0
M  V30 44 H -0.858217 1.957815 4.207789 0
M  V30 45 H -3.042316 1.899660 3.201330 0
M  V30 46 H -4.354605 1.750144 1.202746 0
M  V30 47 H -5.773316 1.747152 -0.670976 0
M  V30 48 H -6.825725 0.486411 -2.509433 0
M  V30 49 H -4.034542 -3.868498 -1.852764 0
M  V30 50 H -3.030565 -5.419763 -2.719643 0
M  V30 51 H -1.821280 -7.209483 -3.770530 0
M  V30 52 H -0.130638 -6.690176 -5.557978 0
M  V30 53 H 0.209740 -4.278873 -6.160865 0
M  V30 54 H -1.015859 -2.501381 -5.091869 0
M  V30 55 H -2.939929 -1.370213 -0.296242 0
M  V30 56 H -1.276486 0.265598 -0.301390 0
M  V30 57 H 1.301880 -0.926878 0.597361 0
M  V30 58 H 0.700875 0.148150 -0.705845 0
M  V30 59 H 2.895610 0.683661 -0.560486 0
M  V30 60 H 2.121100 2.023036 0.336703 0
M  V30 END ATOM
M  V30 BEGIN BOND
M  V30 1 1 1 2
M  V30 2 1 2 3
M  V30 3 2 3 4
M  V30 4 1 3 5
M  V30 5 2 5 6
M  V30 6 1 6 7
M  V30 7 2 7 8
M  V30 8 1 8 9
M  V30 9 2 9 10
M  V30 10 1 9 11
M  V30 11 2 11 12
M  V30 12 1 11 13
M  V30 13 2 13 14
M  V30 14 1 14 15
M  V30 15 2 15 16
M  V30 16 1 16 17
M  V30 17 1 17 18
M  V30 18 2 18 19
M  V30 19 1 19 20
M  V30 20 2 20 21
M  V30 21 1 21 22
M  V30 22 1 21 23
M  V30 23 1 23 24
M  V30 24 1 24 25
M  V30 25 2 25 26
M  V30 26 1 25 27
M  V30 27 2 27 28
M  V30 28 1 28 29
M  V30 29 2 29 30
M  V30 30 1 30 31
M  V30 31 2 31 32
M  V30 32 2 23 33
M  V30 33 1 16 34
M  V30 34 2 34 35
M  V30 35 1 35 36
M  V30 36 1 36 37
M  V30 37 1 10 5
M  V30 38 1 35 13
M  V30 39 1 37 8
M  V30 40 1 33 18
M  V30 41 1 32 27
M  V30 42 1 1 38
M  V30 43 1 1 39
M  V30 44 1 1 40
M  V30 45 1 6 41
M  V30 46 1 7 42
M  V30 47 1 10 43
M  V30 48 1 14 44
M  V30 49 1 15 45
M  V30 50 1 17 46
M  V30 51 1 19 47
M  V30 52 1 20 48
M  V30 53 1 24 49
M  V30 54 1 28 50
M  V30 55 1 29 51
M  V30 56 1 30 52
M  V30 57 1 31 53
M  V30 58 1 32 54
M  V30 59 1 33 55
M  V30 60 1 34 56
M  V30 61 1 36 57
M  V30 62 1 36 58
M  V30 63 1 37 59
M  V30 64 1 37 60
M  V30 END BOND
M  V30 END CTAB
M  END
>  <Dataset>  (187) 
ChEMBL_Kinases

>  <Ligand_Instance>  (187) 
nan

>  <PDB_ID>  (187) 
nan

>  <Standardized_SMILES>  (187) 
COC(=O)c1ccc2c(c1)C(=O)c1ccc(Nc3ccc(F)c(NC(=O)c4ccccc4)c3)cc1CC2

>  <Name>  (187) 
nan

>  <Pocket>  (187) 
nan

>  <ATP_Site>  (187) 
nan

>  <Peripheral>  (187) 
nan

>  <Num_H_Atoms_ProtBoundConf>  (187) 
nan

>  <Num_Resolved_Atoms>  (187) 
nan

>  <Num_Not_Resolved_Atoms>  (187) 
nan

$$$$
CHEMBL4075754
     RDKit          3D

  0  0  0  0  0  0  0  0  0  0999 V3000
M  V30 BEGIN CTAB
M  V30 COUNTS 50 53 0 0 0
M  V30 BEGIN ATOM
M  V30 1 C 1.442866 -4.352953 3.434193 0
M  V30 2 C 1.386988 -3.988925 1.974727 0
M  V30 3 C 0.128558 -4.053683 1.420824 0
M  V30 4 C 0.292792 -3.687266 0.103362 0
M  V30 5 N -0.303044 -3.454513 -1.190761 0
M  V30 6 C -0.783359 -2.097965 -1.306483 0
M  V30 7 N 0.090306 -1.055720 -1.398596 0
M  V30 8 C -0.341976 0.221438 -1.524059 0
M  V30 9 C 0.796413 1.117899 -1.587333 0
M  V30 10 O 1.144425 1.298896 -2.780325 0
M  V30 11 N 1.397934 1.685360 -0.400791 0
M  V30 12 C 2.532821 2.557121 -0.514381 0
M  V30 13 C 0.781880 1.323128 0.845947 0
M  V30 14 C 0.197526 2.461290 1.599820 0
M  V30 15 C 1.058540 2.976205 2.724992 0
M  V30 16 C 1.701140 1.868673 3.540800 0
M  V30 17 N 2.494303 1.095905 2.620848 0
M  V30 18 C 1.630266 0.413142 1.709369 0
M  V30 19 N -1.667927 0.464600 -1.559032 0
M  V30 20 C -2.563073 -0.531535 -1.471630 0
M  V30 21 C -3.909135 -0.235238 -1.515930 0
M  V30 22 C -4.760211 -1.316736 -1.423616 0
M  V30 23 C -4.360178 -2.636126 -1.293596 0
M  V30 24 Cl -5.485643 -3.960070 -1.181654 0
M  V30 25 C -2.991598 -2.912513 -1.250926 0
M  V30 26 C -2.143902 -1.840210 -1.342751 0
M  V30 27 N 1.612542 -3.416973 -0.099606 0
M  V30 28 N 2.290671 -3.599598 1.042508 0
M  V30 29 H 2.412974 -4.031110 3.858938 0
M  V30 30 H 1.224266 -5.420565 3.579233 0
M  V30 31 H 0.674395 -3.783619 4.020903 0
M  V30 32 H -0.908693 -4.268927 1.592532 0
M  V30 33 H -0.311454 -4.265282 -1.852234 0
M  V30 34 H 2.419573 3.521224 0.012444 0
M  V30 35 H 2.715413 2.803350 -1.583893 0
M  V30 36 H 3.468508 2.018329 -0.179744 0
M  V30 37 H -0.080605 0.651970 0.541191 0
M  V30 38 H -0.014438 3.335553 0.942846 0
M  V30 39 H -0.783981 2.196055 2.046180 0
M  V30 40 H 0.406492 3.545195 3.422715 0
M  V30 41 H 1.846336 3.662711 2.417552 0
M  V30 42 H 0.976647 1.306421 4.129845 0
M  V30 43 H 2.415626 2.383159 4.229390 0
M  V30 44 H 3.191711 1.705141 2.184218 0
M  V30 45 H 0.917297 -0.188561 2.341769 0
M  V30 46 H 2.185608 -0.308188 1.114395 0
M  V30 47 H -4.297797 0.756673 -1.615151 0
M  V30 48 H -5.829999 -1.143332 -1.453114 0
M  V30 49 H -2.665317 -3.932806 -1.150320 0
M  V30 50 H 3.269031 -3.528458 1.393651 0
M  V30 END ATOM
M  V30 BEGIN BOND
M  V30 1 1 1 2
M  V30 2 2 2 3
M  V30 3 1 3 4
M  V30 4 1 4 5
M  V30 5 1 5 6
M  V30 6 2 6 7
M  V30 7 1 7 8
M  V30 8 1 8 9
M  V30 9 2 9 10
M  V30 10 1 9 11
M  V30 11 1 11 12
M  V30 12 1 11 13
M  V30 13 1 13 14
M  V30 14 1 14 15
M  V30 15 1 15 16
M  V30 16 1 16 17
M  V30 17 1 17 18
M  V30 18 2 8 19
M  V30 19 1 19 20
M  V30 20 2 20 21
M  V30 21 1 21 22
M  V30 22 2 22 23
M  V30 23 1 23 24
M  V30 24 1 23 25
M  V30 25 2 25 26
M  V30 26 2 4 27
M  V30 27 1 27 28
M  V30 28 1 28 2
M  V30 29 1 26 6
M  V30 30 1 18 13
M  V30 31 1 26 20
M  V30 32 1 1 29
M  V30 33 1 1 30
M  V30 34 1 1 31
M  V30 35 1 3 32
M  V30 36 1 5 33
M  V30 37 1 12 34
M  V30 38 1 12 35
M  V30 39 1 12 36
M  V30 40 1 13 37
M  V30 41 1 14 38
M  V30 42 1 14 39
M  V30 43 1 15 40
M  V30 44 1 15 41
M  V30 45 1 16 42
M  V30 46 1 16 43
M  V30 47 1 17 44
M  V30 48 1 18 45
M  V30 49 1 18 46
M  V30 50 1 21 47
M  V30 51 1 22 48
M  V30 52 1 25 49
M  V30 53 1 28 50
M  V30 END BOND
M  V30 END CTAB
M  END
>  <Dataset>  (188) 
ChEMBL_Kinases

>  <Ligand_Instance>  (188) 
nan

>  <PDB_ID>  (188) 
nan

>  <Standardized_SMILES>  (188) 
Cc1cc(Nc2nc(C(=O)N(C)C3CCCNC3)nc3ccc(Cl)cc23)n[nH]1

>  <Name>  (188) 
nan

>  <Pocket>  (188) 
nan

>  <ATP_Site>  (188) 
nan

>  <Peripheral>  (188) 
nan

>  <Num_H_Atoms_ProtBoundConf>  (188) 
nan

>  <Num_Resolved_Atoms>  (188) 
nan

>  <Num_Not_Resolved_Atoms>  (188) 
nan

$$$$
CHEMBL4856767
     RDKit          3D

  0  0  0  0  0  0  0  0  0  0999 V3000
M  V30 BEGIN CTAB
M  V30 COUNTS 45 48 0 0 0
M  V30 BEGIN ATOM
M  V30 1 C -2.955283 -5.975900 0.938554 0
M  V30 2 C -1.501669 -5.780609 0.651408 0
M  V30 3 N -0.631476 -6.814214 0.646638 0
M  V30 4 N 0.573902 -6.301763 0.358896 0
M  V30 5 C 0.415205 -4.955896 0.192144 0
M  V30 6 C 1.370762 -3.975873 -0.119071 0
M  V30 7 C 0.995190 -2.653423 -0.244580 0
M  V30 8 C -0.364421 -2.351476 -0.047595 0
M  V30 9 C -0.688996 -0.915203 -0.193472 0
M  V30 10 C -1.961612 -0.435243 -0.035459 0
M  V30 11 N -2.157966 0.887867 -0.182357 0
M  V30 12 C -1.181566 1.765447 -0.474670 0
M  V30 13 C 0.102111 1.288225 -0.634730 0
M  V30 14 N 1.257218 2.076754 -0.915554 0
M  V30 15 C 2.159946 2.198106 0.228878 0 CFG=1
M  V30 16 C 3.320328 3.091398 -0.055018 0
M  V30 17 O 4.122255 3.144817 1.082973 0
M  V30 18 C 1.360353 2.563375 1.411771 0
M  V30 19 C 1.554921 1.835594 2.601308 0
M  V30 20 C 0.832334 2.151280 3.718162 0
M  V30 21 C -0.110634 3.160005 3.793765 0
M  V30 22 C -0.326062 3.902680 2.625749 0
M  V30 23 C 0.418761 3.546583 1.545933 0
M  V30 24 N 0.286031 -0.029940 -0.486974 0
M  V30 25 C -1.325188 -3.281717 0.257886 0
M  V30 26 C -0.905038 -4.571589 0.370279 0
M  V30 27 H -3.445905 -5.059865 1.320390 0
M  V30 28 H -3.063121 -6.765443 1.734528 0
M  V30 29 H -3.487389 -6.404722 0.048998 0
M  V30 30 H 1.433020 -6.865035 0.287422 0
M  V30 31 H 2.437218 -4.200813 -0.276020 0
M  V30 32 H 1.744255 -1.917090 -0.485700 0
M  V30 33 H -2.783654 -1.069727 0.195324 0
M  V30 34 H -1.349496 2.835468 -0.599020 0
M  V30 35 H 1.564080 2.573673 -1.783866 0
M  V30 36 H 2.563114 1.150080 0.356469 0
M  V30 37 H 3.918902 2.613271 -0.864944 0
M  V30 38 H 3.028064 4.125573 -0.306996 0
M  V30 39 H 4.187073 2.211751 1.439946 0
M  V30 40 H 2.267926 1.002569 2.709370 0
M  V30 41 H 0.980315 1.583510 4.655077 0
M  V30 42 H -0.693765 3.432687 4.649024 0
M  V30 43 H -1.038553 4.709012 2.579873 0
M  V30 44 H 0.253222 4.130736 0.622694 0
M  V30 45 H -2.345877 -3.027926 0.402710 0
M  V30 END ATOM
M  V30 BEGIN BOND
M  V30 1 1 1 2
M  V30 2 2 2 3
M  V30 3 1 3 4
M  V30 4 1 4 5
M  V30 5 2 5 6
M  V30 6 1 6 7
M  V30 7 2 7 8
M  V30 8 1 8 9
M  V30 9 2 9 10
M  V30 10 1 10 11
M  V30 11 2 11 12
M  V30 12 1 12 13
M  V30 13 1 13 14
M  V30 14 1 14 15
M  V30 15 1 15 16
M  V30 16 1 16 17
M  V30 17 1 15 18
M  V30 18 2 18 19
M  V30 19 1 19 20
M  V30 20 2 20 21
M  V30 21 1 21 22
M  V30 22 2 22 23
M  V30 23 2 13 24
M  V30 24 1 8 25
M  V30 25 2 25 26
M  V30 26 1 26 2
M  V30 27 1 26 5
M  V30 28 1 24 9
M  V30 29 1 23 18
M  V30 30 1 1 27
M  V30 31 1 1 28
M  V30 32 1 1 29
M  V30 33 1 4 30
M  V30 34 1 6 31
M  V30 35 1 7 32
M  V30 36 1 10 33
M  V30 37 1 12 34
M  V30 38 1 14 35
M  V30 39 1 15 36 CFG=1
M  V30 40 1 16 37
M  V30 41 1 16 38
M  V30 42 1 17 39
M  V30 43 1 19 40
M  V30 44 1 20 41
M  V30 45 1 21 42
M  V30 46 1 22 43
M  V30 47 1 23 44
M  V30 48 1 25 45
M  V30 END BOND
M  V30 END CTAB
M  END
>  <Dataset>  (189) 
ChEMBL_Kinases

>  <Ligand_Instance>  (189) 
nan

>  <PDB_ID>  (189) 
nan

>  <Standardized_SMILES>  (189) 
Cc1n[nH]c2ccc(-c3cncc(N[C@@H](CO)c4ccccc4)n3)cc12

>  <Name>  (189) 
nan

>  <Pocket>  (189) 
nan

>  <ATP_Site>  (189) 
nan

>  <Peripheral>  (189) 
nan

>  <Num_H_Atoms_ProtBoundConf>  (189) 
nan

>  <Num_Resolved_Atoms>  (189) 
nan

>  <Num_Not_Resolved_Atoms>  (189) 
nan

$$$$
CHEMBL4075712
     RDKit          3D

  0  0  0  0  0  0  0  0  0  0999 V3000
M  V30 BEGIN CTAB
M  V30 COUNTS 61 65 0 0 0
M  V30 BEGIN ATOM
M  V30 1 O 0.259178 1.910216 2.763013 0
M  V30 2 C 0.961396 2.355936 1.791371 0
M  V30 3 N 2.019537 3.137276 2.318573 0
M  V30 4 C 2.019118 3.215129 3.744322 0
M  V30 5 C 3.195159 4.074467 4.182196 0
M  V30 6 C 4.484256 3.491639 3.727569 0
M  V30 7 C 5.259565 3.627148 2.594899 0
M  V30 8 N 6.359276 2.859208 2.687183 0
M  V30 9 C 6.290456 2.231979 3.876308 0
M  V30 10 N 5.175211 2.604982 4.500717 0
M  V30 11 C 0.637723 2.049489 0.406856 0
M  V30 12 C -0.471799 1.258189 0.203758 0
M  V30 13 C -0.901134 0.885214 -1.045118 0
M  V30 14 C -2.094667 0.019331 -1.221904 0 CFG=2
M  V30 15 C -3.173316 0.214938 -0.226617 0
M  V30 16 C -3.421490 -0.868473 0.748775 0
M  V30 17 N -2.547370 -1.978403 0.775804 0
M  V30 18 C -1.353481 -1.911894 0.020851 0
M  V30 19 C -1.653121 -1.460275 -1.352165 0 CFG=1
M  V30 20 C -2.745790 -2.265192 -1.978734 0
M  V30 21 O -2.599660 -3.580702 -2.207751 0
M  V30 22 C -2.420589 -4.782204 -1.697417 0
M  V30 23 C -2.359148 -5.664086 -2.796914 0
M  V30 24 C -2.174718 -7.049676 -2.641800 0
M  V30 25 C -2.051935 -7.532426 -1.333344 0
M  V30 26 C -2.105392 -6.713344 -0.229465 0
M  V30 27 C -2.287841 -5.379492 -0.478299 0
M  V30 28 O -1.950628 -7.511832 0.892881 0
M  V30 29 C -1.452092 -8.790790 0.504202 0
M  V30 30 O -1.864799 -8.818530 -0.847301 0
M  V30 31 C -0.167399 1.338665 -2.149458 0
M  V30 32 C 0.951955 2.133075 -2.018361 0
M  V30 33 C 1.302254 2.452340 -0.727392 0
M  V30 34 F 2.392373 3.227779 -0.554698 0
M  V30 35 H 2.670276 3.562283 1.624244 0
M  V30 36 H 2.178873 2.232660 4.243358 0
M  V30 37 H 1.089448 3.619678 4.146999 0
M  V30 38 H 3.126159 5.074300 3.693108 0
M  V30 39 H 3.205414 4.190239 5.287222 0
M  V30 40 H 4.951757 4.278749 1.797026 0
M  V30 41 H 7.115176 2.774734 1.966160 0
M  V30 42 H 7.052038 1.544281 4.215885 0
M  V30 43 H -1.052741 0.909068 1.045236 0
M  V30 44 H -2.429297 0.230348 -2.287986 0
M  V30 45 H -4.128375 0.352847 -0.822379 0
M  V30 46 H -3.097848 1.219084 0.295536 0
M  V30 47 H -4.495924 -1.223284 0.713754 0
M  V30 48 H -3.368005 -0.417363 1.787208 0
M  V30 49 H -2.331920 -2.335250 1.738696 0
M  V30 50 H -0.540124 -1.324112 0.518920 0
M  V30 51 H -0.897050 -2.919644 -0.045164 0
M  V30 52 H -0.794859 -1.462504 -2.044823 0
M  V30 53 H -3.710577 -2.154487 -1.352449 0
M  V30 54 H -3.075968 -1.779688 -2.960801 0
M  V30 55 H -2.433548 -5.475302 -3.873341 0
M  V30 56 H -2.115230 -7.798334 -3.418325 0
M  V30 57 H -2.351648 -4.690671 0.333964 0
M  V30 58 H -0.323497 -8.772229 0.478258 0
M  V30 59 H -1.811074 -9.616507 1.115877 0
M  V30 60 H -0.497755 1.049558 -3.156670 0
M  V30 61 H 1.527395 2.491243 -2.836624 0
M  V30 END ATOM
M  V30 BEGIN BOND
M  V30 1 2 1 2
M  V30 2 1 2 3
M  V30 3 1 3 4
M  V30 4 1 4 5
M  V30 5 1 5 6
M  V30 6 2 6 7
M  V30 7 1 7 8
M  V30 8 1 8 9
M  V30 9 2 9 10
M  V30 10 1 2 11
M  V30 11 2 11 12
M  V30 12 1 12 13
M  V30 13 1 13 14
M  V30 14 1 14 15
M  V30 15 1 15 16
M  V30 16 1 16 17
M  V30 17 1 17 18
M  V30 18 1 18 19
M  V30 19 1 19 20
M  V30 20 1 20 21
M  V30 21 1 21 22
M  V30 22 2 22 23
M  V30 23 1 23 24
M  V30 24 2 24 25
M  V30 25 1 25 26
M  V30 26 2 26 27
M  V30 27 1 26 28
M  V30 28 1 28 29
M  V30 29 1 29 30
M  V30 30 2 13 31
M  V30 31 1 31 32
M  V30 32 2 32 33
M  V30 33 1 33 34
M  V30 34 1 10 6
M  V30 35 1 33 11
M  V30 36 1 19 14
M  V30 37 1 27 22
M  V30 38 1 30 25
M  V30 39 1 3 35
M  V30 40 1 4 36
M  V30 41 1 4 37
M  V30 42 1 5 38
M  V30 43 1 5 39
M  V30 44 1 7 40
M  V30 45 1 8 41
M  V30 46 1 9 42
M  V30 47 1 12 43
M  V30 48 1 14 44 CFG=3
M  V30 49 1 15 45
M  V30 50 1 15 46
M  V30 51 1 16 47
M  V30 52 1 16 48
M  V30 53 1 17 49
M  V30 54 1 18 50
M  V30 55 1 18 51
M  V30 56 1 19 52 CFG=3
M  V30 57 1 20 53
M  V30 58 1 20 54
M  V30 59 1 23 55
M  V30 60 1 24 56
M  V30 61 1 27 57
M  V30 62 1 29 58
M  V30 63 1 29 59
M  V30 64 1 31 60
M  V30 65 1 32 61
M  V30 END BOND
M  V30 END CTAB
M  END
>  <Dataset>  (190) 
ChEMBL_Kinases

>  <Ligand_Instance>  (190) 
nan

>  <PDB_ID>  (190) 
nan

>  <Standardized_SMILES>  (190) 
O=C(NCCc1c[nH]cn1)c1cc([C@@H]2CCNC[C@H]2COc2ccc3c(c2)OCO3)ccc1F

>  <Name>  (190) 
nan

>  <Pocket>  (190) 
nan

>  <ATP_Site>  (190) 
nan

>  <Peripheral>  (190) 
nan

>  <Num_H_Atoms_ProtBoundConf>  (190) 
nan

>  <Num_Resolved_Atoms>  (190) 
nan

>  <Num_Not_Resolved_Atoms>  (190) 
nan

$$$$
CHEMBL4075701
     RDKit          3D

  0  0  0  0  0  0  0  0  0  0999 V3000
M  V30 BEGIN CTAB
M  V30 COUNTS 217 222 0 0 0
M  V30 BEGIN ATOM
M  V30 1 C 7.140231 2.183489 4.350759 0
M  V30 2 C 5.678059 2.355774 4.101917 0
M  V30 3 N 5.053956 1.390210 3.252268 0
M  V30 4 C 5.690142 0.287421 2.526319 0
M  V30 5 C 6.978060 0.183549 1.972561 0
M  V30 6 C 7.325693 -1.015623 1.333821 0
M  V30 7 S 8.935509 -1.088996 0.673860 0
M  V30 8 O 8.994636 -1.899759 -0.589671 0
M  V30 9 O 9.387397 0.306072 0.336797 0
M  V30 10 O 10.019986 -1.716930 1.796368 0
M  V30 11 C 6.407694 -2.071733 1.252935 0
M  V30 12 C 5.108457 -1.995554 1.798264 0
M  V30 13 C 4.814077 -0.820015 2.410004 0
M  V30 14 C 3.662525 -0.313191 3.098513 0
M  V30 15 C 2.805612 -1.029768 3.737345 0
M  V30 16 C 2.894996 -2.476469 3.830367 0
M  V30 17 C 2.122724 -3.263448 4.436898 0
M  V30 18 C 1.351782 -4.275440 5.062653 0
M  V30 19 C 0.312248 -4.355727 5.841779 0
M  V30 20 C -0.326161 -5.529537 6.352062 0
M  V30 21 N -0.162887 -6.794590 6.248634 0 CHG=1 VAL=4
M  V30 22 C 0.770108 -7.656529 5.564526 0
M  V30 23 C 0.211577 -8.327213 4.340781 0
M  V30 24 C -1.271402 -7.398275 6.901619 0
M  V30 25 C -1.757149 -8.704384 7.058182 0
M  V30 26 C -2.972693 -8.992911 7.673398 0
M  V30 27 C -3.778107 -7.977848 8.169639 0
M  V30 28 S -5.340857 -8.209973 8.922469 0
M  V30 29 O -5.556012 -7.127551 9.932027 0
M  V30 30 O -5.379850 -9.518373 9.621318 0
M  V30 31 O -6.583127 -8.108905 7.786217 0 CHG=-1 VAL=1
M  V30 32 C -3.340829 -6.652223 8.043812 0
M  V30 33 C -2.140236 -6.478515 7.431128 0
M  V30 34 C -1.454625 -5.193120 7.275366 0
M  V30 35 C -2.303494 -4.052632 6.818417 0
M  V30 36 C -0.811276 -4.894276 8.629707 0
M  V30 37 C 3.697545 1.237766 2.859267 0
M  V30 38 C 3.491838 1.362345 1.388035 0
M  V30 39 C 2.598973 1.755586 3.713143 0
M  V30 40 C 1.267741 1.483628 2.983045 0
M  V30 41 C 0.082654 1.591074 3.874378 0
M  V30 42 C -1.196694 1.334680 3.102672 0
M  V30 43 O -1.175178 2.172648 2.182596 0
M  V30 44 N -2.053329 0.298838 3.549061 0
M  V30 45 C -3.297093 0.168654 2.776214 0
M  V30 46 C -4.050255 -1.055769 3.197464 0
M  V30 47 C -3.312796 -2.344794 2.799026 0
M  V30 48 C -3.256708 -2.441499 1.295793 0
M  V30 49 C -2.484089 -3.728148 0.898705 0 CFG=2
M  V30 50 N -2.502252 -3.827246 -0.557168 0
M  V30 51 C -2.899746 -3.090324 -1.711149 0
M  V30 52 O -3.429171 -1.986916 -1.348463 0
M  V30 53 C -2.657306 -3.689879 -3.078315 0 CFG=2
M  V30 54 C -3.953779 -4.370528 -3.541510 0
M  V30 55 C -3.737814 -4.977828 -4.865664 0
M  V30 56 O -2.677793 -5.088990 -5.542731 0
M  V30 57 O -4.809073 -5.533656 -5.550527 0
M  V30 58 N -1.624653 -4.684692 -3.024435 0
M  V30 59 C -0.505979 -4.222507 -3.836355 0
M  V30 60 O -0.468807 -3.163255 -4.487384 0
M  V30 61 C 0.859206 -4.764927 -4.158577 0 CFG=2
M  V30 62 C 1.687317 -4.727845 -2.869778 0
M  V30 63 C 3.062458 -5.259194 -3.041792 0
M  V30 64 O 3.636288 -5.779079 -4.030791 0
M  V30 65 O 3.707113 -5.072206 -1.795245 0
M  V30 66 N 1.435717 -3.786316 -5.088469 0
M  V30 67 C 2.159829 -3.930847 -6.313568 0
M  V30 68 O 2.368304 -5.120731 -6.683222 0
M  V30 69 C 2.654043 -2.818827 -7.120848 0 CFG=2
M  V30 70 C 4.175965 -2.707143 -6.913888 0
M  V30 71 C 4.795302 -3.971240 -7.364422 0
M  V30 72 O 4.971878 -5.093523 -6.820894 0
M  V30 73 O 5.340059 -4.057044 -8.657730 0
M  V30 74 N 2.055874 -1.527641 -6.808534 0
M  V30 75 C 2.043856 -0.642828 -7.954974 0
M  V30 76 O 2.556782 -1.099628 -9.037565 0
M  V30 77 C 1.595084 0.725451 -8.268215 0 CFG=2
M  V30 78 C 2.868317 1.575938 -8.477923 0
M  V30 79 C 2.474424 2.952766 -8.782267 0
M  V30 80 O 2.267122 3.371571 -9.973093 0
M  V30 81 O 2.122803 4.299020 -8.624396 0
M  V30 82 N 0.795520 1.302190 -7.245509 0
M  V30 83 C -0.428191 1.872215 -7.782103 0
M  V30 84 O -0.760774 1.856391 -8.998282 0
M  V30 85 C -1.556649 2.584268 -7.108873 0 CFG=2
M  V30 86 C -1.725898 3.967390 -7.734383 0
M  V30 87 C -2.863280 4.596737 -7.045255 0
M  V30 88 O -3.189965 3.617005 -6.315570 0
M  V30 89 O -3.729470 5.631479 -6.777019 0
M  V30 90 N -1.331930 2.664044 -5.680983 0
M  V30 91 C -0.305480 3.464114 -5.049381 0
M  V30 92 O 0.437534 4.128880 -5.807852 0
M  V30 93 C -0.234602 3.418676 -3.579496 0 CFG=2
M  V30 94 C 1.082860 2.766658 -3.135048 0
M  V30 95 C 2.257141 3.508982 -3.612251 0
M  V30 96 O 2.538310 4.542560 -4.290652 0
M  V30 97 O 3.399845 2.852003 -3.163135 0
M  V30 98 N -1.331593 2.656941 -2.970582 0
M  V30 99 C -1.936335 3.244564 -1.845803 0
M  V30 100 O -1.718009 4.331651 -1.226689 0
M  V30 101 C -3.021775 2.973679 -0.876194 0
M  V30 102 C -3.048713 4.122186 0.129096 0
M  V30 103 C -4.139719 3.764956 1.155993 0
M  V30 104 C -4.142277 4.864173 2.161201 0
M  V30 105 C -4.513853 6.214698 1.591785 0
M  V30 106 C -5.904550 6.248986 1.063942 0
M  V30 107 C -6.312303 7.550935 0.428682 0
M  V30 108 N -5.529858 7.863896 -0.732571 0
M  V30 109 C -5.989075 7.192069 -1.819433 0
M  V30 110 N -5.208888 7.453432 -2.909249 0
M  V30 111 C -4.248928 8.284153 -2.558544 0
M  V30 112 C -3.140223 8.966825 -3.074466 0
M  V30 113 Br -2.829780 8.659793 -4.931325 0
M  V30 114 C -2.363578 9.792893 -2.295963 0
M  V30 115 Br -0.891188 10.669983 -3.125003 0
M  V30 116 C -2.626893 10.003543 -0.939188 0
M  V30 117 Br -1.459446 11.172003 -0.001925 0
M  V30 118 C -3.727173 9.331580 -0.404299 0
M  V30 119 Br -4.032428 9.713516 1.427012 0
M  V30 120 C -4.476315 8.515559 -1.218907 0
M  V30 121 C -3.013895 -4.915045 1.538904 0
M  V30 122 O -3.170512 -5.295851 2.752461 0
M  V30 123 O -3.588585 -6.174898 1.518400 0
M  V30 124 H 7.429350 2.534320 5.387225 0
M  V30 125 H 7.755730 2.744250 3.598853 0
M  V30 126 H 7.415391 1.111684 4.348454 0
M  V30 127 H 5.187754 2.430641 5.115518 0
M  V30 128 H 5.531754 3.399557 3.687392 0
M  V30 129 H 7.674126 0.990066 2.030669 0
M  V30 130 H 10.931680 -1.690001 1.429574 0
M  V30 131 H 6.742699 -2.956180 0.749748 0
M  V30 132 H 4.425394 -2.793144 1.703207 0
M  V30 133 H 1.991062 -0.536391 4.236193 0
M  V30 134 H 3.457375 -3.407885 3.568248 0
M  V30 135 H 1.427151 -2.467170 4.833082 0
M  V30 136 H 1.887588 -5.109573 4.693670 0
M  V30 137 H -0.021963 -3.366208 6.065132 0
M  V30 138 H 1.022656 -8.510022 6.290085 0
M  V30 139 H 1.747994 -7.207033 5.369500 0
M  V30 140 H -0.462769 -7.699671 3.751208 0
M  V30 141 H -0.190035 -9.341427 4.560360 0
M  V30 142 H 1.089959 -8.545086 3.654638 0
M  V30 143 H -1.147687 -9.518475 6.692297 0
M  V30 144 H -3.358025 -9.998655 7.787465 0
M  V30 145 H -3.951467 -5.868444 8.422570 0
M  V30 146 H -2.516040 -4.018561 5.750897 0
M  V30 147 H -3.273547 -3.994946 7.352977 0
M  V30 148 H -1.761351 -3.102811 7.096791 0
M  V30 149 H -1.576212 -4.437123 9.318985 0
M  V30 150 H -0.591103 -5.879199 9.101283 0
M  V30 151 H 0.099913 -4.290663 8.562163 0
M  V30 152 H 4.451684 1.292380 0.818324 0
M  V30 153 H 2.918358 2.246916 1.086051 0
M  V30 154 H 2.897948 0.479829 1.008168 0
M  V30 155 H 2.617843 2.864398 3.836888 0
M  V30 156 H 2.565331 1.236559 4.676122 0
M  V30 157 H 1.280070 0.559154 2.431463 0
M  V30 158 H 1.213052 2.311366 2.184242 0
M  V30 159 H 0.066150 2.605800 4.349694 0
M  V30 160 H 0.149871 0.890058 4.734108 0
M  V30 161 H -1.736233 -0.269577 4.360572 0
M  V30 162 H -3.052382 0.209047 1.717778 0
M  V30 163 H -3.928214 1.082520 3.004504 0
M  V30 164 H -5.043962 -1.011488 2.743757 0
M  V30 165 H -4.153095 -1.081308 4.290791 0
M  V30 166 H -2.300565 -2.280692 3.264834 0
M  V30 167 H -3.832576 -3.200471 3.264155 0
M  V30 168 H -4.244750 -2.389358 0.877691 0
M  V30 169 H -2.665805 -1.586942 0.892099 0
M  V30 170 H -1.469275 -3.464552 1.285154 0
M  V30 171 H -2.057080 -4.767454 -0.771908 0
M  V30 172 H -2.465730 -2.863162 -3.759530 0
M  V30 173 H -4.213967 -5.183049 -2.826638 0
M  V30 174 H -4.772722 -3.651516 -3.606586 0
M  V30 175 H -4.893916 -5.522962 -6.566234 0
M  V30 176 H -1.340808 -5.588455 -2.663312 0
M  V30 177 H 0.795474 -5.768902 -4.509349 0
M  V30 178 H 1.735644 -3.648961 -2.595968 0
M  V30 179 H 1.195610 -5.239199 -2.038804 0
M  V30 180 H 4.595550 -5.548491 -1.602457 0
M  V30 181 H 1.321155 -2.770882 -4.853623 0
M  V30 182 H 2.553424 -3.005878 -8.199292 0
M  V30 183 H 4.336499 -2.527765 -5.851815 0
M  V30 184 H 4.552039 -1.905896 -7.567505 0
M  V30 185 H 5.187516 -4.869244 -9.255602 0
M  V30 186 H 1.617744 -0.978026 -6.040041 0
M  V30 187 H 1.058581 0.738428 -9.227042 0
M  V30 188 H 3.326745 1.169316 -9.425526 0
M  V30 189 H 3.590148 1.427038 -7.685279 0
M  V30 190 H 2.691236 4.901960 -8.008583 0
M  V30 191 H 0.795519 1.449829 -6.216666 0
M  V30 192 H -2.489275 2.054101 -7.310629 0
M  V30 193 H -1.988240 3.766696 -8.801497 0
M  V30 194 H -0.799951 4.558138 -7.734783 0
M  V30 195 H -3.914132 5.890501 -5.795205 0
M  V30 196 H -1.974269 2.094430 -5.049549 0
M  V30 197 H -0.217578 4.428875 -3.173686 0
M  V30 198 H 1.048880 1.725446 -3.522930 0
M  V30 199 H 1.042784 2.701198 -2.034507 0
M  V30 200 H 4.294485 3.012772 -3.577638 0
M  V30 201 H -1.856274 1.769791 -3.074372 0
M  V30 202 H -2.852082 2.023658 -0.366191 0
M  V30 203 H -4.025977 2.998118 -1.370665 0
M  V30 204 H -2.110005 4.287734 0.649920 0
M  V30 205 H -3.338587 5.028471 -0.396114 0
M  V30 206 H -3.948895 2.780519 1.576662 0
M  V30 207 H -5.100168 3.714887 0.635987 0
M  V30 208 H -4.750008 4.648069 3.066201 0
M  V30 209 H -3.099643 4.974423 2.523895 0
M  V30 210 H -3.781053 6.549824 0.867758 0
M  V30 211 H -4.441047 6.920847 2.487982 0
M  V30 212 H -6.604672 6.083903 1.935189 0
M  V30 213 H -6.144916 5.384376 0.389458 0
M  V30 214 H -6.175623 8.352353 1.218491 0
M  V30 215 H -7.415668 7.458084 0.224450 0
M  V30 216 H -6.794291 6.507112 -2.088235 0
M  V30 217 H -3.154340 -6.945372 1.001049 0
M  V30 END ATOM
M  V30 BEGIN BOND
M  V30 1 1 1 2
M  V30 2 1 2 3
M  V30 3 1 3 4
M  V30 4 2 4 5
M  V30 5 1 5 6
M  V30 6 1 6 7
M  V30 7 2 7 8
M  V30 8 2 7 9
M  V30 9 1 7 10
M  V30 10 2 6 11
M  V30 11 1 11 12
M  V30 12 2 12 13
M  V30 13 1 13 14
M  V30 14 2 14 15
M  V30 15 1 15 16
M  V30 16 2 16 17
M  V30 17 1 17 18
M  V30 18 2 18 19
M  V30 19 1 19 20
M  V30 20 2 20 21
M  V30 21 1 21 22
M  V30 22 1 22 23
M  V30 23 1 21 24
M  V30 24 2 24 25
M  V30 25 1 25 26
M  V30 26 2 26 27
M  V30 27 1 27 28
M  V30 28 2 28 29
M  V30 29 2 28 30
M  V30 30 1 28 31
M  V30 31 1 27 32
M  V30 32 2 32 33
M  V30 33 1 33 34
M  V30 34 1 34 35
M  V30 35 1 34 36
M  V30 36 1 14 37
M  V30 37 1 37 38
M  V30 38 1 37 39
M  V30 39 1 39 40
M  V30 40 1 40 41
M  V30 41 1 41 42
M  V30 42 2 42 43
M  V30 43 1 42 44
M  V30 44 1 44 45
M  V30 45 1 45 46
M  V30 46 1 46 47
M  V30 47 1 47 48
M  V30 48 1 48 49
M  V30 49 1 49 50
M  V30 50 1 50 51
M  V30 51 2 51 52
M  V30 52 1 51 53
M  V30 53 1 53 54
M  V30 54 1 54 55
M  V30 55 2 55 56
M  V30 56 1 55 57
M  V30 57 1 53 58
M  V30 58 1 58 59
M  V30 59 2 59 60
M  V30 60 1 59 61
M  V30 61 1 61 62
M  V30 62 1 62 63
M  V30 63 2 63 64
M  V30 64 1 63 65
M  V30 65 1 61 66
M  V30 66 1 66 67
M  V30 67 2 67 68
M  V30 68 1 67 69
M  V30 69 1 69 70
M  V30 70 1 70 71
M  V30 71 2 71 72
M  V30 72 1 71 73
M  V30 73 1 69 74
M  V30 74 1 74 75
M  V30 75 2 75 76
M  V30 76 1 75 77
M  V30 77 1 77 78
M  V30 78 1 78 79
M  V30 79 2 79 80
M  V30 80 1 79 81
M  V30 81 1 77 82
M  V30 82 1 82 83
M  V30 83 2 83 84
M  V30 84 1 83 85
M  V30 85 1 85 86
M  V30 86 1 86 87
M  V30 87 2 87 88
M  V30 88 1 87 89
M  V30 89 1 85 90
M  V30 90 1 90 91
M  V30 91 2 91 92
M  V30 92 1 91 93
M  V30 93 1 93 94
M  V30 94 1 94 95
M  V30 95 2 95 96
M  V30 96 1 95 97
M  V30 97 1 93 98
M  V30 98 1 98 99
M  V30 99 2 99 100
M  V30 100 1 99 101
M  V30 101 1 101 102
M  V30 102 1 102 103
M  V30 103 1 103 104
M  V30 104 1 104 105
M  V30 105 1 105 106
M  V30 106 1 106 107
M  V30 107 1 107 108
M  V30 108 1 108 109
M  V30 109 2 109 110
M  V30 110 1 110 111
M  V30 111 2 111 112
M  V30 112 1 112 113
M  V30 113 1 112 114
M  V30 114 1 114 115
M  V30 115 2 114 116
M  V30 116 1 116 117
M  V30 117 1 116 118
M  V30 118 1 118 119
M  V30 119 2 118 120
M  V30 120 1 49 121
M  V30 121 2 121 122
M  V30 122 1 121 123
M  V30 123 1 37 3
M  V30 124 1 120 108
M  V30 125 1 13 4
M  V30 126 1 34 20
M  V30 127 1 120 111
M  V30 128 1 33 24
M  V30 129 1 1 124
M  V30 130 1 1 125
M  V30 131 1 1 126
M  V30 132 1 2 127
M  V30 133 1 2 128
M  V30 134 1 5 129
M  V30 135 1 10 130
M  V30 136 1 11 131
M  V30 137 1 12 132
M  V30 138 1 15 133
M  V30 139 1 16 134
M  V30 140 1 17 135
M  V30 141 1 18 136
M  V30 142 1 19 137
M  V30 143 1 22 138
M  V30 144 1 22 139
M  V30 145 1 23 140
M  V30 146 1 23 141
M  V30 147 1 23 142
M  V30 148 1 25 143
M  V30 149 1 26 144
M  V30 150 1 32 145
M  V30 151 1 35 146
M  V30 152 1 35 147
M  V30 153 1 35 148
M  V30 154 1 36 149
M  V30 155 1 36 150
M  V30 156 1 36 151
M  V30 157 1 38 152
M  V30 158 1 38 153
M  V30 159 1 38 154
M  V30 160 1 39 155
M  V30 161 1 39 156
M  V30 162 1 40 157
M  V30 163 1 40 158
M  V30 164 1 41 159
M  V30 165 1 41 160
M  V30 166 1 44 161
M  V30 167 1 45 162
M  V30 168 1 45 163
M  V30 169 1 46 164
M  V30 170 1 46 165
M  V30 171 1 47 166
M  V30 172 1 47 167
M  V30 173 1 48 168
M  V30 174 1 48 169
M  V30 175 1 49 170 CFG=1
M  V30 176 1 50 171
M  V30 177 1 53 172 CFG=3
M  V30 178 1 54 173
M  V30 179 1 54 174
M  V30 180 1 57 175
M  V30 181 1 58 176
M  V30 182 1 61 177 CFG=3
M  V30 183 1 62 178
M  V30 184 1 62 179
M  V30 185 1 65 180
M  V30 186 1 66 181
M  V30 187 1 69 182 CFG=3
M  V30 188 1 70 183
M  V30 189 1 70 184
M  V30 190 1 73 185
M  V30 191 1 74 186
M  V30 192 1 77 187 CFG=3
M  V30 193 1 78 188
M  V30 194 1 78 189
M  V30 195 1 81 190
M  V30 196 1 82 191
M  V30 197 1 85 192 CFG=1
M  V30 198 1 86 193
M  V30 199 1 86 194
M  V30 200 1 89 195
M  V30 201 1 90 196
M  V30 202 1 93 197 CFG=1
M  V30 203 1 94 198
M  V30 204 1 94 199
M  V30 205 1 97 200
M  V30 206 1 98 201
M  V30 207 1 101 202
M  V30 208 1 101 203
M  V30 209 1 102 204
M  V30 210 1 102 205
M  V30 211 1 103 206
M  V30 212 1 103 207
M  V30 213 1 104 208
M  V30 214 1 104 209
M  V30 215 1 105 210
M  V30 216 1 105 211
M  V30 217 1 106 212
M  V30 218 1 106 213
M  V30 219 1 107 214
M  V30 220 1 107 215
M  V30 221 1 109 216
M  V30 222 1 123 217
M  V30 END BOND
M  V30 END CTAB
M  END
>  <Dataset>  (191) 
ChEMBL_Kinases

>  <Ligand_Instance>  (191) 
nan

>  <PDB_ID>  (191) 
nan

>  <Standardized_SMILES>  (191) 
CCN1c2cc(S(=O)(=O)O)ccc2/C(=C\C=C\C=C\C2=[N+](CC)c3ccc(S(=O)(=O)[O-])cc3C2(C)C)C1(C)CCCC(=O)NCCCC[C@H](NC(=O)[C@H](CC(=O)O)NC(=O)[C@H](CC(=O)O)NC(=O)[C@H](CC(=O)O)NC(=O)[C@H](CC(=O)O)NC(=O)[C@H](CC(=O)O)NC(=O)[C@H](CC(=O)O)NC(=O)CCCCCCCn1cnc2c(Br)c(Br)c(Br)c(Br)c21)C(=O)O

>  <Name>  (191) 
nan

>  <Pocket>  (191) 
nan

>  <ATP_Site>  (191) 
nan

>  <Peripheral>  (191) 
nan

>  <Num_H_Atoms_ProtBoundConf>  (191) 
nan

>  <Num_Resolved_Atoms>  (191) 
nan

>  <Num_Not_Resolved_Atoms>  (191) 
nan

$$$$
CHEMBL4075638
     RDKit          3D

  0  0  0  0  0  0  0  0  0  0999 V3000
M  V30 BEGIN CTAB
M  V30 COUNTS 59 63 0 0 0
M  V30 BEGIN ATOM
M  V30 1 C 6.633200 -1.862069 3.454615 0
M  V30 2 C 6.353346 -2.224086 2.039712 0
M  V30 3 C 6.845493 -3.439381 1.570454 0
M  V30 4 C 6.564954 -3.729979 0.266661 0
M  V30 5 C 5.843301 -2.904070 -0.572873 0
M  V30 6 C 5.381599 -1.722180 -0.065850 0
M  V30 7 C 4.579498 -0.678121 -0.798538 0
M  V30 8 N 3.162838 -0.944748 -0.658799 0
M  V30 9 C 2.499198 -0.351598 0.453344 0
M  V30 10 O 3.139886 0.064523 1.449461 0
M  V30 11 C 1.045732 -0.229465 0.425262 0
M  V30 12 C 0.126136 0.275740 1.303152 0
M  V30 13 C -1.101015 0.096025 0.687154 0
M  V30 14 C -2.386771 0.491688 1.265501 0
M  V30 15 N -3.333138 1.141815 0.531034 0
M  V30 16 C -4.527243 1.504690 1.082231 0
M  V30 17 N -5.522041 2.184035 0.325699 0
M  V30 18 C -6.606038 1.703380 -0.474992 0
M  V30 19 C -7.488641 2.527307 -1.149949 0
M  V30 20 C -8.333501 1.631255 -1.764556 0
M  V30 21 N -7.973797 0.369093 -1.472165 0
M  V30 22 N -6.898787 0.404608 -0.669439 0
M  V30 23 C -6.206371 -0.745453 -0.130456 0
M  V30 24 N -4.833742 1.240189 2.379231 0
M  V30 25 C -3.915805 0.590469 3.153464 0
M  V30 26 C -2.724971 0.231144 2.595396 0
M  V30 27 C -1.728905 -0.480438 3.455711 0
M  V30 28 C -0.932482 -0.507282 -0.542954 0
M  V30 29 N 0.413604 -0.692829 -0.668265 0
M  V30 30 C 1.032229 -1.302300 -1.823476 0
M  V30 31 C 2.429757 -1.771781 -1.591053 0 CFG=2
M  V30 32 C 2.408212 -3.213314 -1.210848 0
M  V30 33 N 5.639993 -1.393724 1.232099 0
M  V30 34 H 7.686103 -1.535729 3.536344 0
M  V30 35 H 6.498012 -2.777160 4.066402 0
M  V30 36 H 5.928000 -1.071144 3.817107 0
M  V30 37 H 7.412853 -4.123035 2.175560 0
M  V30 38 H 6.919674 -4.657563 -0.154307 0
M  V30 39 H 5.599890 -3.095285 -1.606579 0
M  V30 40 H 4.877938 -0.755470 -1.861232 0
M  V30 41 H 4.868050 0.325707 -0.464444 0
M  V30 42 H 0.384244 0.702866 2.247978 0
M  V30 43 H -5.334927 3.191701 0.446078 0
M  V30 44 H -7.542682 3.598923 -1.210351 0
M  V30 45 H -9.187982 1.818436 -2.406507 0
M  V30 46 H -6.745623 -1.666720 -0.429259 0
M  V30 47 H -6.221692 -0.747883 0.979705 0
M  V30 48 H -5.139301 -0.775587 -0.440315 0
M  V30 49 H -4.174335 0.387700 4.182152 0
M  V30 50 H -2.308370 -1.122696 4.166231 0
M  V30 51 H -1.109344 0.194048 4.056503 0
M  V30 52 H -1.121889 -1.186337 2.852425 0
M  V30 53 H -1.752216 -0.747716 -1.206810 0
M  V30 54 H 1.037149 -0.505766 -2.621600 0
M  V30 55 H 0.434640 -2.142537 -2.233526 0
M  V30 56 H 2.965571 -1.713606 -2.577436 0
M  V30 57 H 3.223306 -3.807459 -1.675119 0
M  V30 58 H 2.415191 -3.403351 -0.108800 0
M  V30 59 H 1.470884 -3.662412 -1.596623 0
M  V30 END ATOM
M  V30 BEGIN BOND
M  V30 1 1 1 2
M  V30 2 2 2 3
M  V30 3 1 3 4
M  V30 4 2 4 5
M  V30 5 1 5 6
M  V30 6 1 6 7
M  V30 7 1 7 8
M  V30 8 1 8 9
M  V30 9 2 9 10
M  V30 10 1 9 11
M  V30 11 2 11 12
M  V30 12 1 12 13
M  V30 13 1 13 14
M  V30 14 2 14 15
M  V30 15 1 15 16
M  V30 16 1 16 17
M  V30 17 1 17 18
M  V30 18 2 18 19
M  V30 19 1 19 20
M  V30 20 2 20 21
M  V30 21 1 21 22
M  V30 22 1 22 23
M  V30 23 2 16 24
M  V30 24 1 24 25
M  V30 25 2 25 26
M  V30 26 1 26 27
M  V30 27 2 13 28
M  V30 28 1 28 29
M  V30 29 1 29 30
M  V30 30 1 30 31
M  V30 31 1 31 32
M  V30 32 2 6 33
M  V30 33 1 33 2
M  V30 34 1 31 8
M  V30 35 1 29 11
M  V30 36 1 26 14
M  V30 37 1 22 18
M  V30 38 1 1 34
M  V30 39 1 1 35
M  V30 40 1 1 36
M  V30 41 1 3 37
M  V30 42 1 4 38
M  V30 43 1 5 39
M  V30 44 1 7 40
M  V30 45 1 7 41
M  V30 46 1 12 42
M  V30 47 1 17 43
M  V30 48 1 19 44
M  V30 49 1 20 45
M  V30 50 1 23 46
M  V30 51 1 23 47
M  V30 52 1 23 48
M  V30 53 1 25 49
M  V30 54 1 27 50
M  V30 55 1 27 51
M  V30 56 1 27 52
M  V30 57 1 28 53
M  V30 58 1 30 54
M  V30 59 1 30 55
M  V30 60 1 31 56 CFG=3
M  V30 61 1 32 57
M  V30 62 1 32 58
M  V30 63 1 32 59
M  V30 END BOND
M  V30 END CTAB
M  END
>  <Dataset>  (192) 
ChEMBL_Kinases

>  <Ligand_Instance>  (192) 
nan

>  <PDB_ID>  (192) 
nan

>  <Standardized_SMILES>  (192) 
Cc1cccc(CN2C(=O)c3cc(-c4nc(Nc5ccnn5C)ncc4C)cn3C[C@@H]2C)n1

>  <Name>  (192) 
nan

>  <Pocket>  (192) 
nan

>  <ATP_Site>  (192) 
nan

>  <Peripheral>  (192) 
nan

>  <Num_H_Atoms_ProtBoundConf>  (192) 
nan

>  <Num_Resolved_Atoms>  (192) 
nan

>  <Num_Not_Resolved_Atoms>  (192) 
nan

$$$$
CHEMBL4075599
     RDKit          3D

  0  0  0  0  0  0  0  0  0  0999 V3000
M  V30 BEGIN CTAB
M  V30 COUNTS 63 66 0 0 0
M  V30 BEGIN ATOM
M  V30 1 C 9.542478 2.104158 2.874531 0
M  V30 2 N 8.250015 1.735652 2.337196 0
M  V30 3 C 7.986636 1.111528 1.084586 0
M  V30 4 O 8.995591 0.871006 0.389139 0
M  V30 5 C 6.657966 0.757580 0.601868 0
M  V30 6 C 6.615928 0.143202 -0.656336 0
M  V30 7 C 5.355514 -0.221936 -1.162092 0
M  V30 8 C 4.177405 0.004526 -0.472764 0
M  V30 9 C 4.298754 0.617757 0.764150 0
M  V30 10 C 5.502636 0.998013 1.321715 0
M  V30 11 C 3.238503 0.987713 1.724274 0
M  V30 12 O 3.542221 1.465522 2.862583 0
M  V30 13 C 1.807536 0.831211 1.435599 0
M  V30 14 C 1.069831 1.723909 2.226817 0
M  V30 15 C -0.304687 1.738428 2.114881 0
M  V30 16 C -0.978931 0.900977 1.247664 0
M  V30 17 N -2.384722 0.861472 1.021984 0
M  V30 18 C -3.258660 -0.231753 0.908442 0
M  V30 19 C -4.011152 -0.627894 -0.149937 0
M  V30 20 C -4.848247 -1.713910 -0.065749 0
M  V30 21 C -5.589753 -2.089314 -1.249422 0
M  V30 22 O -5.422590 -1.526385 -2.390604 0
M  V30 23 N -6.579497 -3.104956 -1.330277 0
M  V30 24 C -7.348349 -3.542366 -2.466242 0
M  V30 25 C -8.828109 -3.241729 -2.348838 0
M  V30 26 C -7.202000 -5.034411 -2.707408 0
M  V30 27 C -4.985855 -2.460911 1.062812 0
M  V30 28 C -4.240017 -2.112907 2.201737 0
M  V30 29 C -3.396446 -0.999836 2.077900 0
M  V30 30 C -2.624767 -0.669495 3.324814 0
M  V30 31 C -0.259015 0.011856 0.463438 0
M  V30 32 C 1.117238 -0.016426 0.559336 0
M  V30 33 C 1.825095 -0.953080 -0.326216 0
M  V30 34 C 2.950122 -0.405667 -1.104002 0
M  V30 35 H 9.405343 2.550306 3.869443 0
M  V30 36 H 10.088170 1.128647 3.059697 0
M  V30 37 H 10.169765 2.704188 2.206970 0
M  V30 38 H 7.390747 1.943554 2.925013 0
M  V30 39 H 7.493639 -0.057967 -1.254008 0
M  V30 40 H 5.288733 -0.703808 -2.135935 0
M  V30 41 H 5.534262 1.466426 2.288433 0
M  V30 42 H 1.582069 2.389554 2.909930 0
M  V30 43 H -0.912446 2.407877 2.694300 0
M  V30 44 H -2.646792 1.881801 0.954116 0
M  V30 45 H -3.896112 -0.020694 -1.068185 0
M  V30 46 H -6.809495 -3.633216 -0.458008 0
M  V30 47 H -6.955631 -3.029375 -3.390390 0
M  V30 48 H -9.092583 -2.294579 -2.891378 0
M  V30 49 H -9.385092 -4.042483 -2.867032 0
M  V30 50 H -9.126106 -3.114429 -1.286758 0
M  V30 51 H -6.222488 -5.416520 -2.351540 0
M  V30 52 H -7.240452 -5.210440 -3.793415 0
M  V30 53 H -8.041688 -5.579033 -2.251927 0
M  V30 54 H -5.628694 -3.324255 1.183460 0
M  V30 55 H -4.317710 -2.676118 3.116287 0
M  V30 56 H -1.639627 -1.170244 3.334886 0
M  V30 57 H -3.185728 -1.029997 4.226603 0
M  V30 58 H -2.507228 0.418846 3.444950 0
M  V30 59 H -0.594070 -0.712079 -0.257663 0
M  V30 60 H 2.134047 -1.827362 0.262829 0
M  V30 61 H 1.054333 -1.317750 -1.061970 0
M  V30 62 H 2.548002 0.526409 -1.617112 0
M  V30 63 H 3.186696 -1.101366 -1.946884 0
M  V30 END ATOM
M  V30 BEGIN BOND
M  V30 1 1 1 2
M  V30 2 1 2 3
M  V30 3 2 3 4
M  V30 4 1 3 5
M  V30 5 2 5 6
M  V30 6 1 6 7
M  V30 7 2 7 8
M  V30 8 1 8 9
M  V30 9 2 9 10
M  V30 10 1 9 11
M  V30 11 2 11 12
M  V30 12 1 11 13
M  V30 13 2 13 14
M  V30 14 1 14 15
M  V30 15 2 15 16
M  V30 16 1 16 17
M  V30 17 1 17 18
M  V30 18 2 18 19
M  V30 19 1 19 20
M  V30 20 1 20 21
M  V30 21 2 21 22
M  V30 22 1 21 23
M  V30 23 1 23 24
M  V30 24 1 24 25
M  V30 25 1 24 26
M  V30 26 2 20 27
M  V30 27 1 27 28
M  V30 28 2 28 29
M  V30 29 1 29 30
M  V30 30 1 16 31
M  V30 31 2 31 32
M  V30 32 1 32 33
M  V30 33 1 33 34
M  V30 34 1 10 5
M  V30 35 1 32 13
M  V30 36 1 34 8
M  V30 37 1 29 18
M  V30 38 1 1 35
M  V30 39 1 1 36
M  V30 40 1 1 37
M  V30 41 1 2 38
M  V30 42 1 6 39
M  V30 43 1 7 40
M  V30 44 1 10 41
M  V30 45 1 14 42
M  V30 46 1 15 43
M  V30 47 1 17 44
M  V30 48 1 19 45
M  V30 49 1 23 46
M  V30 50 1 24 47
M  V30 51 1 25 48
M  V30 52 1 25 49
M  V30 53 1 25 50
M  V30 54 1 26 51
M  V30 55 1 26 52
M  V30 56 1 26 53
M  V30 57 1 27 54
M  V30 58 1 28 55
M  V30 59 1 30 56
M  V30 60 1 30 57
M  V30 61 1 30 58
M  V30 62 1 31 59
M  V30 63 1 33 60
M  V30 64 1 33 61
M  V30 65 1 34 62
M  V30 66 1 34 63
M  V30 END BOND
M  V30 END CTAB
M  END
>  <Dataset>  (193) 
ChEMBL_Kinases

>  <Ligand_Instance>  (193) 
nan

>  <PDB_ID>  (193) 
nan

>  <Standardized_SMILES>  (193) 
CNC(=O)c1ccc2c(c1)C(=O)c1ccc(Nc3cc(C(=O)NC(C)C)ccc3C)cc1CC2

>  <Name>  (193) 
nan

>  <Pocket>  (193) 
nan

>  <ATP_Site>  (193) 
nan

>  <Peripheral>  (193) 
nan

>  <Num_H_Atoms_ProtBoundConf>  (193) 
nan

>  <Num_Resolved_Atoms>  (193) 
nan

>  <Num_Not_Resolved_Atoms>  (193) 
nan

$$$$
CHEMBL4075551
     RDKit          3D

  0  0  0  0  0  0  0  0  0  0999 V3000
M  V30 BEGIN CTAB
M  V30 COUNTS 65 67 0 0 0
M  V30 BEGIN ATOM
M  V30 1 C 4.120047 -1.371339 3.081816 0
M  V30 2 C 3.802586 -2.203462 1.892185 0
M  V30 3 N 3.722487 -1.522738 0.633844 0
M  V30 4 C 4.937564 -1.015173 0.109558 0
M  V30 5 C 5.464836 0.147507 0.936694 0
M  V30 6 C 2.925543 -2.260043 -0.293718 0
M  V30 7 C 2.734068 -1.658857 -1.638738 0
M  V30 8 C 2.072295 -0.303059 -1.640558 0
M  V30 9 C 0.699462 -0.443696 -1.003745 0
M  V30 10 C -0.086882 -1.447118 -1.835775 0
M  V30 11 N -0.016960 0.838651 -1.002934 0
M  V30 12 C -1.299974 0.917886 -0.408182 0
M  V30 13 N -1.843966 -0.170380 0.161247 0
M  V30 14 C -3.049745 -0.182947 0.752846 0
M  V30 15 C -3.621785 -1.366908 1.370709 0
M  V30 16 C -3.095538 -2.551769 1.461311 0
M  V30 17 C -3.478105 -3.828023 2.015123 0
M  V30 18 C -2.565760 -4.873511 1.888010 0
M  V30 19 Cl -1.003266 -4.654170 1.082777 0
M  V30 20 C -2.807034 -6.121941 2.367496 0
M  V30 21 C -3.993185 -6.388089 3.007782 0
M  V30 22 Cl -4.290818 -8.000732 3.619476 0
M  V30 23 C -4.945194 -5.408494 3.172742 0
M  V30 24 C -4.630347 -4.173420 2.662410 0
M  V30 25 Cl -5.869332 -2.968528 2.895905 0
M  V30 26 N -3.751110 0.962766 0.774329 0
M  V30 27 C -3.312497 2.105095 0.241124 0
M  V30 28 C -4.076612 3.247083 0.292720 0
M  V30 29 C -3.568732 4.383621 -0.274483 0
M  V30 30 C -2.328348 4.374689 -0.876789 0
M  V30 31 O -1.808562 5.536414 -1.456947 0
M  V30 32 C -2.602888 6.731070 -1.406198 0
M  V30 33 C -1.581987 3.213498 -0.914231 0
M  V30 34 C -2.071222 2.057109 -0.350571 0
M  V30 35 H 3.913073 -0.292835 2.981463 0
M  V30 36 H 3.439449 -1.695765 3.931231 0
M  V30 37 H 5.137994 -1.596838 3.499901 0
M  V30 38 H 2.843176 -2.756178 2.084052 0
M  V30 39 H 4.576020 -3.025546 1.856079 0
M  V30 40 H 4.797256 -0.640710 -0.908814 0
M  V30 41 H 5.747812 -1.783260 0.034502 0
M  V30 42 H 6.005908 -0.155290 1.832803 0
M  V30 43 H 4.672816 0.912531 1.085358 0
M  V30 44 H 6.247444 0.675841 0.303667 0
M  V30 45 H 1.915277 -2.453212 0.167777 0
M  V30 46 H 3.403814 -3.270539 -0.425203 0
M  V30 47 H 3.685994 -1.654994 -2.220318 0
M  V30 48 H 2.094847 -2.400515 -2.221976 0
M  V30 49 H 2.672363 0.421626 -1.082987 0
M  V30 50 H 1.952462 0.058153 -2.683694 0
M  V30 51 H 0.828910 -0.745293 0.029320 0
M  V30 52 H -0.063313 -2.438993 -1.359677 0
M  V30 53 H 0.334097 -1.490062 -2.847753 0
M  V30 54 H -1.122613 -1.085384 -1.905637 0
M  V30 55 H 0.489172 1.616154 -1.453771 0
M  V30 56 H -4.584305 -1.319433 1.820045 0
M  V30 57 H -2.110644 -2.483402 0.968036 0
M  V30 58 H -2.106401 -6.913015 2.266717 0
M  V30 59 H -5.872640 -5.632772 3.678150 0
M  V30 60 H -5.039256 3.289797 0.750162 0
M  V30 61 H -4.116305 5.328726 -0.273766 0
M  V30 62 H -3.589382 6.526800 -1.882470 0
M  V30 63 H -2.131320 7.533866 -1.990748 0
M  V30 64 H -2.847031 7.001919 -0.355538 0
M  V30 65 H -0.634777 3.259825 -1.389358 0
M  V30 END ATOM
M  V30 BEGIN BOND
M  V30 1 1 1 2
M  V30 2 1 2 3
M  V30 3 1 3 4
M  V30 4 1 4 5
M  V30 5 1 3 6
M  V30 6 1 6 7
M  V30 7 1 7 8
M  V30 8 1 8 9
M  V30 9 1 9 10
M  V30 10 1 9 11
M  V30 11 1 11 12
M  V30 12 2 12 13
M  V30 13 1 13 14
M  V30 14 1 14 15
M  V30 15 2 15 16
M  V30 16 1 16 17
M  V30 17 2 17 18
M  V30 18 1 18 19
M  V30 19 1 18 20
M  V30 20 2 20 21
M  V30 21 1 21 22
M  V30 22 1 21 23
M  V30 23 2 23 24
M  V30 24 1 24 25
M  V30 25 2 14 26
M  V30 26 1 26 27
M  V30 27 2 27 28
M  V30 28 1 28 29
M  V30 29 2 29 30
M  V30 30 1 30 31
M  V30 31 1 31 32
M  V30 32 1 30 33
M  V30 33 2 33 34
M  V30 34 1 34 12
M  V30 35 1 24 17
M  V30 36 1 34 27
M  V30 37 1 1 35
M  V30 38 1 1 36
M  V30 39 1 1 37
M  V30 40 1 2 38
M  V30 41 1 2 39
M  V30 42 1 4 40
M  V30 43 1 4 41
M  V30 44 1 5 42
M  V30 45 1 5 43
M  V30 46 1 5 44
M  V30 47 1 6 45
M  V30 48 1 6 46
M  V30 49 1 7 47
M  V30 50 1 7 48
M  V30 51 1 8 49
M  V30 52 1 8 50
M  V30 53 1 9 51
M  V30 54 1 10 52
M  V30 55 1 10 53
M  V30 56 1 10 54
M  V30 57 1 11 55
M  V30 58 1 15 56
M  V30 59 1 16 57
M  V30 60 1 20 58
M  V30 61 1 23 59
M  V30 62 1 28 60
M  V30 63 1 29 61
M  V30 64 1 32 62
M  V30 65 1 32 63
M  V30 66 1 32 64
M  V30 67 1 33 65
M  V30 END BOND
M  V30 END CTAB
M  END
>  <Dataset>  (194) 
ChEMBL_Kinases

>  <Ligand_Instance>  (194) 
nan

>  <PDB_ID>  (194) 
nan

>  <Standardized_SMILES>  (194) 
CCN(CC)CCCC(C)Nc1nc(/C=C/c2c(Cl)cc(Cl)cc2Cl)nc2ccc(OC)cc12

>  <Name>  (194) 
nan

>  <Pocket>  (194) 
nan

>  <ATP_Site>  (194) 
nan

>  <Peripheral>  (194) 
nan

>  <Num_H_Atoms_ProtBoundConf>  (194) 
nan

>  <Num_Resolved_Atoms>  (194) 
nan

>  <Num_Not_Resolved_Atoms>  (194) 
nan

$$$$
CHEMBL4075525
     RDKit          3D

  0  0  0  0  0  0  0  0  0  0999 V3000
M  V30 BEGIN CTAB
M  V30 COUNTS 54 57 0 0 0
M  V30 BEGIN ATOM
M  V30 1 C -0.458889 1.968721 3.815937 0
M  V30 2 C 1.007182 1.636153 3.849404 0
M  V30 3 O 1.162573 0.482152 3.020129 0
M  V30 4 C 2.362540 -0.146725 2.794243 0
M  V30 5 C 3.510231 0.331835 3.384770 0
M  V30 6 C 4.675917 -0.351849 3.112695 0
M  V30 7 C 4.739545 -1.462843 2.297638 0
M  V30 8 C 3.542219 -1.890084 1.735079 0
M  V30 9 C 2.333188 -1.264460 1.954646 0
M  V30 10 C 1.060520 -1.748366 1.308250 0
M  V30 11 C 0.941481 -1.296700 -0.105789 0
M  V30 12 N 0.197952 -2.349853 -0.819134 0
M  V30 13 C -1.103659 -2.011823 -1.305729 0
M  V30 14 N -1.387299 -0.703960 -1.134843 0
M  V30 15 C -2.575804 -0.158834 -1.528975 0
M  V30 16 C -2.790809 1.264225 -1.300773 0
M  V30 17 C -1.834240 2.027506 -0.711018 0
M  V30 18 C -2.073046 3.385062 -0.508811 0
M  V30 19 N -3.240459 3.969417 -0.887047 0
M  V30 20 C -4.200601 3.239716 -1.471095 0
M  V30 21 C -3.956354 1.895652 -1.667547 0
M  V30 22 C -3.475720 -0.995393 -2.108019 0
M  V30 23 C -3.218112 -2.333038 -2.296276 0
M  V30 24 O -4.017731 -3.145110 -2.825901 0
M  V30 25 N -2.013540 -2.784307 -1.873774 0
M  V30 26 C -1.702609 -4.173574 -2.029394 0
M  V30 27 C 1.052134 -3.509425 -0.847853 0
M  V30 28 C 1.192527 -4.057764 0.557547 0
M  V30 29 N 0.912840 -3.124833 1.579711 0
M  V30 30 H -0.639337 2.731161 4.609110 0
M  V30 31 H -0.794586 2.390477 2.848577 0
M  V30 32 H -1.082025 1.061368 3.983888 0
M  V30 33 H 1.288574 1.441344 4.897959 0
M  V30 34 H 1.614922 2.456746 3.440546 0
M  V30 35 H 3.481461 1.202519 4.026289 0
M  V30 36 H 5.591822 0.001500 3.562445 0
M  V30 37 H 5.665681 -1.997174 2.087744 0
M  V30 38 H 3.606291 -2.751503 1.105575 0
M  V30 39 H 0.252878 -1.208880 1.875422 0
M  V30 40 H 0.410800 -0.353689 -0.237575 0
M  V30 41 H 1.944363 -1.147939 -0.580504 0
M  V30 42 H -0.883690 1.652540 -0.380290 0
M  V30 43 H -1.305631 3.983266 -0.037249 0
M  V30 44 H -5.142240 3.719300 -1.774785 0
M  V30 45 H -4.731976 1.329968 -2.134333 0
M  V30 46 H -4.424322 -0.638626 -2.440261 0
M  V30 47 H -1.094737 -4.437035 -2.892323 0
M  V30 48 H -2.689125 -4.709634 -2.236479 0
M  V30 49 H -1.400844 -4.678197 -1.063340 0
M  V30 50 H 2.085849 -3.146216 -1.157017 0
M  V30 51 H 0.823632 -4.277435 -1.579116 0
M  V30 52 H 0.399538 -4.860549 0.622676 0
M  V30 53 H 2.150587 -4.603429 0.665784 0
M  V30 54 H 0.121095 -3.374836 2.207883 0
M  V30 END ATOM
M  V30 BEGIN BOND
M  V30 1 1 1 2
M  V30 2 1 2 3
M  V30 3 1 3 4
M  V30 4 2 4 5
M  V30 5 1 5 6
M  V30 6 2 6 7
M  V30 7 1 7 8
M  V30 8 2 8 9
M  V30 9 1 9 10
M  V30 10 1 10 11
M  V30 11 1 11 12
M  V30 12 1 12 13
M  V30 13 2 13 14
M  V30 14 1 14 15
M  V30 15 1 15 16
M  V30 16 2 16 17
M  V30 17 1 17 18
M  V30 18 2 18 19
M  V30 19 1 19 20
M  V30 20 2 20 21
M  V30 21 2 15 22
M  V30 22 1 22 23
M  V30 23 2 23 24
M  V30 24 1 23 25
M  V30 25 1 25 26
M  V30 26 1 12 27
M  V30 27 1 27 28
M  V30 28 1 28 29
M  V30 29 1 9 4
M  V30 30 1 29 10
M  V30 31 1 25 13
M  V30 32 1 21 16
M  V30 33 1 1 30
M  V30 34 1 1 31
M  V30 35 1 1 32
M  V30 36 1 2 33
M  V30 37 1 2 34
M  V30 38 1 5 35
M  V30 39 1 6 36
M  V30 40 1 7 37
M  V30 41 1 8 38
M  V30 42 1 10 39
M  V30 43 1 11 40
M  V30 44 1 11 41
M  V30 45 1 17 42
M  V30 46 1 18 43
M  V30 47 1 20 44
M  V30 48 1 21 45
M  V30 49 1 22 46
M  V30 50 1 26 47
M  V30 51 1 26 48
M  V30 52 1 26 49
M  V30 53 1 27 50
M  V30 54 1 27 51
M  V30 55 1 28 52
M  V30 56 1 28 53
M  V30 57 1 29 54
M  V30 END BOND
M  V30 END CTAB
M  END
>  <Dataset>  (195) 
ChEMBL_Kinases

>  <Ligand_Instance>  (195) 
nan

>  <PDB_ID>  (195) 
nan

>  <Standardized_SMILES>  (195) 
CCOc1ccccc1C1CN(c2nc(-c3ccncc3)cc(=O)n2C)CCN1

>  <Name>  (195) 
nan

>  <Pocket>  (195) 
nan

>  <ATP_Site>  (195) 
nan

>  <Peripheral>  (195) 
nan

>  <Num_H_Atoms_ProtBoundConf>  (195) 
nan

>  <Num_Resolved_Atoms>  (195) 
nan

>  <Num_Not_Resolved_Atoms>  (195) 
nan

$$$$
CHEMBL4076395
     RDKit          3D

  0  0  0  0  0  0  0  0  0  0999 V3000
M  V30 BEGIN CTAB
M  V30 COUNTS 40 43 0 0 0
M  V30 BEGIN ATOM
M  V30 1 C -2.030349 -7.339401 1.457907 0
M  V30 2 N -2.025414 -5.942607 1.069466 0
M  V30 3 C -0.901076 -5.469236 0.341786 0
M  V30 4 O -0.008299 -6.321264 0.103146 0
M  V30 5 C -0.806973 -4.080432 -0.091793 0
M  V30 6 C 0.342725 -3.717999 -0.802285 0
M  V30 7 C 0.452625 -2.395066 -1.226061 0
M  V30 8 C -0.600384 -1.536628 -0.904138 0
M  V30 9 O -0.515299 -0.264953 -1.303437 0
M  V30 10 C 0.002318 0.872222 -0.729446 0
M  V30 11 S -0.192607 2.318307 -1.797651 0
M  V30 12 C 0.573103 3.511441 -0.726633 0
M  V30 13 C 0.696535 4.888247 -1.092786 0
M  V30 14 N 1.321239 5.786330 -0.184773 0
M  V30 15 O 0.242215 5.241320 -2.210842 0
M  V30 16 C 0.935040 2.749601 0.382686 0
M  V30 17 C 0.646526 1.426868 0.376144 0
M  V30 18 C 0.995444 0.560079 1.514139 0
M  V30 19 S 0.830124 -1.061370 1.912868 0
M  V30 20 N 1.629499 -1.002481 3.587637 0
M  V30 21 C 1.947494 0.466008 3.584569 0
M  V30 22 C 1.618234 1.249470 2.520703 0
M  V30 23 C 1.997723 2.659362 2.678496 0
M  V30 24 C 1.607117 3.436390 1.497455 0
M  V30 25 C -1.737516 -1.915197 -0.195860 0
M  V30 26 N -1.819101 -3.217431 0.207168 0
M  V30 27 H -1.573038 -7.917058 0.606441 0
M  V30 28 H -1.460508 -7.479551 2.386397 0
M  V30 29 H -3.073627 -7.702903 1.600088 0
M  V30 30 H -2.807000 -5.269711 1.298553 0
M  V30 31 H 1.114161 -4.417539 -1.018612 0
M  V30 32 H 1.302612 -2.021744 -1.780443 0
M  V30 33 H 1.176803 6.539047 0.530024 0
M  V30 34 H 2.245966 6.102688 0.183865 0
M  V30 35 H 2.401182 0.436196 4.564321 0
M  V30 36 H 3.081086 2.807476 2.914940 0
M  V30 37 H 1.481433 3.136574 3.563872 0
M  V30 38 H 2.577037 3.864051 1.064987 0
M  V30 39 H 1.048668 4.363804 1.807431 0
M  V30 40 H -2.512240 -1.191358 0.015498 0
M  V30 END ATOM
M  V30 BEGIN BOND
M  V30 1 1 1 2
M  V30 2 1 2 3
M  V30 3 2 3 4
M  V30 4 1 3 5
M  V30 5 2 5 6
M  V30 6 1 6 7
M  V30 7 2 7 8
M  V30 8 1 8 9
M  V30 9 1 9 10
M  V30 10 1 10 11
M  V30 11 1 11 12
M  V30 12 1 12 13
M  V30 13 1 13 14
M  V30 14 2 13 15
M  V30 15 2 12 16
M  V30 16 1 16 17
M  V30 17 1 17 18
M  V30 18 1 18 19
M  V30 19 1 19 20
M  V30 20 2 20 21
M  V30 21 1 21 22
M  V30 22 1 22 23
M  V30 23 1 23 24
M  V30 24 1 8 25
M  V30 25 2 25 26
M  V30 26 1 26 5
M  V30 27 2 17 10
M  V30 28 2 22 18
M  V30 29 1 24 16
M  V30 30 1 1 27
M  V30 31 1 1 28
M  V30 32 1 1 29
M  V30 33 1 2 30
M  V30 34 1 6 31
M  V30 35 1 7 32
M  V30 36 1 14 33
M  V30 37 1 14 34
M  V30 38 1 21 35
M  V30 39 1 23 36
M  V30 40 1 23 37
M  V30 41 1 24 38
M  V30 42 1 24 39
M  V30 43 1 25 40
M  V30 END BOND
M  V30 END CTAB
M  END
>  <Dataset>  (196) 
ChEMBL_Kinases

>  <Ligand_Instance>  (196) 
nan

>  <PDB_ID>  (196) 
nan

>  <Standardized_SMILES>  (196) 
CNC(=O)c1ccc(Oc2sc(C(N)=O)c3c2-c2sncc2CC3)cn1

>  <Name>  (196) 
nan

>  <Pocket>  (196) 
nan

>  <ATP_Site>  (196) 
nan

>  <Peripheral>  (196) 
nan

>  <Num_H_Atoms_ProtBoundConf>  (196) 
nan

>  <Num_Resolved_Atoms>  (196) 
nan

>  <Num_Not_Resolved_Atoms>  (196) 
nan

$$$$
CHEMBL4075475
     RDKit          3D

  0  0  0  0  0  0  0  0  0  0999 V3000
M  V30 BEGIN CTAB
M  V30 COUNTS 58 62 0 0 0
M  V30 BEGIN ATOM
M  V30 1 O 1.657679 0.643959 2.204979 0
M  V30 2 C 2.202095 -0.045698 1.279979 0
M  V30 3 N 3.378929 -0.652174 1.742888 0
M  V30 4 C 3.942774 -0.545625 3.073656 0
M  V30 5 C 3.040675 -1.057316 4.136278 0
M  V30 6 N 3.086870 -2.382255 4.455858 0
M  V30 7 C 2.208534 -2.650564 5.437140 0
M  V30 8 C 1.579498 -1.466205 5.758380 0
M  V30 9 N 2.114354 -0.536454 4.948636 0
M  V30 10 C 1.599102 -0.122877 -0.037113 0
M  V30 11 C 0.402148 0.578400 -0.226239 0
M  V30 12 C -0.266712 0.581269 -1.433068 0
M  V30 13 C -1.537053 1.365797 -1.517968 0 CFG=2
M  V30 14 C -1.176660 2.795347 -1.298543 0
M  V30 15 C -2.293856 3.692275 -0.883144 0
M  V30 16 N -3.019362 3.067093 0.211520 0
M  V30 17 C -3.665817 1.923559 -0.395699 0
M  V30 18 C -2.594360 0.838563 -0.597938 0 CFG=1
M  V30 19 C -3.344781 -0.332957 -1.186274 0
M  V30 20 O -2.538107 -1.422930 -1.490898 0
M  V30 21 C -1.765907 -2.217031 -0.713556 0
M  V30 22 C -1.457226 -2.310994 0.624779 0
M  V30 23 C -0.610343 -3.245944 1.165183 0
M  V30 24 C -0.035827 -4.146925 0.301945 0
M  V30 25 C -0.276969 -4.143234 -1.062785 0
M  V30 26 C -1.151781 -3.162825 -1.555156 0
M  V30 27 O 0.475852 -5.186221 -1.557375 0
M  V30 28 C 1.002371 -5.980587 -0.526193 0
M  V30 29 O 0.845249 -5.172479 0.621163 0
M  V30 30 C 0.227730 -0.110475 -2.493125 0
M  V30 31 C 1.390000 -0.815379 -2.377356 0
M  V30 32 C 2.022711 -0.791725 -1.161026 0
M  V30 33 F 3.174310 -1.482937 -1.027039 0
M  V30 34 H 3.904854 -1.242067 1.060952 0
M  V30 35 H 4.141735 0.522460 3.337016 0
M  V30 36 H 4.931617 -1.060689 3.117689 0
M  V30 37 H 2.034676 -3.613492 5.883377 0
M  V30 38 H 0.812228 -1.279543 6.498754 0
M  V30 39 H 1.886617 0.478497 4.907963 0
M  V30 40 H -0.027301 1.148110 0.606462 0
M  V30 41 H -1.916935 1.250284 -2.551552 0
M  V30 42 H -0.708478 3.221470 -2.209733 0
M  V30 43 H -0.406696 2.862708 -0.492912 0
M  V30 44 H -3.048294 3.863667 -1.681765 0
M  V30 45 H -1.879533 4.650421 -0.563029 0
M  V30 46 H -2.320300 2.763239 0.953103 0
M  V30 47 H -3.984336 2.178260 -1.431470 0
M  V30 48 H -4.532861 1.563862 0.144339 0
M  V30 49 H -2.129056 0.590257 0.364169 0
M  V30 50 H -3.989340 -0.019020 -2.044060 0
M  V30 51 H -4.112300 -0.724781 -0.449823 0
M  V30 52 H -1.962952 -1.572770 1.198746 0
M  V30 53 H -0.472618 -3.186953 2.225541 0
M  V30 54 H -1.240370 -3.288219 -2.640452 0
M  V30 55 H 2.097495 -6.186416 -0.711367 0
M  V30 56 H 0.523526 -6.977821 -0.442043 0
M  V30 57 H -0.300679 -0.102205 -3.429643 0
M  V30 58 H 1.827794 -1.381562 -3.184886 0
M  V30 END ATOM
M  V30 BEGIN BOND
M  V30 1 2 1 2
M  V30 2 1 2 3
M  V30 3 1 3 4
M  V30 4 1 4 5
M  V30 5 2 5 6
M  V30 6 1 6 7
M  V30 7 2 7 8
M  V30 8 1 8 9
M  V30 9 1 2 10
M  V30 10 2 10 11
M  V30 11 1 11 12
M  V30 12 1 12 13
M  V30 13 1 13 14
M  V30 14 1 14 15
M  V30 15 1 15 16
M  V30 16 1 16 17
M  V30 17 1 17 18
M  V30 18 1 18 19
M  V30 19 1 19 20
M  V30 20 1 20 21
M  V30 21 2 21 22
M  V30 22 1 22 23
M  V30 23 2 23 24
M  V30 24 1 24 25
M  V30 25 2 25 26
M  V30 26 1 25 27
M  V30 27 1 27 28
M  V30 28 1 28 29
M  V30 29 2 12 30
M  V30 30 1 30 31
M  V30 31 2 31 32
M  V30 32 1 32 33
M  V30 33 1 9 5
M  V30 34 1 32 10
M  V30 35 1 18 13
M  V30 36 1 26 21
M  V30 37 1 29 24
M  V30 38 1 3 34
M  V30 39 1 4 35
M  V30 40 1 4 36
M  V30 41 1 7 37
M  V30 42 1 8 38
M  V30 43 1 9 39
M  V30 44 1 11 40
M  V30 45 1 13 41 CFG=3
M  V30 46 1 14 42
M  V30 47 1 14 43
M  V30 48 1 15 44
M  V30 49 1 15 45
M  V30 50 1 16 46
M  V30 51 1 17 47
M  V30 52 1 17 48
M  V30 53 1 18 49 CFG=1
M  V30 54 1 19 50
M  V30 55 1 19 51
M  V30 56 1 22 52
M  V30 57 1 23 53
M  V30 58 1 26 54
M  V30 59 1 28 55
M  V30 60 1 28 56
M  V30 61 1 30 57
M  V30 62 1 31 58
M  V30 END BOND
M  V30 END CTAB
M  END
>  <Dataset>  (197) 
ChEMBL_Kinases

>  <Ligand_Instance>  (197) 
nan

>  <PDB_ID>  (197) 
nan

>  <Standardized_SMILES>  (197) 
O=C(NCc1ncc[nH]1)c1cc([C@@H]2CCNC[C@H]2COc2ccc3c(c2)OCO3)ccc1F

>  <Name>  (197) 
nan

>  <Pocket>  (197) 
nan

>  <ATP_Site>  (197) 
nan

>  <Peripheral>  (197) 
nan

>  <Num_H_Atoms_ProtBoundConf>  (197) 
nan

>  <Num_Resolved_Atoms>  (197) 
nan

>  <Num_Not_Resolved_Atoms>  (197) 
nan

$$$$
CHEMBL4856792
     RDKit          3D

  0  0  0  0  0  0  0  0  0  0999 V3000
M  V30 BEGIN CTAB
M  V30 COUNTS 53 56 0 0 0
M  V30 BEGIN ATOM
M  V30 1 C 3.191227 -3.539936 1.208266 0
M  V30 2 N 1.775716 -3.673855 1.465026 0
M  V30 3 C 1.112469 -2.613819 2.097697 0
M  V30 4 N 1.736017 -1.480781 2.461192 0
M  V30 5 C 1.064869 -0.473574 3.061104 0
M  V30 6 N 1.904546 0.646310 3.363522 0
M  V30 7 C 2.051200 1.784813 2.486084 0
M  V30 8 C 2.904249 2.872927 2.679533 0
M  V30 9 N 2.889792 3.832071 1.751225 0
M  V30 10 C 2.109909 3.807884 0.656202 0
M  V30 11 C 2.250790 4.954506 -0.228482 0
M  V30 12 N 2.357638 5.847505 -0.930330 0
M  V30 13 C 1.233871 2.740403 0.411037 0
M  V30 14 O 0.533232 2.918210 -0.758703 0
M  V30 15 C -0.402374 1.997291 -1.182861 0 CFG=2
M  V30 16 C 0.084706 1.378543 -2.491933 0
M  V30 17 C -0.649013 0.029975 -2.553073 0
M  V30 18 C -2.008161 0.205816 -1.920342 0
M  V30 19 N -2.557594 1.528462 -2.075492 0
M  V30 20 C -1.765284 2.574442 -1.478044 0
M  V30 21 C 1.256846 1.764859 1.366535 0
M  V30 22 N -0.253623 -0.590592 3.306599 0
M  V30 23 C -0.909364 -1.731470 2.946482 0
M  V30 24 C -0.236951 -2.778531 2.328977 0
M  V30 25 C -1.066328 -3.926841 2.021447 0
M  V30 26 C -0.756589 -5.228883 2.330990 0
M  V30 27 N -1.789508 -5.932688 1.860271 0
M  V30 28 N -2.700247 -5.185157 1.293126 0
M  V30 29 C -3.953213 -5.558900 0.668470 0
M  V30 30 F -3.982601 -5.052381 -0.636497 0
M  V30 31 F -4.026838 -6.939589 0.530646 0
M  V30 32 F -5.041887 -5.108100 1.395640 0
M  V30 33 C -2.300063 -3.881409 1.360247 0
M  V30 34 H 3.702143 -2.979546 2.035544 0
M  V30 35 H 3.646307 -4.549061 1.160251 0
M  V30 36 H 3.360939 -3.034980 0.245404 0
M  V30 37 H 1.320990 -4.555368 1.160992 0
M  V30 38 H 2.466286 0.731019 4.219688 0
M  V30 39 H 3.499139 2.827210 3.576397 0
M  V30 40 H -0.526779 1.203387 -0.423272 0
M  V30 41 H 1.176145 1.255228 -2.425405 0
M  V30 42 H -0.264124 1.981443 -3.338657 0
M  V30 43 H -0.651890 -0.412845 -3.548578 0
M  V30 44 H -0.066600 -0.635507 -1.850591 0
M  V30 45 H -2.691637 -0.493398 -2.440368 0
M  V30 46 H -2.027375 -0.108965 -0.841218 0
M  V30 47 H -3.473197 1.511664 -1.548862 0
M  V30 48 H -1.622408 3.340028 -2.295491 0
M  V30 49 H -2.227060 3.086471 -0.631911 0
M  V30 50 H 0.585454 0.947568 1.173966 0
M  V30 51 H -1.962304 -1.654670 3.217408 0
M  V30 52 H 0.069470 -5.693558 2.827065 0
M  V30 53 H -2.784876 -2.967611 1.000682 0
M  V30 END ATOM
M  V30 BEGIN BOND
M  V30 1 1 1 2
M  V30 2 1 2 3
M  V30 3 2 3 4
M  V30 4 1 4 5
M  V30 5 1 5 6
M  V30 6 1 6 7
M  V30 7 2 7 8
M  V30 8 1 8 9
M  V30 9 2 9 10
M  V30 10 1 10 11
M  V30 11 3 11 12
M  V30 12 1 10 13
M  V30 13 1 13 14
M  V30 14 1 14 15
M  V30 15 1 15 16
M  V30 16 1 16 17
M  V30 17 1 17 18
M  V30 18 1 18 19
M  V30 19 1 19 20
M  V30 20 2 13 21
M  V30 21 2 5 22
M  V30 22 1 22 23
M  V30 23 2 23 24
M  V30 24 1 24 25
M  V30 25 1 25 26
M  V30 26 2 26 27
M  V30 27 1 27 28
M  V30 28 1 28 29
M  V30 29 1 29 30
M  V30 30 1 29 31
M  V30 31 1 29 32
M  V30 32 1 28 33
M  V30 33 1 24 3
M  V30 34 2 33 25
M  V30 35 1 21 7
M  V30 36 1 20 15
M  V30 37 1 1 34
M  V30 38 1 1 35
M  V30 39 1 1 36
M  V30 40 1 2 37
M  V30 41 1 6 38
M  V30 42 1 8 39
M  V30 43 1 15 40 CFG=1
M  V30 44 1 16 41
M  V30 45 1 16 42
M  V30 46 1 17 43
M  V30 47 1 17 44
M  V30 48 1 18 45
M  V30 49 1 18 46
M  V30 50 1 19 47
M  V30 51 1 20 48
M  V30 52 1 20 49
M  V30 53 1 21 50
M  V30 54 1 23 51
M  V30 55 1 26 52
M  V30 56 1 33 53
M  V30 END BOND
M  V30 END CTAB
M  END
>  <Dataset>  (198) 
ChEMBL_Kinases

>  <Ligand_Instance>  (198) 
nan

>  <PDB_ID>  (198) 
nan

>  <Standardized_SMILES>  (198) 
CNc1nc(Nc2cnc(C#N)c(O[C@@H]3CCCNC3)c2)ncc1-c1cnn(C(F)(F)F)c1

>  <Name>  (198) 
nan

>  <Pocket>  (198) 
nan

>  <ATP_Site>  (198) 
nan

>  <Peripheral>  (198) 
nan

>  <Num_H_Atoms_ProtBoundConf>  (198) 
nan

>  <Num_Resolved_Atoms>  (198) 
nan

>  <Num_Not_Resolved_Atoms>  (198) 
nan

$$$$
CHEMBL4075428
     RDKit          3D

  0  0  0  0  0  0  0  0  0  0999 V3000
M  V30 BEGIN CTAB
M  V30 COUNTS 38 40 0 0 0
M  V30 BEGIN ATOM
M  V30 1 C 0.706335 -3.094160 1.769426 0
M  V30 2 N 1.098805 -1.922459 1.013917 0
M  V30 3 C 2.393437 -1.746537 0.718724 0
M  V30 4 S 3.842956 -2.637397 1.034905 0 CHG=1 VAL=3
M  V30 5 C 4.635068 -2.203623 2.535511 0
M  V30 6 O 3.679590 -4.287022 0.798563 0 CHG=-1 VAL=1
M  V30 7 N 2.482896 -0.598797 0.019384 0
M  V30 8 C 1.250170 -0.077278 -0.112019 0
M  V30 9 C 0.770281 1.132238 -0.772206 0
M  V30 10 C 0.006171 0.982583 -1.919163 0
M  V30 11 C -0.504408 2.073194 -2.621018 0
M  V30 12 C -0.264679 3.358761 -2.195363 0
M  V30 13 F -0.767565 4.405567 -2.891531 0
M  V30 14 C 0.494481 3.502190 -1.057184 0
M  V30 15 C 1.009283 2.416643 -0.347392 0
M  V30 16 C 0.335117 -0.903316 0.516392 0
M  V30 17 C -1.102725 -0.942059 0.747778 0
M  V30 18 C -2.157607 -1.098491 -0.120759 0
M  V30 19 C -3.449642 -1.097491 0.324772 0
M  V30 20 N -3.711696 -0.941924 1.637281 0
M  V30 21 C -2.718446 -0.783494 2.543763 0
M  V30 22 N -3.112842 -0.627552 3.902060 0
M  V30 23 C -1.409477 -0.782624 2.105085 0
M  V30 24 H -0.408093 -3.206192 1.681485 0
M  V30 25 H 1.101552 -3.996165 1.229566 0
M  V30 26 H 0.958595 -3.069619 2.826376 0
M  V30 27 H 5.597299 -1.666766 2.308855 0
M  V30 28 H 4.902549 -3.106858 3.117578 0
M  V30 29 H 4.053973 -1.473962 3.142381 0
M  V30 30 H -0.259415 0.037371 -2.374731 0
M  V30 31 H -1.105819 1.961847 -3.522758 0
M  V30 32 H 0.691971 4.522589 -0.710307 0
M  V30 33 H 1.606771 2.548793 0.551395 0
M  V30 34 H -1.846121 -1.215491 -1.127500 0
M  V30 35 H -4.191342 -1.229160 -0.450943 0
M  V30 36 H -3.540034 0.142252 4.474445 0
M  V30 37 H -2.886789 -1.551709 4.369101 0
M  V30 38 H -0.705882 -0.645013 2.936313 0
M  V30 END ATOM
M  V30 BEGIN BOND
M  V30 1 1 1 2
M  V30 2 1 2 3
M  V30 3 1 3 4
M  V30 4 1 4 5
M  V30 5 1 4 6
M  V30 6 2 3 7
M  V30 7 1 7 8
M  V30 8 1 8 9
M  V30 9 2 9 10
M  V30 10 1 10 11
M  V30 11 2 11 12
M  V30 12 1 12 13
M  V30 13 1 12 14
M  V30 14 2 14 15
M  V30 15 2 8 16
M  V30 16 1 16 17
M  V30 17 2 17 18
M  V30 18 1 18 19
M  V30 19 2 19 20
M  V30 20 1 20 21
M  V30 21 1 21 22
M  V30 22 2 21 23
M  V30 23 1 16 2
M  V30 24 1 23 17
M  V30 25 1 15 9
M  V30 26 1 1 24
M  V30 27 1 1 25
M  V30 28 1 1 26
M  V30 29 1 5 27
M  V30 30 1 5 28
M  V30 31 1 5 29
M  V30 32 1 10 30
M  V30 33 1 11 31
M  V30 34 1 14 32
M  V30 35 1 15 33
M  V30 36 1 18 34
M  V30 37 1 19 35
M  V30 38 1 22 36
M  V30 39 1 22 37
M  V30 40 1 23 38
M  V30 END BOND
M  V30 END CTAB
M  END
>  <Dataset>  (199) 
ChEMBL_Kinases

>  <Ligand_Instance>  (199) 
nan

>  <PDB_ID>  (199) 
nan

>  <Standardized_SMILES>  (199) 
Cn1c([S+](C)[O-])nc(-c2ccc(F)cc2)c1-c1ccnc(N)c1

>  <Name>  (199) 
nan

>  <Pocket>  (199) 
nan

>  <ATP_Site>  (199) 
nan

>  <Peripheral>  (199) 
nan

>  <Num_H_Atoms_ProtBoundConf>  (199) 
nan

>  <Num_Resolved_Atoms>  (199) 
nan

>  <Num_Not_Resolved_Atoms>  (199) 
nan

$$$$
CHEMBL4856820
     RDKit          3D

  0  0  0  0  0  0  0  0  0  0999 V3000
M  V30 BEGIN CTAB
M  V30 COUNTS 46 49 0 0 0
M  V30 BEGIN ATOM
M  V30 1 C -2.161992 -5.299255 3.168669 0
M  V30 2 C -1.155662 -5.937640 2.202965 0
M  V30 3 C -1.117834 -5.072935 0.998383 0
M  V30 4 C -0.248173 -3.989866 0.825850 0
M  V30 5 C -0.442264 -3.358662 -0.412063 0
M  V30 6 N 0.290516 -2.250476 -0.813095 0
M  V30 7 C 0.268785 -0.853630 -0.764923 0
M  V30 8 N 1.328966 -0.207067 -1.328511 0
M  V30 9 C 1.413723 1.128650 -1.333347 0
M  V30 10 N 2.499458 1.838820 -1.914024 0
M  V30 11 C 3.518224 1.887930 -0.876095 0
M  V30 12 C 3.063665 2.524557 0.372089 0
M  V30 13 C 3.132659 3.851308 0.739666 0
M  V30 14 C 2.650851 4.251852 1.958998 0
M  V30 15 C 2.085717 3.407978 2.874309 0
M  V30 16 F 1.616132 3.828519 4.074200 0
M  V30 17 C 2.002212 2.066668 2.532609 0
M  V30 18 C 2.484595 1.658419 1.308880 0
M  V30 19 N 0.461026 1.898391 -0.785286 0
M  V30 20 C -0.619842 1.350064 -0.207958 0
M  V30 21 C -1.616152 2.113906 0.360539 0
M  V30 22 C -2.726430 1.544601 0.950194 0
M  V30 23 C -2.743941 0.151282 0.916224 0
M  V30 24 C -1.765124 -0.614633 0.357004 0
M  V30 25 C -0.665539 -0.026019 -0.225540 0
M  V30 26 N -1.424020 -4.076898 -0.957331 0
M  V30 27 N -1.808635 -5.052842 -0.154079 0
M  V30 28 H -1.759112 -5.259235 4.200735 0
M  V30 29 H -3.116103 -5.830606 3.163956 0
M  V30 30 H -2.384273 -4.248173 2.870436 0
M  V30 31 H -1.405450 -6.960164 1.928777 0
M  V30 32 H -0.169405 -5.867916 2.713978 0
M  V30 33 H 0.488634 -3.690926 1.584876 0
M  V30 34 H 1.081626 -2.737070 -1.292499 0
M  V30 35 H 2.363385 2.164330 -2.904422 0
M  V30 36 H 3.843169 0.846697 -0.673736 0
M  V30 37 H 4.408368 2.395317 -1.310703 0
M  V30 38 H 3.580421 4.492101 0.001102 0
M  V30 39 H 2.713878 5.297474 2.229222 0
M  V30 40 H 1.558642 1.410804 3.252469 0
M  V30 41 H 2.363799 0.581245 1.150612 0
M  V30 42 H -1.442178 3.188581 0.298536 0
M  V30 43 H -3.481861 2.174780 1.382954 0
M  V30 44 H -3.610215 -0.317119 1.375829 0
M  V30 45 H -1.895761 -1.680186 0.391957 0
M  V30 46 H -2.570188 -5.769426 -0.344502 0
M  V30 END ATOM
M  V30 BEGIN BOND
M  V30 1 1 1 2
M  V30 2 1 2 3
M  V30 3 2 3 4
M  V30 4 1 4 5
M  V30 5 1 5 6
M  V30 6 1 6 7
M  V30 7 2 7 8
M  V30 8 1 8 9
M  V30 9 1 9 10
M  V30 10 1 10 11
M  V30 11 1 11 12
M  V30 12 2 12 13
M  V30 13 1 13 14
M  V30 14 2 14 15
M  V30 15 1 15 16
M  V30 16 1 15 17
M  V30 17 2 17 18
M  V30 18 2 9 19
M  V30 19 1 19 20
M  V30 20 2 20 21
M  V30 21 1 21 22
M  V30 22 2 22 23
M  V30 23 1 23 24
M  V30 24 2 24 25
M  V30 25 2 5 26
M  V30 26 1 26 27
M  V30 27 1 27 3
M  V30 28 1 25 7
M  V30 29 1 18 12
M  V30 30 1 25 20
M  V30 31 1 1 28
M  V30 32 1 1 29
M  V30 33 1 1 30
M  V30 34 1 2 31
M  V30 35 1 2 32
M  V30 36 1 4 33
M  V30 37 1 6 34
M  V30 38 1 10 35
M  V30 39 1 11 36
M  V30 40 1 11 37
M  V30 41 1 13 38
M  V30 42 1 14 39
M  V30 43 1 17 40
M  V30 44 1 18 41
M  V30 45 1 21 42
M  V30 46 1 22 43
M  V30 47 1 23 44
M  V30 48 1 24 45
M  V30 49 1 27 46
M  V30 END BOND
M  V30 END CTAB
M  END
>  <Dataset>  (200) 
ChEMBL_Kinases

>  <Ligand_Instance>  (200) 
nan

>  <PDB_ID>  (200) 
nan

>  <Standardized_SMILES>  (200) 
CCc1cc(Nc2nc(NCc3ccc(F)cc3)nc3ccccc23)n[nH]1

>  <Name>  (200) 
nan

>  <Pocket>  (200) 
nan

>  <ATP_Site>  (200) 
nan

>  <Peripheral>  (200) 
nan

>  <Num_H_Atoms_ProtBoundConf>  (200) 
nan

>  <Num_Resolved_Atoms>  (200) 
nan

>  <Num_Not_Resolved_Atoms>  (200) 
nan

$$$$
CHEMBL4075407
     RDKit          3D

  0  0  0  0  0  0  0  0  0  0999 V3000
M  V30 BEGIN CTAB
M  V30 COUNTS 29 31 0 0 0
M  V30 BEGIN ATOM
M  V30 1 C -2.547624 -1.226417 4.438939 0
M  V30 2 C -1.573927 -1.166204 3.321541 0
M  V30 3 C -2.055473 -1.184319 2.030668 0
M  V30 4 C -1.223447 -1.131992 0.937197 0
M  V30 5 C 0.146975 -1.057591 1.072148 0
M  V30 6 C 1.208499 -0.977470 0.096799 0
M  V30 7 C 2.176131 -1.981305 0.221157 0
M  V30 8 C 3.246365 -2.072650 -0.651339 0
M  V30 9 N 3.393515 -1.183864 -1.664429 0
M  V30 10 C 2.476792 -0.212402 -1.801203 0
M  V30 11 N 2.322630 0.819566 -2.669869 0
M  V30 12 C 1.205850 1.543552 -2.371093 0
M  V30 13 C 0.613911 0.953936 -1.262743 0
M  V30 14 C -0.580722 1.470663 -0.668815 0
M  V30 15 N -1.547898 1.908277 -0.195554 0
M  V30 16 C 1.407500 -0.102869 -0.947302 0
M  V30 17 C 0.609066 -1.040828 2.369732 0
M  V30 18 C -0.205668 -1.092571 3.484050 0
M  V30 19 H -2.996249 -2.243959 4.431745 0
M  V30 20 H -2.105647 -0.955212 5.405308 0
M  V30 21 H -3.395573 -0.549635 4.161339 0
M  V30 22 H -3.117806 -1.241082 1.837763 0
M  V30 23 H -1.542161 -1.152478 -0.112126 0
M  V30 24 H 2.176522 -2.749213 0.982023 0
M  V30 25 H 4.007931 -2.837709 -0.578529 0
M  V30 26 H 2.951859 1.061612 -3.472753 0
M  V30 27 H 0.864775 2.415133 -2.914698 0
M  V30 28 H 1.669242 -0.984867 2.662660 0
M  V30 29 H 0.137529 -1.080501 4.506078 0
M  V30 END ATOM
M  V30 BEGIN BOND
M  V30 1 1 1 2
M  V30 2 2 2 3
M  V30 3 1 3 4
M  V30 4 2 4 5
M  V30 5 1 5 6
M  V30 6 2 6 7
M  V30 7 1 7 8
M  V30 8 2 8 9
M  V30 9 1 9 10
M  V30 10 1 10 11
M  V30 11 1 11 12
M  V30 12 2 12 13
M  V30 13 1 13 14
M  V30 14 3 14 15
M  V30 15 1 13 16
M  V30 16 1 5 17
M  V30 17 2 17 18
M  V30 18 1 18 2
M  V30 19 1 16 6
M  V30 20 2 16 10
M  V30 21 1 1 19
M  V30 22 1 1 20
M  V30 23 1 1 21
M  V30 24 1 3 22
M  V30 25 1 4 23
M  V30 26 1 7 24
M  V30 27 1 8 25
M  V30 28 1 11 26
M  V30 29 1 12 27
M  V30 30 1 17 28
M  V30 31 1 18 29
M  V30 END BOND
M  V30 END CTAB
M  END
>  <Dataset>  (201) 
ChEMBL_Kinases

>  <Ligand_Instance>  (201) 
nan

>  <PDB_ID>  (201) 
nan

>  <Standardized_SMILES>  (201) 
Cc1ccc(-c2ccnc3[nH]cc(C#N)c23)cc1

>  <Name>  (201) 
nan

>  <Pocket>  (201) 
nan

>  <ATP_Site>  (201) 
nan

>  <Peripheral>  (201) 
nan

>  <Num_H_Atoms_ProtBoundConf>  (201) 
nan

>  <Num_Resolved_Atoms>  (201) 
nan

>  <Num_Not_Resolved_Atoms>  (201) 
nan

$$$$
CHEMBL4075402
     RDKit          3D

  0  0  0  0  0  0  0  0  0  0999 V3000
M  V30 BEGIN CTAB
M  V30 COUNTS 72 76 0 0 0
M  V30 BEGIN ATOM
M  V30 1 C 8.331085 -1.466998 -1.340031 0
M  V30 2 C 6.947893 -0.992070 -1.238181 0
M  V30 3 O 6.070821 -1.430097 -2.028453 0
M  V30 4 C 6.524975 -0.010165 -0.237955 0
M  V30 5 C 7.507163 0.464596 0.624531 0
M  V30 6 C 7.159103 1.399044 1.605935 0
M  V30 7 C 5.841624 1.789662 1.647641 0
M  V30 8 C 4.824799 1.359511 0.823080 0
M  V30 9 C 5.228945 0.440388 -0.120531 0
M  V30 10 C 3.559183 1.964126 1.172959 0
M  V30 11 C 2.447852 1.798621 0.520179 0
M  V30 12 N 1.322041 2.491330 1.074434 0
M  V30 13 C 0.230789 1.569134 1.177340 0
M  V30 14 C -0.812931 1.531266 0.273396 0
M  V30 15 C -1.853405 0.598993 0.392222 0
M  V30 16 C -1.847294 -0.323210 1.448369 0
M  V30 17 N -2.878665 -1.292940 1.595990 0
M  V30 18 C -2.816147 -2.233728 2.689780 0
M  V30 19 C -3.869139 -1.191816 0.604774 0
M  V30 20 O -4.724281 -2.104954 0.756890 0
M  V30 21 C -4.840087 -1.011742 -0.448441 0
M  V30 22 N -5.908530 -1.927490 -0.555704 0
M  V30 23 C -5.609267 -3.247328 -0.977898 0
M  V30 24 C -6.061675 -4.366306 -0.120456 0
M  V30 25 N -7.174161 -4.066529 0.748544 0
M  V30 26 C -7.990912 -5.239001 1.006084 0
M  V30 27 C -7.942203 -2.927551 0.306395 0
M  V30 28 C -7.044189 -1.729098 0.259798 0
M  V30 29 C -0.778348 -0.235378 2.319622 0
M  V30 30 C 0.261323 0.668576 2.232841 0
M  V30 31 C 2.289916 1.101849 -0.744644 0
M  V30 32 C 1.600337 -0.017292 -1.145098 0
M  V30 33 C 1.558655 -0.400019 -2.468199 0
M  V30 34 C 2.236756 0.375496 -3.416198 0
M  V30 35 C 2.938842 1.503587 -3.053626 0
M  V30 36 C 2.972565 1.881211 -1.703577 0
M  V30 37 C 3.886891 2.817465 2.309921 0
M  V30 38 O 3.028050 3.518708 2.908115 0
M  V30 39 N 5.274152 2.713298 2.598408 0
M  V30 40 H 8.999998 -0.589498 -1.489508 0
M  V30 41 H 8.432582 -2.167224 -2.174625 0
M  V30 42 H 8.641081 -2.048256 -0.426362 0
M  V30 43 H 8.526710 0.119052 0.541923 0
M  V30 44 H 7.902089 1.771948 2.270702 0
M  V30 45 H 4.590516 -0.025837 -0.816053 0
M  V30 46 H 1.315104 3.492510 1.345106 0
M  V30 47 H -0.798574 2.255577 -0.538986 0
M  V30 48 H -2.664151 0.600746 -0.346634 0
M  V30 49 H -3.698102 -2.911052 2.715209 0
M  V30 50 H -1.946541 -2.896520 2.502162 0
M  V30 51 H -2.700188 -1.654300 3.627038 0
M  V30 52 H -4.278189 -1.052868 -1.430887 0
M  V30 53 H -5.223655 0.044913 -0.381820 0
M  V30 54 H -6.047783 -3.395156 -2.011496 0
M  V30 55 H -4.505795 -3.346973 -1.168003 0
M  V30 56 H -5.243234 -4.776806 0.507920 0
M  V30 57 H -6.334050 -5.237040 -0.788782 0
M  V30 58 H -7.577587 -6.067575 0.393165 0
M  V30 59 H -7.828484 -5.511851 2.069190 0
M  V30 60 H -9.067402 -5.064677 0.845297 0
M  V30 61 H -8.707490 -2.740312 1.111768 0
M  V30 62 H -8.490672 -3.120759 -0.636734 0
M  V30 63 H -6.868056 -1.372576 1.291132 0
M  V30 64 H -7.658304 -0.914437 -0.234187 0
M  V30 65 H -0.851134 -0.974667 3.097339 0
M  V30 66 H 1.053871 0.629520 2.996278 0
M  V30 67 H 1.150790 -0.483364 -0.280286 0
M  V30 68 H 0.985905 -1.296356 -2.664028 0
M  V30 69 H 2.166115 0.023118 -4.435052 0
M  V30 70 H 3.417645 2.010518 -3.874648 0
M  V30 71 H 3.562573 2.779242 -1.605645 0
M  V30 72 H 5.734152 3.229681 3.361884 0
M  V30 END ATOM
M  V30 BEGIN BOND
M  V30 1 1 1 2
M  V30 2 2 2 3
M  V30 3 1 2 4
M  V30 4 2 4 5
M  V30 5 1 5 6
M  V30 6 2 6 7
M  V30 7 1 7 8
M  V30 8 2 8 9
M  V30 9 1 8 10
M  V30 10 2 10 11
M  V30 11 1 11 12
M  V30 12 1 12 13
M  V30 13 2 13 14
M  V30 14 1 14 15
M  V30 15 2 15 16
M  V30 16 1 16 17
M  V30 17 1 17 18
M  V30 18 1 17 19
M  V30 19 2 19 20
M  V30 20 1 19 21
M  V30 21 1 21 22
M  V30 22 1 22 23
M  V30 23 1 23 24
M  V30 24 1 24 25
M  V30 25 1 25 26
M  V30 26 1 25 27
M  V30 27 1 27 28
M  V30 28 1 16 29
M  V30 29 2 29 30
M  V30 30 1 11 31
M  V30 31 2 31 32
M  V30 32 1 32 33
M  V30 33 2 33 34
M  V30 34 1 34 35
M  V30 35 2 35 36
M  V30 36 1 10 37
M  V30 37 2 37 38
M  V30 38 1 37 39
M  V30 39 1 9 4
M  V30 40 1 30 13
M  V30 41 1 36 31
M  V30 42 1 39 7
M  V30 43 1 28 22
M  V30 44 1 1 40
M  V30 45 1 1 41
M  V30 46 1 1 42
M  V30 47 1 5 43
M  V30 48 1 6 44
M  V30 49 1 9 45
M  V30 50 1 12 46
M  V30 51 1 14 47
M  V30 52 1 15 48
M  V30 53 1 18 49
M  V30 54 1 18 50
M  V30 55 1 18 51
M  V30 56 1 21 52
M  V30 57 1 21 53
M  V30 58 1 23 54
M  V30 59 1 23 55
M  V30 60 1 24 56
M  V30 61 1 24 57
M  V30 62 1 26 58
M  V30 63 1 26 59
M  V30 64 1 26 60
M  V30 65 1 27 61
M  V30 66 1 27 62
M  V30 67 1 28 63
M  V30 68 1 28 64
M  V30 69 1 29 65
M  V30 70 1 30 66
M  V30 71 1 32 67
M  V30 72 1 33 68
M  V30 73 1 34 69
M  V30 74 1 35 70
M  V30 75 1 36 71
M  V30 76 1 39 72
M  V30 END BOND
M  V30 END CTAB
M  END
>  <Dataset>  (202) 
ChEMBL_Kinases

>  <Ligand_Instance>  (202) 
nan

>  <PDB_ID>  (202) 
nan

>  <Standardized_SMILES>  (202) 
CC(=O)c1ccc2c(c1)/C(=C(/Nc1ccc(N(C)C(=O)CN3CCN(C)CC3)cc1)c1ccccc1)C(=O)N2

>  <Name>  (202) 
nan

>  <Pocket>  (202) 
nan

>  <ATP_Site>  (202) 
nan

>  <Peripheral>  (202) 
nan

>  <Num_H_Atoms_ProtBoundConf>  (202) 
nan

>  <Num_Resolved_Atoms>  (202) 
nan

>  <Num_Not_Resolved_Atoms>  (202) 
nan

$$$$
CHEMBL4075400
     RDKit          3D

  0  0  0  0  0  0  0  0  0  0999 V3000
M  V30 BEGIN CTAB
M  V30 COUNTS 48 51 0 0 0
M  V30 BEGIN ATOM
M  V30 1 C 1.181398 -4.326341 0.683703 0
M  V30 2 N -0.029927 -3.567394 0.551059 0
M  V30 3 C -0.115532 -2.227194 0.632487 0
M  V30 4 N 1.065069 -1.484517 0.901433 0
M  V30 5 C 1.009627 -1.123538 2.312597 0
M  V30 6 C 2.254595 -0.379209 2.754127 0
M  V30 7 N 3.366975 -0.560424 1.869236 0
M  V30 8 C 3.094875 -0.170310 0.503646 0
M  V30 9 C 2.617174 1.216619 0.507907 0
M  V30 10 C 1.582318 1.671771 -0.298596 0
M  V30 11 C 1.118755 2.985451 -0.290015 0
M  V30 12 C 1.729729 3.857497 0.565300 0
M  V30 13 C 1.297457 5.213401 0.620518 0
M  V30 14 N 0.955218 6.323988 0.676507 0
M  V30 15 C 2.766571 3.479668 1.398922 0
M  V30 16 C 3.189943 2.148720 1.348110 0
M  V30 17 C 2.114429 -1.160648 -0.053576 0
M  V30 18 N -1.287857 -1.591300 0.489897 0
M  V30 19 C -2.450867 -2.225335 0.260247 0
M  V30 20 C -3.635971 -1.397886 0.129594 0
M  V30 21 C -3.532339 -0.030288 0.234773 0
M  V30 22 C -4.594512 0.837612 0.134868 0
M  V30 23 N -5.808704 0.318311 -0.078645 0
M  V30 24 C -6.014949 -0.999958 -0.196790 0
M  V30 25 C -4.931810 -1.858679 -0.093054 0
M  V30 26 C -2.393530 -3.595088 0.171886 0
M  V30 27 C -1.185476 -4.244076 0.318484 0
M  V30 28 O -1.250589 -5.503430 0.218245 0
M  V30 29 H 1.009252 -5.322940 1.179676 0
M  V30 30 H 1.702067 -4.463529 -0.296941 0
M  V30 31 H 1.899611 -3.784962 1.341458 0
M  V30 32 H 0.075213 -0.505706 2.489196 0
M  V30 33 H 0.861267 -2.048454 2.917016 0
M  V30 34 H 2.562325 -0.804788 3.743239 0
M  V30 35 H 1.997628 0.682993 2.921561 0
M  V30 36 H 3.830420 -1.466041 1.970028 0
M  V30 37 H 4.072046 -0.281364 -0.056805 0
M  V30 38 H 1.085940 1.011816 -0.974448 0
M  V30 39 H 0.307746 3.258054 -0.951469 0
M  V30 40 H 3.227517 4.198198 2.063095 0
M  V30 41 H 4.004161 1.921832 2.028834 0
M  V30 42 H 2.672720 -2.116016 -0.194927 0
M  V30 43 H 1.689757 -0.916170 -1.026721 0
M  V30 44 H -2.553217 0.433712 0.408485 0
M  V30 45 H -4.413814 1.919767 0.233334 0
M  V30 46 H -6.995775 -1.456128 -0.369926 0
M  V30 47 H -5.064338 -2.926100 -0.182608 0
M  V30 48 H -3.338572 -4.108809 -0.020223 0
M  V30 END ATOM
M  V30 BEGIN BOND
M  V30 1 1 1 2
M  V30 2 1 2 3
M  V30 3 1 3 4
M  V30 4 1 4 5
M  V30 5 1 5 6
M  V30 6 1 6 7
M  V30 7 1 7 8
M  V30 8 1 8 9
M  V30 9 2 9 10
M  V30 10 1 10 11
M  V30 11 2 11 12
M  V30 12 1 12 13
M  V30 13 3 13 14
M  V30 14 1 12 15
M  V30 15 2 15 16
M  V30 16 1 8 17
M  V30 17 2 3 18
M  V30 18 1 18 19
M  V30 19 1 19 20
M  V30 20 2 20 21
M  V30 21 1 21 22
M  V30 22 2 22 23
M  V30 23 1 23 24
M  V30 24 2 24 25
M  V30 25 2 19 26
M  V30 26 1 26 27
M  V30 27 2 27 28
M  V30 28 1 27 2
M  V30 29 1 17 4
M  V30 30 1 25 20
M  V30 31 1 16 9
M  V30 32 1 1 29
M  V30 33 1 1 30
M  V30 34 1 1 31
M  V30 35 1 5 32
M  V30 36 1 5 33
M  V30 37 1 6 34
M  V30 38 1 6 35
M  V30 39 1 7 36
M  V30 40 1 8 37
M  V30 41 1 10 38
M  V30 42 1 11 39
M  V30 43 1 15 40
M  V30 44 1 16 41
M  V30 45 1 17 42
M  V30 46 1 17 43
M  V30 47 1 21 44
M  V30 48 1 22 45
M  V30 49 1 24 46
M  V30 50 1 25 47
M  V30 51 1 26 48
M  V30 END BOND
M  V30 END CTAB
M  END
>  <Dataset>  (203) 
ChEMBL_Kinases

>  <Ligand_Instance>  (203) 
nan

>  <PDB_ID>  (203) 
nan

>  <Standardized_SMILES>  (203) 
Cn1c(N2CCNC(c3ccc(C#N)cc3)C2)nc(-c2ccncc2)cc1=O

>  <Name>  (203) 
nan

>  <Pocket>  (203) 
nan

>  <ATP_Site>  (203) 
nan

>  <Peripheral>  (203) 
nan

>  <Num_H_Atoms_ProtBoundConf>  (203) 
nan

>  <Num_Resolved_Atoms>  (203) 
nan

>  <Num_Not_Resolved_Atoms>  (203) 
nan

$$$$
CHEMBL4075393
     RDKit          3D

  0  0  0  0  0  0  0  0  0  0999 V3000
M  V30 BEGIN CTAB
M  V30 COUNTS 22 24 0 0 0
M  V30 BEGIN ATOM
M  V30 1 O 0.871538 -3.510144 2.639040 0
M  V30 2 C 1.114504 -2.296760 2.892954 0
M  V30 3 N 1.714640 -1.588125 3.991430 0
M  V30 4 C 1.698223 -0.188040 3.669042 0
M  V30 5 S 2.302931 0.932896 4.692081 0
M  V30 6 N 1.087116 -0.052930 2.374053 0
M  V30 7 C 0.740135 -1.264658 1.904120 0
M  V30 8 C 0.130703 -1.306130 0.648969 0
M  V30 9 C -0.097731 -0.135365 -0.065818 0
M  V30 10 C -0.703801 -0.242174 -1.300549 0
M  V30 11 C -0.949881 0.915409 -2.049221 0
M  V30 12 C -0.548178 2.097772 -1.459767 0
M  V30 13 C 0.059442 2.227760 -0.226594 0
M  V30 14 C 0.287017 1.056575 0.486502 0
M  V30 15 C 0.891039 1.112525 1.727455 0
M  V30 16 O 1.225243 2.222356 2.191879 0
M  V30 17 H 2.053304 -2.146691 4.808707 0
M  V30 18 H -0.167683 -2.272232 0.229204 0
M  V30 19 H -1.004724 -1.196505 -1.727982 0
M  V30 20 H -1.420662 0.906911 -3.023693 0
M  V30 21 H -0.734682 3.017791 -2.035973 0
M  V30 22 H 0.338034 3.202175 0.150419 0
M  V30 END ATOM
M  V30 BEGIN BOND
M  V30 1 2 1 2
M  V30 2 1 2 3
M  V30 3 1 3 4
M  V30 4 2 4 5
M  V30 5 1 4 6
M  V30 6 1 6 7
M  V30 7 2 7 8
M  V30 8 1 8 9
M  V30 9 2 9 10
M  V30 10 1 10 11
M  V30 11 2 11 12
M  V30 12 1 12 13
M  V30 13 2 13 14
M  V30 14 1 14 15
M  V30 15 2 15 16
M  V30 16 1 7 2
M  V30 17 1 14 9
M  V30 18 1 15 6
M  V30 19 1 3 17
M  V30 20 1 8 18
M  V30 21 1 10 19
M  V30 22 1 11 20
M  V30 23 1 12 21
M  V30 24 1 13 22
M  V30 END BOND
M  V30 END CTAB
M  END
>  <Dataset>  (204) 
ChEMBL_Kinases

>  <Ligand_Instance>  (204) 
nan

>  <PDB_ID>  (204) 
nan

>  <Standardized_SMILES>  (204) 
O=C1NC(=S)n2c1cc1ccccc1c2=O

>  <Name>  (204) 
nan

>  <Pocket>  (204) 
nan

>  <ATP_Site>  (204) 
nan

>  <Peripheral>  (204) 
nan

>  <Num_H_Atoms_ProtBoundConf>  (204) 
nan

>  <Num_Resolved_Atoms>  (204) 
nan

>  <Num_Not_Resolved_Atoms>  (204) 
nan

$$$$
CHEMBL4856974
     RDKit          3D

  0  0  0  0  0  0  0  0  0  0999 V3000
M  V30 BEGIN CTAB
M  V30 COUNTS 46 47 0 0 0
M  V30 BEGIN ATOM
M  V30 1 C -1.032955 -4.823547 0.240624 0
M  V30 2 O -1.912133 -3.898819 0.854338 0
M  V30 3 C -1.502372 -2.686657 1.379654 0
M  V30 4 C -0.211198 -2.193544 1.392434 0
M  V30 5 C 0.094899 -0.965439 1.944151 0
M  V30 6 N 1.460221 -0.556062 1.902334 0
M  V30 7 C 1.719060 0.164244 0.713907 0
M  V30 8 O 0.758205 0.345154 -0.116806 0
M  V30 9 C 2.868286 0.820554 0.105289 0 CFG=2
M  V30 10 N 4.036001 0.685552 0.937363 0
M  V30 11 C 2.622383 2.231329 -0.336604 0
M  V30 12 C 3.798271 2.914858 -0.962546 0
M  V30 13 C 4.287008 2.189232 -2.201051 0
M  V30 14 C 4.921734 3.232869 -0.042603 0
M  V30 15 C -0.882509 -0.168731 2.512189 0
M  V30 16 C -2.175752 -0.655197 2.503062 0
M  V30 17 C -2.481618 -1.884232 1.950846 0
M  V30 18 C -3.897710 -2.219873 2.038163 0
M  V30 19 C -4.714511 -2.071031 3.142975 0
M  V30 20 C -6.046662 -2.429845 3.092513 0
M  V30 21 N -6.584457 -2.930708 1.975927 0
M  V30 22 C -5.852468 -3.097902 0.881732 0
M  V30 23 Cl -6.599069 -3.760025 -0.566133 0
M  V30 24 C -4.515471 -2.748601 0.899062 0
M  V30 25 H -1.403522 -5.855481 0.306560 0
M  V30 26 H -0.970675 -4.551169 -0.851566 0
M  V30 27 H -0.021119 -4.751323 0.683553 0
M  V30 28 H 0.540627 -2.805281 0.956029 0
M  V30 29 H 2.322020 -0.615988 2.462187 0
M  V30 30 H 3.120761 0.249667 -0.839355 0
M  V30 31 H 4.925653 0.691382 0.385277 0
M  V30 32 H 4.054026 -0.124537 1.562184 0
M  V30 33 H 1.801708 2.278029 -1.082098 0
M  V30 34 H 2.278136 2.891510 0.490926 0
M  V30 35 H 3.389815 3.892395 -1.362752 0
M  V30 36 H 4.605566 2.921072 -2.996564 0
M  V30 37 H 5.198013 1.598847 -1.969570 0
M  V30 38 H 3.482122 1.579082 -2.674739 0
M  V30 39 H 4.631327 2.986398 1.003642 0
M  V30 40 H 5.115370 4.321237 -0.056368 0
M  V30 41 H 5.884209 2.762918 -0.324955 0
M  V30 42 H -0.605210 0.782355 2.932262 0
M  V30 43 H -2.901972 0.013838 2.963180 0
M  V30 44 H -4.231364 -1.658847 4.029779 0
M  V30 45 H -6.575372 -2.260055 4.033800 0
M  V30 46 H -3.909003 -2.886095 -0.004331 0
M  V30 END ATOM
M  V30 BEGIN BOND
M  V30 1 1 1 2
M  V30 2 1 2 3
M  V30 3 2 3 4
M  V30 4 1 4 5
M  V30 5 1 5 6
M  V30 6 1 6 7
M  V30 7 2 7 8
M  V30 8 1 7 9
M  V30 9 1 9 10
M  V30 10 1 9 11
M  V30 11 1 11 12
M  V30 12 1 12 13
M  V30 13 1 12 14
M  V30 14 2 5 15
M  V30 15 1 15 16
M  V30 16 2 16 17
M  V30 17 1 17 18
M  V30 18 2 18 19
M  V30 19 1 19 20
M  V30 20 2 20 21
M  V30 21 1 21 22
M  V30 22 1 22 23
M  V30 23 2 22 24
M  V30 24 1 17 3
M  V30 25 1 24 18
M  V30 26 1 1 25
M  V30 27 1 1 26
M  V30 28 1 1 27
M  V30 29 1 4 28
M  V30 30 1 6 29
M  V30 31 1 9 30 CFG=3
M  V30 32 1 10 31
M  V30 33 1 10 32
M  V30 34 1 11 33
M  V30 35 1 11 34
M  V30 36 1 12 35
M  V30 37 1 13 36
M  V30 38 1 13 37
M  V30 39 1 13 38
M  V30 40 1 14 39
M  V30 41 1 14 40
M  V30 42 1 14 41
M  V30 43 1 15 42
M  V30 44 1 16 43
M  V30 45 1 19 44
M  V30 46 1 20 45
M  V30 47 1 24 46
M  V30 END BOND
M  V30 END CTAB
M  END
>  <Dataset>  (205) 
ChEMBL_Kinases

>  <Ligand_Instance>  (205) 
nan

>  <PDB_ID>  (205) 
nan

>  <Standardized_SMILES>  (205) 
COc1cc(NC(=O)[C@H](N)CC(C)C)ccc1-c1ccnc(Cl)c1

>  <Name>  (205) 
nan

>  <Pocket>  (205) 
nan

>  <ATP_Site>  (205) 
nan

>  <Peripheral>  (205) 
nan

>  <Num_H_Atoms_ProtBoundConf>  (205) 
nan

>  <Num_Resolved_Atoms>  (205) 
nan

>  <Num_Not_Resolved_Atoms>  (205) 
nan

$$$$
CHEMBL4856984
     RDKit          3D

  0  0  0  0  0  0  0  0  0  0999 V3000
M  V30 BEGIN CTAB
M  V30 COUNTS 58 60 0 0 0
M  V30 BEGIN ATOM
M  V30 1 C -5.313535 -3.658383 -3.846747 0
M  V30 2 O -4.551992 -2.645006 -3.254288 0
M  V30 3 C -5.379336 -2.033317 -2.290796 0 CFG=1
M  V30 4 C -4.690095 -2.191611 -0.952092 0
M  V30 5 C -3.227270 -1.877620 -1.180178 0
M  V30 6 C -3.125151 -0.593168 -1.949713 0 CFG=2
M  V30 7 N -2.005320 0.161320 -1.410896 0
M  V30 8 C -0.716941 -0.428403 -1.455901 0
M  V30 9 N -0.534615 -1.652492 -1.981739 0
M  V30 10 C 0.686828 -2.211855 -2.025982 0
M  V30 11 C 1.721049 -1.467274 -1.508858 0
M  V30 12 C 3.021176 -2.115847 -1.580352 0
M  V30 13 N 3.269792 -3.404008 -2.120515 0
M  V30 14 O 4.227397 -1.949984 -1.299339 0
M  V30 15 C 1.597718 -0.214809 -0.960096 0
M  V30 16 N 2.692074 0.525293 -0.439042 0
M  V30 17 C 2.566948 1.846543 0.146209 0 CFG=2
M  V30 18 C 3.890391 2.407019 0.578161 0
M  V30 19 C 4.062677 2.624452 2.033742 0
M  V30 20 C 2.918137 3.346573 2.690973 0
M  V30 21 C 1.580478 2.947911 2.197110 0 CFG=2
M  V30 22 C 0.833683 4.056988 1.488086 0
M  V30 23 O 0.778394 2.587280 3.279506 0
M  V30 24 C 1.566168 1.759610 1.265280 0
M  V30 25 N 0.341126 0.238833 -0.970000 0
M  V30 26 C -4.407078 0.238619 -1.877000 0
M  V30 27 C -5.478337 -0.548728 -2.581316 0
M  V30 28 H -5.624297 -4.388465 -3.072050 0
M  V30 29 H -4.718585 -4.224128 -4.592034 0
M  V30 30 H -6.175977 -3.215089 -4.374721 0
M  V30 31 H -6.345362 -2.555716 -2.328045 0
M  V30 32 H -4.816722 -3.197781 -0.506504 0
M  V30 33 H -5.084028 -1.461611 -0.221001 0
M  V30 34 H -2.714855 -1.806769 -0.187064 0
M  V30 35 H -2.701479 -2.683124 -1.730012 0
M  V30 36 H -3.003954 -0.834532 -3.024292 0
M  V30 37 H -2.137153 1.109489 -1.001405 0
M  V30 38 H 0.818348 -3.195738 -2.451400 0
M  V30 39 H 3.515026 -3.694815 -3.090934 0
M  V30 40 H 3.253373 -4.340874 -1.629442 0
M  V30 41 H 3.642439 0.129299 -0.462706 0
M  V30 42 H 2.165807 2.505472 -0.651112 0
M  V30 43 H 4.675188 1.653826 0.270788 0
M  V30 44 H 4.145673 3.320984 0.017653 0
M  V30 45 H 4.951224 3.288490 2.166030 0
M  V30 46 H 4.319141 1.674199 2.547359 0
M  V30 47 H 3.000243 3.130142 3.774366 0
M  V30 48 H 3.012987 4.458528 2.588913 0
M  V30 49 H 0.226811 4.675076 2.194436 0
M  V30 50 H 1.452116 4.710387 0.876215 0
M  V30 51 H 0.053764 3.611861 0.802661 0
M  V30 52 H -0.124760 2.348357 3.005420 0
M  V30 53 H 1.682051 0.827270 1.851121 0
M  V30 54 H 0.528680 1.741016 0.843042 0
M  V30 55 H -4.656227 0.561448 -0.860533 0
M  V30 56 H -4.197558 1.153256 -2.472898 0
M  V30 57 H -6.493757 -0.162869 -2.436204 0
M  V30 58 H -5.259724 -0.430342 -3.680119 0
M  V30 END ATOM
M  V30 BEGIN BOND
M  V30 1 1 1 2
M  V30 2 1 2 3
M  V30 3 1 3 4
M  V30 4 1 4 5
M  V30 5 1 5 6
M  V30 6 1 6 7
M  V30 7 1 7 8
M  V30 8 2 8 9
M  V30 9 1 9 10
M  V30 10 2 10 11
M  V30 11 1 11 12
M  V30 12 1 12 13
M  V30 13 2 12 14
M  V30 14 1 11 15
M  V30 15 1 15 16
M  V30 16 1 16 17
M  V30 17 1 17 18
M  V30 18 1 18 19
M  V30 19 1 19 20
M  V30 20 1 20 21
M  V30 21 1 21 22
M  V30 22 1 21 23 CFG=1
M  V30 23 1 21 24
M  V30 24 2 15 25
M  V30 25 1 6 26
M  V30 26 1 26 27
M  V30 27 1 27 3
M  V30 28 1 25 8
M  V30 29 1 24 17
M  V30 30 1 1 28
M  V30 31 1 1 29
M  V30 32 1 1 30
M  V30 33 1 3 31 CFG=1
M  V30 34 1 4 32
M  V30 35 1 4 33
M  V30 36 1 5 34
M  V30 37 1 5 35
M  V30 38 1 6 36 CFG=3
M  V30 39 1 7 37
M  V30 40 1 10 38
M  V30 41 1 13 39
M  V30 42 1 13 40
M  V30 43 1 16 41
M  V30 44 1 17 42 CFG=3
M  V30 45 1 18 43
M  V30 46 1 18 44
M  V30 47 1 19 45
M  V30 48 1 19 46
M  V30 49 1 20 47
M  V30 50 1 20 48
M  V30 51 1 22 49
M  V30 52 1 22 50
M  V30 53 1 22 51
M  V30 54 1 23 52
M  V30 55 1 24 53
M  V30 56 1 24 54
M  V30 57 1 26 55
M  V30 58 1 26 56
M  V30 59 1 27 57
M  V30 60 1 27 58
M  V30 END BOND
M  V30 END CTAB
M  END
>  <Dataset>  (206) 
ChEMBL_Kinases

>  <Ligand_Instance>  (206) 
nan

>  <PDB_ID>  (206) 
nan

>  <Standardized_SMILES>  (206) 
CO[C@H]1CC[C@H](Nc2ncc(C(N)=O)c(N[C@@H]3CCC[C@](C)(O)C3)n2)CC1

>  <Name>  (206) 
nan

>  <Pocket>  (206) 
nan

>  <ATP_Site>  (206) 
nan

>  <Peripheral>  (206) 
nan

>  <Num_H_Atoms_ProtBoundConf>  (206) 
nan

>  <Num_Resolved_Atoms>  (206) 
nan

>  <Num_Not_Resolved_Atoms>  (206) 
nan

$$$$
CHEMBL4075338
     RDKit          3D

  0  0  0  0  0  0  0  0  0  0999 V3000
M  V30 BEGIN CTAB
M  V30 COUNTS 93 95 0 0 0
M  V30 BEGIN ATOM
M  V30 1 O -2.064780 1.105832 8.607388 0
M  V30 2 C -1.953195 2.329249 8.955285 0
M  V30 3 O -2.619693 2.768227 10.111142 0
M  V30 4 C -1.122842 3.222411 8.118967 0
M  V30 5 C -0.499862 2.537435 6.953504 0 CFG=2
M  V30 6 N -1.415572 1.941677 6.014417 0
M  V30 7 C -1.318458 2.234304 4.628239 0
M  V30 8 O -0.426291 3.028108 4.178018 0
M  V30 9 C -2.261816 1.607855 3.691066 0 CFG=2
M  V30 10 C -2.263088 0.095445 3.795551 0
M  V30 11 C -3.263385 -0.400395 2.788905 0
M  V30 12 O -3.378687 -1.663519 2.697317 0
M  V30 13 O -4.230050 -0.561420 1.809513 0
M  V30 14 N -1.938301 1.957146 2.330571 0
M  V30 15 C -2.455119 2.513286 1.103748 0
M  V30 16 O -3.674634 2.846089 1.193595 0
M  V30 17 C -1.403511 2.553483 0.010478 0 CFG=2
M  V30 18 C -0.348569 3.515780 0.477217 0
M  V30 19 C 0.762797 3.667569 -0.494692 0
M  V30 20 O 0.695186 2.972093 -1.565750 0
M  V30 21 O 1.806583 4.528602 -0.224825 0
M  V30 22 N -2.048174 2.954673 -1.192208 0
M  V30 23 C -2.322718 1.877116 -2.070350 0
M  V30 24 O -1.988922 0.700619 -1.693204 0
M  V30 25 C -2.897545 1.527867 -3.384544 0
M  V30 26 C -2.632221 0.085249 -3.675634 0
M  V30 27 C -1.204533 -0.325532 -3.801581 0
M  V30 28 C -0.486968 0.401007 -4.926010 0
M  V30 29 C -1.037410 0.114705 -6.268380 0
M  V30 30 C -1.015814 -1.284185 -6.766410 0
M  V30 31 C 0.245661 -1.985833 -6.993069 0
M  V30 32 C 1.182863 -2.297607 -5.898107 0
M  V30 33 N 0.594664 -3.179781 -4.882012 0
M  V30 34 C 1.295608 -3.544983 -3.708762 0
M  V30 35 N 2.524498 -3.098484 -3.451364 0
M  V30 36 C 3.211034 -3.429244 -2.328692 0
M  V30 37 C 4.486858 -2.957109 -2.070599 0
M  V30 38 C 5.207283 -3.275600 -0.935107 0
M  V30 39 C 6.540050 -2.726139 -0.749681 0
M  V30 40 O 7.098640 -1.962324 -1.570803 0
M  V30 41 O 7.319264 -2.998441 0.359838 0
M  V30 42 C 4.644393 -4.105013 0.002252 0
M  V30 43 C 3.370603 -4.598323 -0.218917 0
M  V30 44 C 2.672664 -4.271589 -1.351094 0
M  V30 45 C 1.407441 -4.741606 -1.598587 0
M  V30 46 C 0.835104 -5.570605 -0.672780 0
M  V30 47 N -0.418097 -6.079383 -0.848050 0
M  V30 48 C -1.104550 -5.743900 -1.977793 0
M  V30 49 C -0.492154 -4.903478 -2.889727 0
M  V30 50 C 0.763631 -4.373204 -2.749026 0
M  V30 51 C 0.582722 1.590735 7.357454 0
M  V30 52 O 1.314358 2.219062 8.201440 0
M  V30 53 O 1.556507 0.622212 7.668239 0
M  V30 54 H -3.050656 2.080605 10.734451 0
M  V30 55 H -0.280165 3.555072 8.775726 0
M  V30 56 H -1.676922 4.108986 7.815716 0
M  V30 57 H 0.050425 3.320470 6.382144 0
M  V30 58 H -2.196393 1.266915 6.285502 0
M  V30 59 H -3.330738 1.903365 3.866850 0
M  V30 60 H -2.695396 -0.188814 4.787852 0
M  V30 61 H -1.307582 -0.371165 3.589062 0
M  V30 62 H -4.337851 0.037931 1.001059 0
M  V30 63 H -0.918444 1.633105 2.334855 0
M  V30 64 H -0.986639 1.543607 -0.002377 0
M  V30 65 H -0.757726 4.501630 0.790719 0
M  V30 66 H 0.126971 3.092665 1.397589 0
M  V30 67 H 2.480172 4.708362 -0.980813 0
M  V30 68 H -2.423993 3.762733 -1.728007 0
M  V30 69 H -2.555323 2.223376 -4.183675 0
M  V30 70 H -4.016547 1.617298 -3.248484 0
M  V30 71 H -3.035382 -0.481788 -2.779913 0
M  V30 72 H -3.237890 -0.295888 -4.526240 0
M  V30 73 H -1.264090 -1.404976 -4.164557 0
M  V30 74 H -0.631974 -0.382928 -2.893500 0
M  V30 75 H -0.736765 1.499752 -4.721632 0
M  V30 76 H 0.598112 0.332127 -4.908450 0
M  V30 77 H -0.422126 0.714588 -7.003583 0
M  V30 78 H -2.065402 0.577361 -6.389505 0
M  V30 79 H -1.559758 -1.257992 -7.774978 0
M  V30 80 H -1.750522 -1.935132 -6.165888 0
M  V30 81 H -0.034103 -3.002875 -7.454760 0
M  V30 82 H 0.788886 -1.420838 -7.828797 0
M  V30 83 H 1.731589 -1.480993 -5.450668 0
M  V30 84 H 2.004264 -2.961011 -6.353936 0
M  V30 85 H -0.365439 -3.492630 -5.120907 0
M  V30 86 H 4.956722 -2.305327 -2.779915 0
M  V30 87 H 8.162856 -2.468523 0.609991 0
M  V30 88 H 5.262857 -4.317752 0.873041 0
M  V30 89 H 3.015730 -5.230889 0.556702 0
M  V30 90 H 1.243313 -5.916955 0.250925 0
M  V30 91 H -2.109675 -6.142700 -2.131044 0
M  V30 92 H -1.099667 -4.692116 -3.741038 0
M  V30 93 H 2.008172 0.132317 6.877982 0
M  V30 END ATOM
M  V30 BEGIN BOND
M  V30 1 2 1 2
M  V30 2 1 2 3
M  V30 3 1 2 4
M  V30 4 1 4 5
M  V30 5 1 5 6
M  V30 6 1 6 7
M  V30 7 2 7 8
M  V30 8 1 7 9
M  V30 9 1 9 10
M  V30 10 1 10 11
M  V30 11 2 11 12
M  V30 12 1 11 13
M  V30 13 1 9 14
M  V30 14 1 14 15
M  V30 15 2 15 16
M  V30 16 1 15 17
M  V30 17 1 17 18
M  V30 18 1 18 19
M  V30 19 2 19 20
M  V30 20 1 19 21
M  V30 21 1 17 22
M  V30 22 1 22 23
M  V30 23 2 23 24
M  V30 24 1 23 25
M  V30 25 1 25 26
M  V30 26 1 26 27
M  V30 27 1 27 28
M  V30 28 1 28 29
M  V30 29 1 29 30
M  V30 30 1 30 31
M  V30 31 1 31 32
M  V30 32 1 32 33
M  V30 33 1 33 34
M  V30 34 2 34 35
M  V30 35 1 35 36
M  V30 36 2 36 37
M  V30 37 1 37 38
M  V30 38 1 38 39
M  V30 39 2 39 40
M  V30 40 1 39 41
M  V30 41 2 38 42
M  V30 42 1 42 43
M  V30 43 2 43 44
M  V30 44 1 44 45
M  V30 45 2 45 46
M  V30 46 1 46 47
M  V30 47 2 47 48
M  V30 48 1 48 49
M  V30 49 2 49 50
M  V30 50 1 5 51
M  V30 51 2 51 52
M  V30 52 1 51 53
M  V30 53 1 50 34
M  V30 54 1 44 36
M  V30 55 1 50 45
M  V30 56 1 3 54
M  V30 57 1 4 55
M  V30 58 1 4 56
M  V30 59 1 5 57 CFG=3
M  V30 60 1 6 58
M  V30 61 1 9 59 CFG=1
M  V30 62 1 10 60
M  V30 63 1 10 61
M  V30 64 1 13 62
M  V30 65 1 14 63
M  V30 66 1 17 64 CFG=3
M  V30 67 1 18 65
M  V30 68 1 18 66
M  V30 69 1 21 67
M  V30 70 1 22 68
M  V30 71 1 25 69
M  V30 72 1 25 70
M  V30 73 1 26 71
M  V30 74 1 26 72
M  V30 75 1 27 73
M  V30 76 1 27 74
M  V30 77 1 28 75
M  V30 78 1 28 76
M  V30 79 1 29 77
M  V30 80 1 29 78
M  V30 81 1 30 79
M  V30 82 1 30 80
M  V30 83 1 31 81
M  V30 84 1 31 82
M  V30 85 1 32 83
M  V30 86 1 32 84
M  V30 87 1 33 85
M  V30 88 1 37 86
M  V30 89 1 41 87
M  V30 90 1 42 88
M  V30 91 1 43 89
M  V30 92 1 46 90
M  V30 93 1 48 91
M  V30 94 1 49 92
M  V30 95 1 53 93
M  V30 END BOND
M  V30 END CTAB
M  END
>  <Dataset>  (207) 
ChEMBL_Kinases

>  <Ligand_Instance>  (207) 
nan

>  <PDB_ID>  (207) 
nan

>  <Standardized_SMILES>  (207) 
O=C(O)C[C@H](NC(=O)[C@H](CC(=O)O)NC(=O)[C@H](CC(=O)O)NC(=O)CCCCCCCCNc1nc2cc(C(=O)O)ccc2c2cnccc12)C(=O)O

>  <Name>  (207) 
nan

>  <Pocket>  (207) 
nan

>  <ATP_Site>  (207) 
nan

>  <Peripheral>  (207) 
nan

>  <Num_H_Atoms_ProtBoundConf>  (207) 
nan

>  <Num_Resolved_Atoms>  (207) 
nan

>  <Num_Not_Resolved_Atoms>  (207) 
nan

$$$$
CHEMBL4075290
     RDKit          3D

  0  0  0  0  0  0  0  0  0  0999 V3000
M  V30 BEGIN CTAB
M  V30 COUNTS 30 32 0 0 0
M  V30 BEGIN ATOM
M  V30 1 O 2.871805 -5.346561 -1.686587 0
M  V30 2 C 2.930601 -4.466777 -0.761701 0
M  V30 3 N 3.626535 -4.612463 0.437779 0
M  V30 4 C 3.574008 -3.533746 1.334745 0
M  V30 5 S 4.416754 -3.308059 2.719968 0
M  V30 6 S 2.362832 -2.399798 0.658585 0
M  V30 7 C 2.239922 -3.232449 -0.945575 0
M  V30 8 C 1.594311 -2.629121 -1.918911 0
M  V30 9 C 0.961447 -1.296319 -1.796440 0
M  V30 10 C 0.951906 -0.402711 -2.851830 0
M  V30 11 S 0.026978 1.056667 -2.072517 0
M  V30 12 C -0.132990 0.099366 -0.473604 0
M  V30 13 C -0.844540 0.679539 0.777753 0
M  V30 14 C -0.856062 -0.181623 1.867581 0
M  V30 15 C -1.496398 0.371989 2.959604 0
M  V30 16 C -2.061585 1.620969 2.987883 0
M  V30 17 C -2.717992 2.086408 4.236749 0
M  V30 18 F -2.207192 1.447238 5.349066 0
M  V30 19 F -2.441215 3.438077 4.411456 0
M  V30 20 F -4.078417 1.959942 4.229000 0
M  V30 21 C -1.984350 2.380255 1.840688 0
M  V30 22 C -1.372186 1.945921 0.680985 0
M  V30 23 N 0.375153 -0.887521 -0.677430 0
M  V30 24 H 4.179615 -5.488818 0.686226 0
M  V30 25 H 1.566367 -3.212314 -2.854799 0
M  V30 26 H 1.375599 -0.561988 -3.825663 0
M  V30 27 H -0.398307 -1.148008 1.789031 0
M  V30 28 H -1.527632 -0.272783 3.837260 0
M  V30 29 H -2.433223 3.367145 1.863135 0
M  V30 30 H -1.298871 2.510401 -0.219529 0
M  V30 END ATOM
M  V30 BEGIN BOND
M  V30 1 2 1 2
M  V30 2 1 2 3
M  V30 3 1 3 4
M  V30 4 2 4 5
M  V30 5 1 4 6
M  V30 6 1 6 7
M  V30 7 2 7 8
M  V30 8 1 8 9
M  V30 9 2 9 10
M  V30 10 1 10 11
M  V30 11 1 11 12
M  V30 12 1 12 13
M  V30 13 2 13 14
M  V30 14 1 14 15
M  V30 15 2 15 16
M  V30 16 1 16 17
M  V30 17 1 17 18
M  V30 18 1 17 19
M  V30 19 1 17 20
M  V30 20 1 16 21
M  V30 21 2 21 22
M  V30 22 2 12 23
M  V30 23 1 7 2
M  V30 24 1 23 9
M  V30 25 1 22 13
M  V30 26 1 3 24
M  V30 27 1 8 25
M  V30 28 1 10 26
M  V30 29 1 14 27
M  V30 30 1 15 28
M  V30 31 1 21 29
M  V30 32 1 22 30
M  V30 END BOND
M  V30 END CTAB
M  END
>  <Dataset>  (208) 
ChEMBL_Kinases

>  <Ligand_Instance>  (208) 
nan

>  <PDB_ID>  (208) 
nan

>  <Standardized_SMILES>  (208) 
O=C1NC(=S)S/C1=C\c1csc(-c2ccc(C(F)(F)F)cc2)n1

>  <Name>  (208) 
nan

>  <Pocket>  (208) 
nan

>  <ATP_Site>  (208) 
nan

>  <Peripheral>  (208) 
nan

>  <Num_H_Atoms_ProtBoundConf>  (208) 
nan

>  <Num_Resolved_Atoms>  (208) 
nan

>  <Num_Not_Resolved_Atoms>  (208) 
nan

$$$$
CHEMBL4856782
     RDKit          3D

  0  0  0  0  0  0  0  0  0  0999 V3000
M  V30 BEGIN CTAB
M  V30 COUNTS 42 44 0 0 0
M  V30 BEGIN ATOM
M  V30 1 N 0.758270 -7.675889 2.540921 0
M  V30 2 C 1.205314 -6.693452 2.124049 0
M  V30 3 C 1.745502 -5.466449 1.618743 0
M  V30 4 C 3.105113 -5.342405 1.428861 0
M  V30 5 C 3.672851 -4.186051 0.946315 0
M  V30 6 C 2.928989 -3.072078 0.618749 0
M  V30 7 N 3.454430 -1.876150 0.121353 0
M  V30 8 C 2.823667 -0.664431 -0.193224 0
M  V30 9 N 3.566047 0.338842 -0.696594 0
M  V30 10 C 3.111169 1.544980 -1.040651 0
M  V30 11 C 1.776180 1.775315 -0.864402 0
M  V30 12 C 1.219682 3.091618 -1.230192 0
M  V30 13 F 0.251431 3.025662 -2.195053 0
M  V30 14 F 2.207481 3.929645 -1.702988 0
M  V30 15 F 0.669829 3.734453 -0.134713 0
M  V30 16 C 0.963307 0.788266 -0.352887 0
M  V30 17 N -0.435836 1.023524 -0.169050 0
M  V30 18 C -1.448339 0.126868 0.361896 0
M  V30 19 C -2.834831 0.747203 0.348542 0
M  V30 20 C -2.867533 1.819463 1.401910 0
M  V30 21 C -2.656659 1.242652 2.772813 0
M  V30 22 N -2.345385 -0.178976 2.581410 0
M  V30 23 C -1.120480 -0.192948 1.804831 0
M  V30 24 N 1.531620 -0.381479 -0.043951 0
M  V30 25 C 1.584428 -3.251759 0.827268 0
M  V30 26 N 1.012650 -4.383406 1.301270 0
M  V30 27 H 3.727245 -6.182522 1.669301 0
M  V30 28 H 4.764261 -4.144861 0.815225 0
M  V30 29 H 4.507307 -1.940510 -0.027984 0
M  V30 30 H 3.744470 2.324793 -1.442961 0
M  V30 31 H -0.804690 1.978642 -0.453017 0
M  V30 32 H -1.480597 -0.812487 -0.221583 0
M  V30 33 H -3.538933 -0.044580 0.668336 0
M  V30 34 H -3.065547 1.164080 -0.637812 0
M  V30 35 H -3.896818 2.260417 1.406483 0
M  V30 36 H -2.186594 2.667046 1.170147 0
M  V30 37 H -1.749923 1.660819 3.266693 0
M  V30 38 H -3.535990 1.290933 3.431708 0
M  V30 39 H -2.187379 -0.654343 3.501981 0
M  V30 40 H -0.409688 0.550238 2.227528 0
M  V30 41 H -0.745906 -1.219438 1.848976 0
M  V30 42 H 0.844779 -2.513787 0.633471 0
M  V30 END ATOM
M  V30 BEGIN BOND
M  V30 1 3 1 2
M  V30 2 1 2 3
M  V30 3 2 3 4
M  V30 4 1 4 5
M  V30 5 2 5 6
M  V30 6 1 6 7
M  V30 7 1 7 8
M  V30 8 2 8 9
M  V30 9 1 9 10
M  V30 10 2 10 11
M  V30 11 1 11 12
M  V30 12 1 12 13
M  V30 13 1 12 14
M  V30 14 1 12 15
M  V30 15 1 11 16
M  V30 16 1 16 17
M  V30 17 1 17 18
M  V30 18 1 18 19
M  V30 19 1 19 20
M  V30 20 1 20 21
M  V30 21 1 21 22
M  V30 22 1 22 23
M  V30 23 2 16 24
M  V30 24 1 6 25
M  V30 25 2 25 26
M  V30 26 1 26 3
M  V30 27 1 24 8
M  V30 28 1 23 18
M  V30 29 1 4 27
M  V30 30 1 5 28
M  V30 31 1 7 29
M  V30 32 1 10 30
M  V30 33 1 17 31
M  V30 34 1 18 32
M  V30 35 1 19 33
M  V30 36 1 19 34
M  V30 37 1 20 35
M  V30 38 1 20 36
M  V30 39 1 21 37
M  V30 40 1 21 38
M  V30 41 1 22 39
M  V30 42 1 23 40
M  V30 43 1 23 41
M  V30 44 1 25 42
M  V30 END BOND
M  V30 END CTAB
M  END
>  <Dataset>  (209) 
ChEMBL_Kinases

>  <Ligand_Instance>  (209) 
nan

>  <PDB_ID>  (209) 
nan

>  <Standardized_SMILES>  (209) 
N#Cc1ccc(Nc2ncc(C(F)(F)F)c(NC3CCCNC3)n2)cn1

>  <Name>  (209) 
nan

>  <Pocket>  (209) 
nan

>  <ATP_Site>  (209) 
nan

>  <Peripheral>  (209) 
nan

>  <Num_H_Atoms_ProtBoundConf>  (209) 
nan

>  <Num_Resolved_Atoms>  (209) 
nan

>  <Num_Not_Resolved_Atoms>  (209) 
nan

$$$$
CHEMBL4076354
     RDKit          3D

  0  0  0  0  0  0  0  0  0  0999 V3000
M  V30 BEGIN CTAB
M  V30 COUNTS 77 81 0 0 0
M  V30 BEGIN ATOM
M  V30 1 C 4.494023 -7.725487 -4.446568 0
M  V30 2 C 4.436458 -6.360982 -5.100927 0
M  V30 3 C 5.778539 -6.088315 -5.709355 0
M  V30 4 C 3.340352 -6.357562 -6.124265 0
M  V30 5 O 4.104581 -5.400730 -4.090555 0
M  V30 6 C 3.979582 -4.050177 -4.382871 0
M  V30 7 O 4.146138 -3.585757 -5.550395 0
M  V30 8 N 3.652027 -3.157413 -3.328477 0
M  V30 9 C 3.492618 -1.719363 -3.504279 0
M  V30 10 C 3.525581 -0.999016 -2.192555 0
M  V30 11 C 2.459495 -1.473088 -1.223114 0
M  V30 12 O 2.820481 -1.086475 0.079155 0
M  V30 13 C 2.114455 -0.306667 0.949933 0
M  V30 14 C 0.880901 0.292949 0.827121 0
M  V30 15 C 0.327644 1.054837 1.829769 0
M  V30 16 N 0.962983 1.262654 3.001563 0
M  V30 17 C 0.630019 1.963847 4.111281 0
M  V30 18 C -0.603938 2.722344 4.282612 0
M  V30 19 C -0.560531 4.034339 4.767569 0
M  V30 20 C -1.686411 4.837618 4.963031 0
M  V30 21 C -2.918628 4.250647 4.638547 0
M  V30 22 C -3.945288 5.235980 4.910247 0
M  V30 23 N -5.338640 5.228973 4.772222 0
M  V30 24 O -4.005997 6.389350 5.340276 0
M  V30 25 C -3.054390 2.969281 4.157349 0
M  V30 26 O -4.264349 2.594010 3.912179 0
M  V30 27 C -5.426046 2.093833 3.628075 0
M  V30 28 C -5.730636 1.591702 2.252595 0
M  V30 29 C -6.277406 2.539654 1.369292 0
M  V30 30 C -6.523108 2.153915 0.058520 0
M  V30 31 C -6.281276 0.910007 -0.468931 0
M  V30 32 C -5.749559 0.013151 0.423439 0
M  V30 33 C -5.482500 0.345032 1.746270 0
M  V30 34 C -4.968072 -0.687893 2.674224 0
M  V30 35 F -3.792341 -0.399272 3.279313 0
M  V30 36 F -4.742212 -1.855168 1.928833 0
M  V30 37 F -5.936612 -1.060821 3.609603 0
M  V30 38 C -1.874303 2.275071 4.007169 0
M  V30 39 C 1.680719 1.809557 4.972624 0
M  V30 40 N 2.586350 1.038057 4.362051 0
M  V30 41 C 2.175607 0.682436 3.143088 0
M  V30 42 C 2.783673 -0.099013 2.162108 0
M  V30 43 C 2.275696 -2.954861 -1.379992 0
M  V30 44 C 3.457133 -3.645552 -1.970013 0
M  V30 45 H 3.502620 -7.994525 -4.009478 0
M  V30 46 H 4.821682 -8.468682 -5.203461 0
M  V30 47 H 5.214280 -7.743479 -3.601874 0
M  V30 48 H 6.472711 -5.633852 -4.984166 0
M  V30 49 H 5.694029 -5.456349 -6.641101 0
M  V30 50 H 6.212919 -7.043184 -6.070515 0
M  V30 51 H 3.190604 -7.329974 -6.589291 0
M  V30 52 H 3.516370 -5.536435 -6.868295 0
M  V30 53 H 2.393032 -6.036379 -5.601791 0
M  V30 54 H 4.377860 -1.386878 -4.083380 0
M  V30 55 H 2.523363 -1.506811 -3.993286 0
M  V30 56 H 3.345051 0.077017 -2.377567 0
M  V30 57 H 4.543365 -1.087628 -1.739195 0
M  V30 58 H 1.487099 -0.993726 -1.443679 0
M  V30 59 H 0.399697 0.101108 -0.136948 0
M  V30 60 H -0.644456 1.470553 1.605129 0
M  V30 61 H 0.434392 4.428546 5.000669 0
M  V30 62 H -1.481075 5.822705 5.345325 0
M  V30 63 H -6.348399 5.202254 4.812098 0
M  V30 64 H -6.029296 5.345680 3.970641 0
M  V30 65 H -5.770501 1.259000 4.364088 0
M  V30 66 H -6.253935 2.850914 3.826065 0
M  V30 67 H -6.510815 3.548682 1.666174 0
M  V30 68 H -6.946694 2.919146 -0.600168 0
M  V30 69 H -6.510771 0.707905 -1.489642 0
M  V30 70 H -5.526378 -0.992984 0.104011 0
M  V30 71 H -1.878376 1.283018 3.640269 0
M  V30 72 H 1.736183 2.245661 5.954845 0
M  V30 73 H 3.757995 -0.506088 2.399370 0
M  V30 74 H 1.413869 -3.151662 -2.057207 0
M  V30 75 H 2.020731 -3.453826 -0.422587 0
M  V30 76 H 3.338329 -4.735346 -1.902924 0
M  V30 77 H 4.423443 -3.392999 -1.454214 0
M  V30 END ATOM
M  V30 BEGIN BOND
M  V30 1 1 1 2
M  V30 2 1 2 3
M  V30 3 1 2 4
M  V30 4 1 2 5
M  V30 5 1 5 6
M  V30 6 2 6 7
M  V30 7 1 6 8
M  V30 8 1 8 9
M  V30 9 1 9 10
M  V30 10 1 10 11
M  V30 11 1 11 12
M  V30 12 1 12 13
M  V30 13 1 13 14
M  V30 14 2 14 15
M  V30 15 1 15 16
M  V30 16 1 16 17
M  V30 17 1 17 18
M  V30 18 2 18 19
M  V30 19 1 19 20
M  V30 20 2 20 21
M  V30 21 1 21 22
M  V30 22 1 22 23
M  V30 23 2 22 24
M  V30 24 1 21 25
M  V30 25 1 25 26
M  V30 26 1 26 27
M  V30 27 1 27 28
M  V30 28 2 28 29
M  V30 29 1 29 30
M  V30 30 2 30 31
M  V30 31 1 31 32
M  V30 32 2 32 33
M  V30 33 1 33 34
M  V30 34 1 34 35
M  V30 35 1 34 36
M  V30 36 1 34 37
M  V30 37 2 25 38
M  V30 38 2 17 39
M  V30 39 1 39 40
M  V30 40 2 40 41
M  V30 41 1 41 42
M  V30 42 1 11 43
M  V30 43 1 43 44
M  V30 44 1 44 8
M  V30 45 2 42 13
M  V30 46 1 41 16
M  V30 47 1 38 18
M  V30 48 1 33 28
M  V30 49 1 1 45
M  V30 50 1 1 46
M  V30 51 1 1 47
M  V30 52 1 3 48
M  V30 53 1 3 49
M  V30 54 1 3 50
M  V30 55 1 4 51
M  V30 56 1 4 52
M  V30 57 1 4 53
M  V30 58 1 9 54
M  V30 59 1 9 55
M  V30 60 1 10 56
M  V30 61 1 10 57
M  V30 62 1 11 58
M  V30 63 1 14 59
M  V30 64 1 15 60
M  V30 65 1 19 61
M  V30 66 1 20 62
M  V30 67 1 23 63
M  V30 68 1 23 64
M  V30 69 1 27 65
M  V30 70 1 27 66
M  V30 71 1 29 67
M  V30 72 1 30 68
M  V30 73 1 31 69
M  V30 74 1 32 70
M  V30 75 1 38 71
M  V30 76 1 39 72
M  V30 77 1 42 73
M  V30 78 1 43 74
M  V30 79 1 43 75
M  V30 80 1 44 76
M  V30 81 1 44 77
M  V30 END BOND
M  V30 END CTAB
M  END
>  <Dataset>  (210) 
ChEMBL_Kinases

>  <Ligand_Instance>  (210) 
nan

>  <PDB_ID>  (210) 
nan

>  <Standardized_SMILES>  (210) 
CC(C)(C)OC(=O)N1CCC(Oc2ccn3c(-c4ccc(C(N)=O)c(OCc5ccccc5C(F)(F)F)c4)cnc3c2)CC1

>  <Name>  (210) 
nan

>  <Pocket>  (210) 
nan

>  <ATP_Site>  (210) 
nan

>  <Peripheral>  (210) 
nan

>  <Num_H_Atoms_ProtBoundConf>  (210) 
nan

>  <Num_Resolved_Atoms>  (210) 
nan

>  <Num_Not_Resolved_Atoms>  (210) 
nan

$$$$
CHEMBL4076347
     RDKit          2D

  0  0  0  0  0  0  0  0  0  0999 V3000
M  V30 BEGIN CTAB
M  V30 COUNTS 602 607 0 0 0
M  V30 BEGIN ATOM
M  V30 1 C -31.904809 -4.733827 0.000000 0
M  V30 2 C -30.478224 -5.197353 0.000000 0
M  V30 3 C -29.051640 -5.660878 0.000000 0
M  V30 4 C -27.625055 -6.124404 0.000000 0
M  V30 5 C -28.588114 -4.234294 0.000000 0
M  V30 6 N -30.014699 -3.770768 0.000000 0
M  V30 7 C -30.326566 -2.303547 0.000000 0
M  V30 8 O -29.595201 -1.645022 0.000000 0
M  V30 9 C -31.753151 -1.840021 0.000000 0
M  V30 10 C -33.179736 -1.376496 0.000000 0
M  V30 11 O -34.606321 -0.912970 0.000000 0
M  V30 12 N -31.289626 -0.413436 0.000000 0
M  V30 13 C -29.822404 -0.101569 0.000000 0
M  V30 14 O -30.261155 1.332829 0.000000 0
M  V30 15 C -28.818708 -1.216286 0.000000 0
M  V30 16 C -27.815013 -2.331003 0.000000 0
M  V30 17 O -26.811317 -3.445721 0.000000 0
M  V30 18 N -29.933426 -2.219982 0.000000 0
M  V30 19 C -31.360010 -1.756456 0.000000 0
M  V30 20 O -32.324316 -0.607494 0.000000 0
M  V30 21 C -32.474728 -2.760152 0.000000 0
M  V30 22 C -33.589445 -3.763848 0.000000 0
M  V30 23 C -34.704162 -4.767544 0.000000 0
M  V30 24 C -35.818879 -5.771240 0.000000 0
M  V30 25 O -36.721441 -4.573165 0.000000 0
M  V30 26 O -35.507012 -7.238462 0.000000 0
M  V30 27 N -33.478424 -1.645435 0.000000 0
M  V30 28 C -33.014898 -0.218850 0.000000 0
M  V30 29 O -31.865935 0.745455 0.000000 0
M  V30 30 C -34.018594 0.895867 0.000000 0
M  V30 31 N -32.903877 1.899563 0.000000 0
M  V30 32 C -31.477292 1.436037 0.000000 0
M  V30 33 O -31.890904 -0.005811 0.000000 0
M  V30 34 C -30.362575 2.439733 0.000000 0
M  V30 35 C -31.477292 3.443429 0.000000 0
M  V30 36 C -30.867187 4.813747 0.000000 0
M  V30 37 C -29.375404 4.656955 0.000000 0
M  V30 38 N -29.063537 3.189733 0.000000 0
M  V30 39 C -27.693218 2.579628 0.000000 0
M  V30 40 O -26.729099 3.728747 0.000000 0
M  V30 41 C -27.536426 1.087845 0.000000 0
M  V30 42 C -27.379633 -0.403937 0.000000 0
M  V30 43 C -27.222840 -1.895720 0.000000 0
M  V30 44 C -27.066048 -3.387503 0.000000 0
M  V30 45 C -26.909255 -4.879286 0.000000 0
M  V30 46 N -26.752462 -6.371069 0.000000 0
M  V30 47 N -26.044643 1.244638 0.000000 0
M  V30 48 C -25.434538 2.614956 0.000000 0
M  V30 49 O -26.316216 3.828482 0.000000 0
M  V30 50 C -23.942755 2.771749 0.000000 0
M  V30 51 C -22.450972 2.928542 0.000000 0
M  V30 52 C -20.959189 3.085334 0.000000 0
M  V30 53 C -19.467407 3.242127 0.000000 0
M  V30 54 C -20.802397 1.593552 0.000000 0
M  V30 55 N -24.099548 4.263532 0.000000 0
M  V30 56 C -25.469866 4.873637 0.000000 0
M  V30 57 O -26.860672 4.311802 0.000000 0
M  V30 58 C -25.626659 6.365420 0.000000 0
M  V30 59 C -25.783451 7.857202 0.000000 0
M  V30 60 C -25.940244 9.348985 0.000000 0
M  V30 61 C -26.097037 10.840768 0.000000 0
M  V30 62 N -24.883511 11.722446 0.000000 0
M  V30 63 O -27.467355 11.450873 0.000000 0
M  V30 64 N -27.118442 6.208627 0.000000 0
M  V30 65 C -27.728547 4.838309 0.000000 0
M  V30 66 O -26.579428 3.874189 0.000000 0
M  V30 67 C -29.220329 4.681516 0.000000 0
M  V30 68 C -30.712112 4.524723 0.000000 0
M  V30 69 N -29.063537 3.189733 0.000000 0
M  V30 70 C -27.693218 2.579628 0.000000 0
M  V30 71 O -26.302412 3.141463 0.000000 0
M  V30 72 C -27.536426 1.087845 0.000000 0
M  V30 73 N -26.044643 1.244638 0.000000 0
M  V30 74 C -25.434538 2.614956 0.000000 0
M  V30 75 O -25.643138 4.100381 0.000000 0
M  V30 76 C -23.942755 2.771749 0.000000 0
M  V30 77 C -22.450972 2.928542 0.000000 0
M  V30 78 O -20.959189 3.085334 0.000000 0
M  V30 79 C -20.349084 4.455653 0.000000 0
M  V30 80 C -19.738980 5.825971 0.000000 0
M  V30 81 O -19.128875 7.196289 0.000000 0
M  V30 82 C -17.637092 7.353082 0.000000 0
M  V30 83 C -16.145309 7.509874 0.000000 0
M  V30 84 O -14.653526 7.666667 0.000000 0
M  V30 85 C -14.043421 9.036985 0.000000 0
M  V30 86 C -13.433316 10.407303 0.000000 0
M  V30 87 O -12.823211 11.777622 0.000000 0
M  V30 88 C -11.331428 11.934414 0.000000 0
M  V30 89 C -9.839645 12.091207 0.000000 0
M  V30 90 N -8.347863 12.248000 0.000000 0
M  V30 91 C -7.737758 13.618318 0.000000 0
M  V30 92 O -8.619436 14.831843 0.000000 0
M  V30 93 C -6.245975 13.775111 0.000000 0
M  V30 94 N -4.754192 13.931903 0.000000 0
M  V30 95 N -4.004192 15.230941 0.000000 0
M  V30 96 C -2.536971 14.919074 0.000000 0
M  V30 97 N -1.422253 15.922770 0.000000 0
M  V30 98 C -2.380178 13.427291 0.000000 0
M  V30 99 C -1.166652 12.545613 0.000000 0
M  V30 100 C -1.323445 11.053830 0.000000 0
M  V30 101 C -0.109920 10.172152 0.000000 0
M  V30 102 C 1.316665 10.635678 0.000000 0
M  V30 103 C 1.780191 12.062263 0.000000 0
M  V30 104 C 0.776495 13.176980 0.000000 0
M  V30 105 C 1.240020 14.603565 0.000000 0
M  V30 106 C 2.707242 14.915432 0.000000 0
M  V30 107 C 3.710938 13.800715 0.000000 0
M  V30 108 C 3.247412 12.374130 0.000000 0
M  V30 109 N 2.198343 9.422152 0.000000 0
M  V30 110 N 1.316665 8.208627 0.000000 0
M  V30 111 C 1.628533 6.741405 0.000000 0
M  V30 112 C 0.513815 5.737710 0.000000 0
M  V30 113 C -0.912769 6.201235 0.000000 0
M  V30 114 C -1.224637 7.668456 0.000000 0
M  V30 115 C -0.109920 8.672152 0.000000 0
M  V30 116 N -2.693763 10.443725 0.000000 0
M  V30 117 N -3.907289 11.325403 0.000000 0
M  V30 118 C -3.750496 12.817186 0.000000 0
M  V30 119 C -27.379633 -0.403937 0.000000 0
M  V30 120 C -27.222840 -1.895720 0.000000 0
M  V30 121 O -28.871416 -0.560730 0.000000 0
M  V30 122 C -35.022290 2.010584 0.000000 0
M  V30 123 C -36.025986 3.125301 0.000000 0
M  V30 124 C -36.137007 1.006888 0.000000 0
M  V30 125 C -37.251724 0.003192 0.000000 0
M  V30 126 C -29.051640 -5.660878 0.000000 0
M  V30 127 O -29.933121 -6.874546 0.000000 0
M  V30 128 N -28.047944 -6.775596 0.000000 0
M  V30 129 C -28.511469 -8.202180 0.000000 0
M  V30 130 C -27.084884 -8.665706 0.000000 0
M  V30 131 C -25.658300 -9.129231 0.000000 0
M  V30 132 C -24.231715 -9.592757 0.000000 0
M  V30 133 C -26.121825 -10.555816 0.000000 0
M  V30 134 C -29.938054 -7.738655 0.000000 0
M  V30 135 O -31.151722 -6.857173 0.000000 0
M  V30 136 N -31.052771 -8.742351 0.000000 0
M  V30 137 C -32.479356 -8.278825 0.000000 0
M  V30 138 C -32.942882 -9.705410 0.000000 0
M  V30 139 C -32.015831 -6.852240 0.000000 0
M  V30 140 O -30.573983 -7.265852 0.000000 0
M  V30 141 N -33.019526 -5.737523 0.000000 0
M  V30 142 C -32.556001 -4.310938 0.000000 0
M  V30 143 C -33.982586 -3.847413 0.000000 0
M  V30 144 C -35.409171 -3.383887 0.000000 0
M  V30 145 C -36.835755 -2.920362 0.000000 0
M  V30 146 N -37.950473 -3.924058 0.000000 0
M  V30 147 O -37.147623 -1.453141 0.000000 0
M  V30 148 C -31.129416 -4.774464 0.000000 0
M  V30 149 O -30.972865 -3.282656 0.000000 0
M  V30 150 N -30.817549 -6.241685 0.000000 0
M  V30 151 C -29.390964 -6.705211 0.000000 0
M  V30 152 C -29.854489 -8.131796 0.000000 0
M  V30 153 C -30.318015 -9.558380 0.000000 0
M  V30 154 C -30.781540 -10.984965 0.000000 0
M  V30 155 N -31.245066 -12.411550 0.000000 0
M  V30 156 C -30.241370 -13.526267 0.000000 0
M  V30 157 N -30.704895 -14.952852 0.000000 0
M  V30 158 N -28.774149 -13.214400 0.000000 0
M  V30 159 C -29.854489 -8.131796 0.000000 0
M  V30 160 O -30.735971 -9.345464 0.000000 0
M  V30 161 N -28.850793 -9.246513 0.000000 0
M  V30 162 C -29.314319 -10.673098 0.000000 0
M  V30 163 C -27.887734 -11.136623 0.000000 0
M  V30 164 C -26.461149 -11.600149 0.000000 0
M  V30 165 C -25.034565 -12.063674 0.000000 0
M  V30 166 N -23.607980 -12.527200 0.000000 0
M  V30 167 C -23.296112 -13.994421 0.000000 0
M  V30 168 N -21.869528 -14.457946 0.000000 0
M  V30 169 N -24.410830 -14.998117 0.000000 0
M  V30 170 C -30.740904 -10.209572 0.000000 0
M  V30 171 O -31.838072 -9.186722 0.000000 0
M  V30 172 N -31.855621 -11.213268 0.000000 0
M  V30 173 C -33.282206 -10.749743 0.000000 0
M  V30 174 C -32.818680 -9.323158 0.000000 0
M  V30 175 O -31.874982 -10.489106 0.000000 0
M  V30 176 N -33.822376 -8.208441 0.000000 0
M  V30 177 C -33.358851 -6.781856 0.000000 0
M  V30 178 C -34.785435 -6.318330 0.000000 0
M  V30 179 C -36.212020 -5.854805 0.000000 0
M  V30 180 C -37.638605 -5.391279 0.000000 0
M  V30 181 N -39.065190 -4.927754 0.000000 0
M  V30 182 C -40.179907 -5.931450 0.000000 0
M  V30 183 N -41.606492 -5.467924 0.000000 0
M  V30 184 N -39.868039 -7.398671 0.000000 0
M  V30 185 C -31.932266 -7.245381 0.000000 0
M  V30 186 O -31.419388 -5.835787 0.000000 0
M  V30 187 N -31.620398 -8.712603 0.000000 0
M  V30 188 C -30.193814 -9.176128 0.000000 0
M  V30 189 C -30.657339 -10.602713 0.000000 0
M  V30 190 C -31.120865 -12.029298 0.000000 0
M  V30 191 C -31.584390 -13.455882 0.000000 0
M  V30 192 C -32.047916 -14.882467 0.000000 0
M  V30 193 N -32.511441 -16.309052 0.000000 0
M  V30 194 C -29.730288 -7.749543 0.000000 0
M  V30 195 O -30.733984 -6.634826 0.000000 0
M  V30 196 N -28.263067 -7.437676 0.000000 0
M  V30 197 C -27.799541 -6.011091 0.000000 0
M  V30 198 C -26.372956 -6.474617 0.000000 0
M  V30 199 C -24.946372 -6.938142 0.000000 0
M  V30 200 C -23.519787 -7.401668 0.000000 0
M  V30 201 N -22.093202 -7.865193 0.000000 0
M  V30 202 C -20.978485 -6.861497 0.000000 0
M  V30 203 N -19.551900 -7.325023 0.000000 0
M  V30 204 N -21.290352 -5.394276 0.000000 0
M  V30 205 C -29.226126 -5.547566 0.000000 0
M  V30 206 O -30.681491 -5.184369 0.000000 0
M  V30 207 N -29.537994 -4.080344 0.000000 0
M  V30 208 C -30.964578 -3.616819 0.000000 0
M  V30 209 C -30.501053 -2.190234 0.000000 0
M  V30 210 C -30.037527 -0.763649 0.000000 0
M  V30 211 C -29.574002 0.662936 0.000000 0
M  V30 212 C -29.110476 2.089520 0.000000 0
M  V30 213 N -28.646951 3.516105 0.000000 0
M  V30 214 C -31.428104 -5.043403 0.000000 0
M  V30 215 O -31.428346 -6.543403 0.000000 0
M  V30 216 N -32.895325 -5.355271 0.000000 0
M  V30 217 C -33.358851 -6.781856 0.000000 0
M  V30 218 C -34.785435 -6.318330 0.000000 0
M  V30 219 C -36.212020 -5.854805 0.000000 0
M  V30 220 C -37.638605 -5.391279 0.000000 0
M  V30 221 C -39.065190 -4.927754 0.000000 0
M  V30 222 N -40.491775 -4.464228 0.000000 0
M  V30 223 C -31.932266 -7.245381 0.000000 0
M  V30 224 O -30.817549 -6.241685 0.000000 0
M  V30 225 N -31.620398 -8.712603 0.000000 0
M  V30 226 C -30.193814 -9.176128 0.000000 0
M  V30 227 C -30.657339 -10.602713 0.000000 0
M  V30 228 C -31.120865 -12.029298 0.000000 0
M  V30 229 C -31.584390 -13.455882 0.000000 0
M  V30 230 N -32.047916 -14.882467 0.000000 0
M  V30 231 C -31.044220 -15.997184 0.000000 0
M  V30 232 N -31.507745 -17.423769 0.000000 0
M  V30 233 N -29.576998 -15.685317 0.000000 0
M  V30 234 C -29.730288 -7.749543 0.000000 0
M  V30 235 O -31.139882 -7.236665 0.000000 0
M  V30 236 N -28.263067 -7.437676 0.000000 0
M  V30 237 C -27.799541 -6.011091 0.000000 0
M  V30 238 C -26.372956 -6.474617 0.000000 0
M  V30 239 C -24.946372 -6.938142 0.000000 0
M  V30 240 C -23.519787 -7.401668 0.000000 0
M  V30 241 N -22.093202 -7.865193 0.000000 0
M  V30 242 C -20.978485 -6.861497 0.000000 0
M  V30 243 N -19.551900 -7.325023 0.000000 0
M  V30 244 N -21.290352 -5.394276 0.000000 0
M  V30 245 C -29.226126 -5.547566 0.000000 0
M  V30 246 O -30.726126 -5.547323 0.000000 0
M  V30 247 N -29.537994 -4.080344 0.000000 0
M  V30 248 C -30.964578 -3.616819 0.000000 0
M  V30 249 C -30.501053 -2.190234 0.000000 0
M  V30 250 C -30.037527 -0.763649 0.000000 0
M  V30 251 C -29.574002 0.662936 0.000000 0
M  V30 252 N -30.577698 1.777653 0.000000 0
M  V30 253 O -28.193324 0.076653 0.000000 0
M  V30 254 C -31.428104 -5.043403 0.000000 0
M  V30 255 O -31.065378 -6.498886 0.000000 0
M  V30 256 N -32.895325 -5.355271 0.000000 0
M  V30 257 C -33.358851 -6.781856 0.000000 0
M  V30 258 C -34.785435 -6.318330 0.000000 0
M  V30 259 C -36.212020 -5.854805 0.000000 0
M  V30 260 C -37.638605 -5.391279 0.000000 0
M  V30 261 N -39.065190 -4.927754 0.000000 0
M  V30 262 C -40.179907 -5.931450 0.000000 0
M  V30 263 N -41.606492 -5.467924 0.000000 0
M  V30 264 N -39.868039 -7.398671 0.000000 0
M  V30 265 C -31.932266 -7.245381 0.000000 0
M  V30 266 O -31.419388 -5.835787 0.000000 0
M  V30 267 N -31.620398 -8.712603 0.000000 0
M  V30 268 C -30.193814 -9.176128 0.000000 0
M  V30 269 C -30.657339 -10.602713 0.000000 0
M  V30 270 C -31.120865 -12.029298 0.000000 0
M  V30 271 C -31.584390 -13.455882 0.000000 0
M  V30 272 N -32.047916 -14.882467 0.000000 0
M  V30 273 C -31.044220 -15.997184 0.000000 0
M  V30 274 N -31.507745 -17.423769 0.000000 0
M  V30 275 N -29.576998 -15.685317 0.000000 0
M  V30 276 C -29.730288 -7.749543 0.000000 0
M  V30 277 O -31.215645 -7.958623 0.000000 0
M  V30 278 N -28.263067 -7.437676 0.000000 0
M  V30 279 C -27.799541 -6.011091 0.000000 0
M  V30 280 C -26.372956 -6.474617 0.000000 0
M  V30 281 C -24.946372 -6.938142 0.000000 0
M  V30 282 C -23.519787 -7.401668 0.000000 0
M  V30 283 N -22.093202 -7.865193 0.000000 0
M  V30 284 C -21.781335 -9.332414 0.000000 0
M  V30 285 N -20.354750 -9.795940 0.000000 0
M  V30 286 N -22.896052 -10.336110 0.000000 0
M  V30 287 C -29.226126 -5.547566 0.000000 0
M  V30 288 O -28.812514 -4.105718 0.000000 0
M  V30 289 O -30.340843 -6.551261 0.000000 0
M  V30 290 C -33.745731 -12.176327 0.000000 0
M  V30 291 C -34.209257 -13.602912 0.000000 0
M  V30 292 C -35.172316 -11.712802 0.000000 0
M  V30 293 H -33.331394 -4.270302 0.000000 0
M  V30 294 H -33.102884 -5.636388 0.000000 0
M  V30 295 H -32.343560 -3.299429 0.000000 0
M  V30 296 H -31.273172 -6.469382 0.000000 0
M  V30 297 H -30.941750 -6.623938 0.000000 0
M  V30 298 H -28.441313 -7.031098 0.000000 0
M  V30 299 H -26.459412 -7.068479 0.000000 0
M  V30 300 H -26.852255 -7.410009 0.000000 0
M  V30 301 H -26.564137 -7.184807 0.000000 0
M  V30 302 H -27.161529 -4.697819 0.000000 0
M  V30 303 H -30.853421 -5.014370 0.000000 0
M  V30 304 H -33.052311 -2.589811 0.000000 0
M  V30 305 H -33.813700 -2.735940 0.000000 0
M  V30 306 H -32.545772 -0.017051 0.000000 0
M  V30 307 H -34.918188 0.554251 0.000000 0
M  V30 308 H -32.293322 0.701281 0.000000 0
M  V30 309 H -27.329865 -1.033683 0.000000 0
M  V30 310 H -26.359530 -1.968277 0.000000 0
M  V30 311 H -28.327891 -3.740598 0.000000 0
M  V30 312 H -26.200990 -4.815940 0.000000 0
M  V30 313 H -28.621359 -2.946949 0.000000 0
M  V30 314 H -32.292124 -4.248996 0.000000 0
M  V30 315 H -33.406842 -5.252692 0.000000 0
M  V30 316 H -34.593141 -2.649131 0.000000 0
M  V30 317 H -35.564494 -3.538793 0.000000 0
M  V30 318 H -33.843831 -5.996295 0.000000 0
M  V30 319 H -36.621729 -8.242157 0.000000 0
M  V30 320 H -34.977507 -1.593005 0.000000 0
M  V30 321 H -35.133311 -0.107829 0.000000 0
M  V30 322 H -33.034570 3.393858 0.000000 0
M  V30 323 H -28.868258 2.309282 0.000000 0
M  V30 324 H -32.858065 4.029489 0.000000 0
M  V30 325 H -32.735364 2.626572 0.000000 0
M  V30 326 H -30.736494 6.308043 0.000000 0
M  V30 327 H -32.293772 5.277273 0.000000 0
M  V30 328 H -27.890013 4.448115 0.000000 0
M  V30 329 H -29.558248 6.145769 0.000000 0
M  V30 330 H -28.633263 2.111050 0.000000 0
M  V30 331 H -28.828490 -0.015592 0.000000 0
M  V30 332 H -25.879862 -0.430156 0.000000 0
M  V30 333 H -25.761294 -1.558254 0.000000 0
M  V30 334 H -28.559295 -2.576814 0.000000 0
M  V30 335 H -25.574265 -3.230710 0.000000 0
M  V30 336 H -28.514905 -2.999157 0.000000 0
M  V30 337 H -28.401038 -5.036079 0.000000 0
M  V30 338 H -25.572800 -4.198192 0.000000 0
M  V30 339 H -25.829098 -7.553185 0.000000 0
M  V30 340 H -26.517451 -7.852544 0.000000 0
M  V30 341 H -24.786571 0.427781 0.000000 0
M  V30 342 H -23.605289 1.310203 0.000000 0
M  V30 343 H -22.477191 1.428771 0.000000 0
M  V30 344 H -22.607765 4.420325 0.000000 0
M  V30 345 H -20.932970 4.585105 0.000000 0
M  V30 346 H -17.975624 3.398920 0.000000 0
M  V30 347 H -18.954300 1.832616 0.000000 0
M  V30 348 H -19.258567 4.727518 0.000000 0
M  V30 349 H -20.645604 0.101769 0.000000 0
M  V30 350 H -19.317006 1.384712 0.000000 0
M  V30 351 H -19.310614 1.750344 0.000000 0
M  V30 352 H -23.135428 5.412650 0.000000 0
M  V30 353 H -24.134876 6.522212 0.000000 0
M  V30 354 H -24.291669 8.013995 0.000000 0
M  V30 355 H -27.283222 7.883421 0.000000 0
M  V30 356 H -24.448461 9.505778 0.000000 0
M  V30 357 H -27.432027 9.192193 0.000000 0
M  V30 358 H -25.040304 13.214229 0.000000 0
M  V30 359 H -23.513193 11.112341 0.000000 0
M  V30 360 H -28.141469 7.305630 0.000000 0
M  V30 361 H -29.194110 6.181287 0.000000 0
M  V30 362 H -32.211883 4.550942 0.000000 0
M  V30 363 H -30.685893 6.024494 0.000000 0
M  V30 364 H -31.274172 3.134008 0.000000 0
M  V30 365 H -30.375486 2.462554 0.000000 0
M  V30 366 H -28.848257 1.815237 0.000000 0
M  V30 367 H -25.021616 0.147635 0.000000 0
M  V30 368 H -23.968974 1.271978 0.000000 0
M  V30 369 H -23.733915 4.257140 0.000000 0
M  V30 370 H -22.242133 4.413933 0.000000 0
M  V30 371 H -22.113506 1.466996 0.000000 0
M  V30 372 H -18.871859 4.195260 0.000000 0
M  V30 373 H -21.634815 5.228244 0.000000 0
M  V30 374 H -18.368661 5.215866 0.000000 0
M  V30 375 H -21.109298 6.436076 0.000000 0
M  V30 376 H -17.793884 8.844864 0.000000 0
M  V30 377 H -17.480299 5.861299 0.000000 0
M  V30 378 H -16.302102 9.001657 0.000000 0
M  V30 379 H -15.988516 6.018091 0.000000 0
M  V30 380 H -12.673103 8.426880 0.000000 0
M  V30 381 H -15.413739 9.647090 0.000000 0
M  V30 382 H -12.062998 9.797198 0.000000 0
M  V30 383 H -14.803634 11.017408 0.000000 0
M  V30 384 H -11.488221 13.426197 0.000000 0
M  V30 385 H -11.174636 10.442631 0.000000 0
M  V30 386 H -9.996438 13.582990 0.000000 0
M  V30 387 H -9.682853 10.599424 0.000000 0
M  V30 388 H -7.466185 11.034474 0.000000 0
M  V30 389 H -6.089182 12.283328 0.000000 0
M  V30 390 H -6.402768 15.266893 0.000000 0
M  V30 391 H -1.734121 17.389991 0.000000 0
M  V30 392 H 0.050195 15.636596 0.000000 0
M  V30 393 H 0.015314 13.469169 0.000000 0
M  V30 394 H -0.722589 13.229410 0.000000 0
M  V30 395 H 0.379689 15.832316 0.000000 0
M  V30 396 H 3.170767 16.342017 0.000000 0
M  V30 397 H 5.178159 14.112582 0.000000 0
M  V30 398 H 4.251108 11.259413 0.000000 0
M  V30 399 H 3.055118 6.277880 0.000000 0
M  V30 400 H 0.825683 4.270488 0.000000 0
M  V30 401 H -2.027487 5.197539 0.000000 0
M  V30 402 H -2.651222 8.131982 0.000000 0
M  V30 403 H -25.930776 -0.792283 0.000000 0
M  V30 404 H -26.383917 -3.139186 0.000000 0
M  V30 405 H -25.723070 -1.921939 0.000000 0
M  V30 406 H -28.354772 -2.879961 0.000000 0
M  V30 407 H -28.949799 -2.058681 0.000000 0
M  V30 408 H -34.038232 3.142675 0.000000 0
M  V30 409 H -37.029682 4.240019 0.000000 0
M  V30 410 H -37.254737 2.264970 0.000000 0
M  V30 411 H -34.911269 4.128997 0.000000 0
M  V30 412 H -37.269098 1.990946 0.000000 0
M  V30 413 H -35.133311 -0.107829 0.000000 0
M  V30 414 H -38.366442 -1.000504 0.000000 0
M  V30 415 H -36.248029 -1.111525 0.000000 0
M  V30 416 H -38.255420 1.117910 0.000000 0
M  V30 417 H -26.969159 -7.817816 0.000000 0
M  V30 418 H -27.901143 -9.572400 0.000000 0
M  V30 419 H -27.718849 -10.025150 0.000000 0
M  V30 420 H -26.450920 -7.306261 0.000000 0
M  V30 421 H -25.553746 -7.632880 0.000000 0
M  V30 422 H -22.959686 -10.387704 0.000000 0
M  V30 423 H -24.517889 -11.065205 0.000000 0
M  V30 424 H -24.310340 -8.094819 0.000000 0
M  V30 425 H -26.226379 -12.052168 0.000000 0
M  V30 426 H -24.762381 -11.189780 0.000000 0
M  V30 427 H -27.594274 -10.269642 0.000000 0
M  V30 428 H -32.412421 -9.375875 0.000000 0
M  V30 429 H -33.905941 -7.815300 0.000000 0
M  V30 430 H -33.737829 -10.977439 0.000000 0
M  V30 431 H -34.369466 -9.241884 0.000000 0
M  V30 432 H -32.357045 -11.086278 0.000000 0
M  V30 433 H -34.318443 -4.987313 0.000000 0
M  V30 434 H -33.166328 -2.940719 0.000000 0
M  V30 435 H -34.061211 -2.349475 0.000000 0
M  V30 436 H -35.281745 -4.597203 0.000000 0
M  V30 437 H -35.304616 -1.887536 0.000000 0
M  V30 438 H -36.353245 -4.549530 0.000000 0
M  V30 439 H -39.116115 -2.979983 0.000000 0
M  V30 440 H -38.853421 -5.121841 0.000000 0
M  V30 441 H -30.791087 -7.741452 0.000000 0
M  V30 442 H -28.618788 -5.419231 0.000000 0
M  V30 443 H -28.427905 -8.595321 0.000000 0
M  V30 444 H -31.036306 -9.055543 0.000000 0
M  V30 445 H -29.904870 -11.000362 0.000000 0
M  V30 446 H -31.378418 -10.619298 0.000000 0
M  V30 447 H -30.031750 -12.284125 0.000000 0
M  V30 448 H -32.151760 -11.595292 0.000000 0
M  V30 449 H -32.744149 -12.359120 0.000000 0
M  V30 450 H -29.295301 -15.465730 0.000000 0
M  V30 451 H -27.770453 -14.329117 0.000000 0
M  V30 452 H -27.695027 -12.172528 0.000000 0
M  V30 453 H -27.470115 -9.832796 0.000000 0
M  V30 454 H -29.053687 -12.150281 0.000000 0
M  V30 455 H -27.992288 -12.632975 0.000000 0
M  V30 456 H -27.627103 -12.613807 0.000000 0
M  V30 457 H -26.924675 -13.026733 0.000000 0
M  V30 458 H -26.356595 -10.103797 0.000000 0
M  V30 459 H -25.668529 -13.423119 0.000000 0
M  V30 460 H -25.320738 -13.536123 0.000000 0
M  V30 461 H -22.379229 -11.666868 0.000000 0
M  V30 462 H -21.557660 -15.925168 0.000000 0
M  V30 463 H -24.098962 -16.465338 0.000000 0
M  V30 464 H -25.837414 -14.534591 0.000000 0
M  V30 465 H -33.328162 -11.498966 0.000000 0
M  V30 466 H -34.641650 -10.115778 0.000000 0
M  V30 467 H -35.080316 -9.025501 0.000000 0
M  V30 468 H -34.131650 -5.496251 0.000000 0
M  V30 469 H -34.864060 -4.820392 0.000000 0
M  V30 470 H -35.419399 -7.677775 0.000000 0
M  V30 471 H -37.006968 -7.126834 0.000000 0
M  V30 472 H -35.748495 -4.428220 0.000000 0
M  V30 473 H -37.743159 -6.887631 0.000000 0
M  V30 474 H -36.559483 -4.349408 0.000000 0
M  V30 475 H -39.195883 -3.433458 0.000000 0
M  V30 476 H -42.835243 -6.328256 0.000000 0
M  V30 477 H -41.096791 -8.259003 0.000000 0
M  V30 478 H -38.395591 -7.684845 0.000000 0
M  V30 479 H -32.849150 -9.572934 0.000000 0
M  V30 480 H -28.716630 -8.915497 0.000000 0
M  V30 481 H -29.184891 -10.888887 0.000000 0
M  V30 482 H -32.129788 -10.316539 0.000000 0
M  V30 483 H -29.648416 -12.315471 0.000000 0
M  V30 484 H -32.547449 -11.565772 0.000000 0
M  V30 485 H -33.010975 -12.992357 0.000000 0
M  V30 486 H -30.157805 -13.919408 0.000000 0
M  V30 487 H -30.551564 -14.987021 0.000000 0
M  V30 488 H -33.213558 -13.938392 0.000000 0
M  V30 489 H -33.978662 -16.620920 0.000000 0
M  V30 490 H -32.148715 -17.764535 0.000000 0
M  V30 491 H -27.019465 -8.276398 0.000000 0
M  V30 492 H -26.500382 -5.261301 0.000000 0
M  V30 493 H -25.428882 -5.308974 0.000000 0
M  V30 494 H -26.836482 -7.901201 0.000000 0
M  V30 495 H -24.151424 -5.666113 0.000000 0
M  V30 496 H -25.890446 -8.103785 0.000000 0
M  V30 497 H -24.463862 -8.567310 0.000000 0
M  V30 498 H -22.724839 -6.129638 0.000000 0
M  V30 499 H -21.604812 -9.283458 0.000000 0
M  V30 500 H -18.323149 -6.464691 0.000000 0
M  V30 501 H -20.061601 -4.533944 0.000000 0
M  V30 502 H -22.649797 -4.760312 0.000000 0
M  V30 503 H -28.137579 -3.542905 0.000000 0
M  V30 504 H -32.437027 -3.330645 0.000000 0
M  V30 505 H -31.860497 -1.556270 0.000000 0
M  V30 506 H -29.335410 -3.134309 0.000000 0
M  V30 507 H -31.079399 0.315473 0.000000 0
M  V30 508 H -29.451691 -2.144517 0.000000 0
M  V30 509 H -31.051185 0.402304 0.000000 0
M  V30 510 H -28.077650 0.558382 0.000000 0
M  V30 511 H -30.152348 3.168642 0.000000 0
M  V30 512 H -30.382506 2.884468 0.000000 0
M  V30 513 H -27.497988 4.480411 0.000000 0
M  V30 514 H -29.650647 4.630822 0.000000 0
M  V30 515 H -34.027416 -4.371213 0.000000 0
M  V30 516 H -33.822376 -8.208441 0.000000 0
M  V30 517 H -35.071609 -7.790779 0.000000 0
M  V30 518 H -35.224186 -4.883932 0.000000 0
M  V30 519 H -36.675546 -7.281390 0.000000 0
M  V30 520 H -36.107466 -4.358453 0.000000 0
M  V30 521 H -38.433552 -6.663309 0.000000 0
M  V30 522 H -37.534051 -3.894928 0.000000 0
M  V30 523 H -39.528715 -6.354339 0.000000 0
M  V30 524 H -39.143815 -3.429816 0.000000 0
M  V30 525 H -40.803642 -2.997007 0.000000 0
M  V30 526 H -41.947257 -4.826954 0.000000 0
M  V30 527 H -32.604456 -9.844694 0.000000 0
M  V30 528 H -28.767229 -9.639654 0.000000 0
M  V30 529 H -29.491696 -11.546788 0.000000 0
M  V30 530 H -32.155277 -10.681338 0.000000 0
M  V30 531 H -29.955222 -12.973373 0.000000 0
M  V30 532 H -32.617216 -11.924744 0.000000 0
M  V30 533 H -33.080742 -13.351328 0.000000 0
M  V30 534 H -30.542519 -14.535004 0.000000 0
M  V30 535 H -33.515137 -15.194335 0.000000 0
M  V30 536 H -30.647414 -18.652520 0.000000 0
M  V30 537 H -28.716667 -16.914068 0.000000 0
M  V30 538 H -28.943034 -14.325872 0.000000 0
M  V30 539 H -27.558931 -8.762135 0.000000 0
M  V30 540 H -26.720419 -4.969220 0.000000 0
M  V30 541 H -25.738992 -5.115172 0.000000 0
M  V30 542 H -26.477510 -7.970968 0.000000 0
M  V30 543 H -24.482846 -5.511557 0.000000 0
M  V30 544 H -25.580336 -8.297587 0.000000 0
M  V30 545 H -24.153751 -8.761112 0.000000 0
M  V30 546 H -23.056261 -5.975083 0.000000 0
M  V30 547 H -21.276142 -9.123133 0.000000 0
M  V30 548 H -18.567842 -6.192932 0.000000 0
M  V30 549 H -20.306294 -4.262185 0.000000 0
M  V30 550 H -22.762801 -5.108102 0.000000 0
M  V30 551 H -28.309242 -3.220013 0.000000 0
M  V30 552 H -32.462516 -3.695444 0.000000 0
M  V30 553 H -31.973501 -1.904060 0.000000 0
M  V30 554 H -29.141608 -2.824198 0.000000 0
M  V30 555 H -29.134966 -1.961724 0.000000 0
M  V30 556 H -31.309557 0.031298 0.000000 0
M  V30 557 H -30.291524 3.250101 0.000000 0
M  V30 558 H -31.925853 1.120024 0.000000 0
M  V30 559 H -34.231890 -4.674393 0.000000 0
M  V30 560 H -33.463405 -8.278207 0.000000 0
M  V30 561 H -34.706810 -7.816268 0.000000 0
M  V30 562 H -35.558235 -5.032725 0.000000 0
M  V30 563 H -36.316574 -7.351156 0.000000 0
M  V30 564 H -36.472652 -4.377621 0.000000 0
M  V30 565 H -38.102130 -6.817864 0.000000 0
M  V30 566 H -37.899237 -3.914096 0.000000 0
M  V30 567 H -39.882250 -3.669814 0.000000 0
M  V30 568 H -42.590550 -6.600015 0.000000 0
M  V30 569 H -40.852097 -8.530762 0.000000 0
M  V30 570 H -38.508595 -8.032635 0.000000 0
M  V30 571 H -32.301276 -10.049167 0.000000 0
M  V30 572 H -28.697462 -9.280682 0.000000 0
M  V30 573 H -29.297894 -11.236677 0.000000 0
M  V30 574 H -32.091737 -11.041464 0.000000 0
M  V30 575 H -29.761420 -12.663262 0.000000 0
M  V30 576 H -32.598048 -12.289929 0.000000 0
M  V30 577 H -33.061574 -13.716514 0.000000 0
M  V30 578 H -30.312361 -14.250830 0.000000 0
M  V30 579 H -33.396071 -15.540097 0.000000 0
M  V30 580 H -30.375654 -18.407827 0.000000 0
M  V30 581 H -28.444907 -16.669375 0.000000 0
M  V30 582 H -29.290824 -14.212868 0.000000 0
M  V30 583 H -27.259371 -8.552393 0.000000 0
M  V30 584 H -27.004594 -4.739062 0.000000 0
M  V30 585 H -26.086783 -5.002168 0.000000 0
M  V30 586 H -26.112325 -7.951800 0.000000 0
M  V30 587 H -24.841818 -5.441790 0.000000 0
M  V30 588 H -25.232545 -8.410591 0.000000 0
M  V30 589 H -23.805961 -8.874116 0.000000 0
M  V30 590 H -23.415233 -5.905316 0.000000 0
M  V30 591 H -21.580324 -6.455599 0.000000 0
M  V30 592 H -20.042882 -11.263161 0.000000 0
M  V30 593 H -22.407661 -11.754375 0.000000 0
M  V30 594 H -24.392404 -10.231556 0.000000 0
M  V30 595 H -31.813292 -6.265088 0.000000 0
M  V30 596 H -32.843170 -13.374402 0.000000 0
M  V30 597 H -34.672782 -15.029497 0.000000 0
M  V30 598 H -35.681705 -13.316738 0.000000 0
M  V30 599 H -32.736808 -13.889086 0.000000 0
M  V30 600 H -36.598901 -11.249276 0.000000 0
M  V30 601 H -35.806280 -13.072246 0.000000 0
M  V30 602 H -34.886142 -10.240353 0.000000 0
M  V30 END ATOM
M  V30 BEGIN BOND
M  V30 1 1 1 2
M  V30 2 1 2 3
M  V30 3 1 3 4
M  V30 4 1 3 5
M  V30 5 1 5 6
M  V30 6 1 6 7
M  V30 7 2 7 8
M  V30 8 1 7 9
M  V30 9 1 9 10
M  V30 10 1 10 11
M  V30 11 1 9 12
M  V30 12 1 12 13
M  V30 13 2 13 14
M  V30 14 1 13 15
M  V30 15 1 15 16
M  V30 16 1 16 17
M  V30 17 1 15 18
M  V30 18 1 18 19
M  V30 19 2 19 20
M  V30 20 1 19 21
M  V30 21 1 21 22
M  V30 22 1 22 23
M  V30 23 1 23 24
M  V30 24 2 24 25
M  V30 25 1 24 26
M  V30 26 1 21 27
M  V30 27 1 27 28
M  V30 28 2 28 29
M  V30 29 1 28 30
M  V30 30 1 30 31
M  V30 31 1 31 32
M  V30 32 2 32 33
M  V30 33 1 32 34
M  V30 34 1 34 35
M  V30 35 1 35 36
M  V30 36 1 36 37
M  V30 37 1 37 38
M  V30 38 1 38 39
M  V30 39 2 39 40
M  V30 40 1 39 41
M  V30 41 1 41 42
M  V30 42 1 42 43
M  V30 43 1 43 44
M  V30 44 1 44 45
M  V30 45 1 45 46
M  V30 46 1 41 47
M  V30 47 1 47 48
M  V30 48 2 48 49
M  V30 49 1 48 50
M  V30 50 1 50 51
M  V30 51 1 51 52
M  V30 52 1 52 53
M  V30 53 1 52 54
M  V30 54 1 50 55
M  V30 55 1 55 56
M  V30 56 2 56 57
M  V30 57 1 56 58
M  V30 58 1 58 59
M  V30 59 1 59 60
M  V30 60 1 60 61
M  V30 61 1 61 62
M  V30 62 2 61 63
M  V30 63 1 58 64
M  V30 64 1 64 65
M  V30 65 2 65 66
M  V30 66 1 65 67
M  V30 67 1 67 68
M  V30 68 1 67 69
M  V30 69 1 69 70
M  V30 70 2 70 71
M  V30 71 1 70 72
M  V30 72 1 72 73
M  V30 73 1 73 74
M  V30 74 2 74 75
M  V30 75 1 74 76
M  V30 76 1 76 77
M  V30 77 1 77 78
M  V30 78 1 78 79
M  V30 79 1 79 80
M  V30 80 1 80 81
M  V30 81 1 81 82
M  V30 82 1 82 83
M  V30 83 1 83 84
M  V30 84 1 84 85
M  V30 85 1 85 86
M  V30 86 1 86 87
M  V30 87 1 87 88
M  V30 88 1 88 89
M  V30 89 1 89 90
M  V30 90 1 90 91
M  V30 91 2 91 92
M  V30 92 1 91 93
M  V30 93 1 93 94
M  V30 94 1 94 95
M  V30 95 2 95 96
M  V30 96 1 96 97
M  V30 97 1 96 98
M  V30 98 2 98 99
M  V30 99 1 99 100
M  V30 100 1 100 101
M  V30 101 1 101 102
M  V30 102 1 102 103
M  V30 103 2 103 104
M  V30 104 1 104 105
M  V30 105 2 105 106
M  V30 106 1 106 107
M  V30 107 2 107 108
M  V30 108 2 102 109
M  V30 109 1 109 110
M  V30 110 1 110 111
M  V30 111 2 111 112
M  V30 112 1 112 113
M  V30 113 2 113 114
M  V30 114 1 114 115
M  V30 115 2 100 116
M  V30 116 1 116 117
M  V30 117 2 117 118
M  V30 118 1 72 119
M  V30 119 1 119 120
M  V30 120 1 119 121
M  V30 121 1 30 122
M  V30 122 1 122 123
M  V30 123 1 122 124
M  V30 124 1 124 125
M  V30 125 1 5 126
M  V30 126 2 126 127
M  V30 127 1 126 128
M  V30 128 1 128 129
M  V30 129 1 129 130
M  V30 130 1 130 131
M  V30 131 1 131 132
M  V30 132 1 131 133
M  V30 133 1 129 134
M  V30 134 2 134 135
M  V30 135 1 134 136
M  V30 136 1 136 137
M  V30 137 1 137 138
M  V30 138 1 137 139
M  V30 139 2 139 140
M  V30 140 1 139 141
M  V30 141 1 141 142
M  V30 142 1 142 143
M  V30 143 1 143 144
M  V30 144 1 144 145
M  V30 145 1 145 146
M  V30 146 2 145 147
M  V30 147 1 142 148
M  V30 148 2 148 149
M  V30 149 1 148 150
M  V30 150 1 150 151
M  V30 151 1 151 152
M  V30 152 1 152 153
M  V30 153 1 153 154
M  V30 154 1 154 155
M  V30 155 1 155 156
M  V30 156 2 156 157 CFG=2
M  V30 157 1 156 158
M  V30 158 1 151 159
M  V30 159 2 159 160
M  V30 160 1 159 161
M  V30 161 1 161 162
M  V30 162 1 162 163
M  V30 163 1 163 164
M  V30 164 1 164 165
M  V30 165 1 165 166
M  V30 166 1 166 167
M  V30 167 2 167 168 CFG=2
M  V30 168 1 167 169
M  V30 169 1 162 170
M  V30 170 2 170 171
M  V30 171 1 170 172
M  V30 172 1 172 173
M  V30 173 1 173 174
M  V30 174 2 174 175
M  V30 175 1 174 176
M  V30 176 1 176 177
M  V30 177 1 177 178
M  V30 178 1 178 179
M  V30 179 1 179 180
M  V30 180 1 180 181
M  V30 181 1 181 182
M  V30 182 2 182 183 CFG=2
M  V30 183 1 182 184
M  V30 184 1 177 185
M  V30 185 2 185 186
M  V30 186 1 185 187
M  V30 187 1 187 188
M  V30 188 1 188 189
M  V30 189 1 189 190
M  V30 190 1 190 191
M  V30 191 1 191 192
M  V30 192 1 192 193
M  V30 193 1 188 194
M  V30 194 2 194 195
M  V30 195 1 194 196
M  V30 196 1 196 197
M  V30 197 1 197 198
M  V30 198 1 198 199
M  V30 199 1 199 200
M  V30 200 1 200 201
M  V30 201 1 201 202
M  V30 202 2 202 203 CFG=2
M  V30 203 1 202 204
M  V30 204 1 197 205
M  V30 205 2 205 206
M  V30 206 1 205 207
M  V30 207 1 207 208
M  V30 208 1 208 209
M  V30 209 1 209 210
M  V30 210 1 210 211
M  V30 211 1 211 212
M  V30 212 1 212 213
M  V30 213 1 208 214
M  V30 214 2 214 215
M  V30 215 1 214 216
M  V30 216 1 216 217
M  V30 217 1 217 218
M  V30 218 1 218 219
M  V30 219 1 219 220
M  V30 220 1 220 221
M  V30 221 1 221 222
M  V30 222 1 217 223
M  V30 223 2 223 224
M  V30 224 1 223 225
M  V30 225 1 225 226
M  V30 226 1 226 227
M  V30 227 1 227 228
M  V30 228 1 228 229
M  V30 229 1 229 230
M  V30 230 1 230 231
M  V30 231 2 231 232 CFG=2
M  V30 232 1 231 233
M  V30 233 1 226 234
M  V30 234 2 234 235
M  V30 235 1 234 236
M  V30 236 1 236 237
M  V30 237 1 237 238
M  V30 238 1 238 239
M  V30 239 1 239 240
M  V30 240 1 240 241
M  V30 241 1 241 242
M  V30 242 2 242 243 CFG=2
M  V30 243 1 242 244
M  V30 244 1 237 245
M  V30 245 2 245 246
M  V30 246 1 245 247
M  V30 247 1 247 248
M  V30 248 1 248 249
M  V30 249 1 249 250
M  V30 250 1 250 251
M  V30 251 1 251 252
M  V30 252 2 251 253
M  V30 253 1 248 254
M  V30 254 2 254 255
M  V30 255 1 254 256
M  V30 256 1 256 257
M  V30 257 1 257 258
M  V30 258 1 258 259
M  V30 259 1 259 260
M  V30 260 1 260 261
M  V30 261 1 261 262
M  V30 262 2 262 263 CFG=2
M  V30 263 1 262 264
M  V30 264 1 257 265
M  V30 265 2 265 266
M  V30 266 1 265 267
M  V30 267 1 267 268
M  V30 268 1 268 269
M  V30 269 1 269 270
M  V30 270 1 270 271
M  V30 271 1 271 272
M  V30 272 1 272 273
M  V30 273 2 273 274 CFG=2
M  V30 274 1 273 275
M  V30 275 1 268 276
M  V30 276 2 276 277
M  V30 277 1 276 278
M  V30 278 1 278 279
M  V30 279 1 279 280
M  V30 280 1 280 281
M  V30 281 1 281 282
M  V30 282 1 282 283
M  V30 283 1 283 284
M  V30 284 2 284 285 CFG=2
M  V30 285 1 284 286
M  V30 286 1 279 287
M  V30 287 2 287 288
M  V30 288 1 287 289
M  V30 289 1 173 290
M  V30 290 1 290 291
M  V30 291 1 290 292
M  V30 292 1 38 34
M  V30 293 1 118 94
M  V30 294 1 118 98
M  V30 295 2 115 101
M  V30 296 1 108 103
M  V30 297 1 115 110
M  V30 298 1 1 293
M  V30 299 1 1 294
M  V30 300 1 1 295
M  V30 301 1 2 296
M  V30 302 1 2 297
M  V30 303 1 3 298 CFG=3
M  V30 304 1 4 299
M  V30 305 1 4 300
M  V30 306 1 4 301
M  V30 307 1 5 302 CFG=3
M  V30 308 1 6 303
M  V30 309 1 9 304 CFG=1
M  V30 310 1 10 305
M  V30 311 1 10 306
M  V30 312 1 11 307
M  V30 313 1 12 308
M  V30 314 1 15 309 CFG=1
M  V30 315 1 16 310
M  V30 316 1 16 311
M  V30 317 1 17 312
M  V30 318 1 18 313
M  V30 319 1 21 314 CFG=1
M  V30 320 1 22 315
M  V30 321 1 22 316
M  V30 322 1 23 317
M  V30 323 1 23 318
M  V30 324 1 26 319
M  V30 325 1 27 320
M  V30 326 1 30 321 CFG=1
M  V30 327 1 31 322
M  V30 328 1 34 323 CFG=1
M  V30 329 1 35 324
M  V30 330 1 35 325
M  V30 331 1 36 326
M  V30 332 1 36 327
M  V30 333 1 37 328
M  V30 334 1 37 329
M  V30 335 1 41 330 CFG=3
M  V30 336 1 42 331
M  V30 337 1 42 332
M  V30 338 1 43 333
M  V30 339 1 43 334
M  V30 340 1 44 335
M  V30 341 1 44 336
M  V30 342 1 45 337
M  V30 343 1 45 338
M  V30 344 1 46 339
M  V30 345 1 46 340
M  V30 346 1 47 341
M  V30 347 1 50 342 CFG=3
M  V30 348 1 51 343
M  V30 349 1 51 344
M  V30 350 1 52 345
M  V30 351 1 53 346
M  V30 352 1 53 347
M  V30 353 1 53 348
M  V30 354 1 54 349
M  V30 355 1 54 350
M  V30 356 1 54 351
M  V30 357 1 55 352
M  V30 358 1 58 353 CFG=3
M  V30 359 1 59 354
M  V30 360 1 59 355
M  V30 361 1 60 356
M  V30 362 1 60 357
M  V30 363 1 62 358
M  V30 364 1 62 359
M  V30 365 1 64 360
M  V30 366 1 67 361 CFG=3
M  V30 367 1 68 362
M  V30 368 1 68 363
M  V30 369 1 68 364
M  V30 370 1 69 365
M  V30 371 1 72 366 CFG=3
M  V30 372 1 73 367
M  V30 373 1 76 368
M  V30 374 1 76 369
M  V30 375 1 77 370
M  V30 376 1 77 371
M  V30 377 1 79 372
M  V30 378 1 79 373
M  V30 379 1 80 374
M  V30 380 1 80 375
M  V30 381 1 82 376
M  V30 382 1 82 377
M  V30 383 1 83 378
M  V30 384 1 83 379
M  V30 385 1 85 380
M  V30 386 1 85 381
M  V30 387 1 86 382
M  V30 388 1 86 383
M  V30 389 1 88 384
M  V30 390 1 88 385
M  V30 391 1 89 386
M  V30 392 1 89 387
M  V30 393 1 90 388
M  V30 394 1 93 389
M  V30 395 1 93 390
M  V30 396 1 97 391
M  V30 397 1 97 392
M  V30 398 1 99 393
M  V30 399 1 104 394
M  V30 400 1 105 395
M  V30 401 1 106 396
M  V30 402 1 107 397
M  V30 403 1 108 398
M  V30 404 1 111 399
M  V30 405 1 112 400
M  V30 406 1 113 401
M  V30 407 1 114 402
M  V30 408 1 119 403 CFG=3
M  V30 409 1 120 404
M  V30 410 1 120 405
M  V30 411 1 120 406
M  V30 412 1 121 407
M  V30 413 1 122 408 CFG=1
M  V30 414 1 123 409
M  V30 415 1 123 410
M  V30 416 1 123 411
M  V30 417 1 124 412
M  V30 418 1 124 413
M  V30 419 1 125 414
M  V30 420 1 125 415
M  V30 421 1 125 416
M  V30 422 1 128 417
M  V30 423 1 129 418 CFG=3
M  V30 424 1 130 419
M  V30 425 1 130 420
M  V30 426 1 131 421
M  V30 427 1 132 422
M  V30 428 1 132 423
M  V30 429 1 132 424
M  V30 430 1 133 425
M  V30 431 1 133 426
M  V30 432 1 133 427
M  V30 433 1 136 428
M  V30 434 1 137 429 CFG=3
M  V30 435 1 138 430
M  V30 436 1 138 431
M  V30 437 1 138 432
M  V30 438 1 141 433
M  V30 439 1 142 434 CFG=3
M  V30 440 1 143 435
M  V30 441 1 143 436
M  V30 442 1 144 437
M  V30 443 1 144 438
M  V30 444 1 146 439
M  V30 445 1 146 440
M  V30 446 1 150 441
M  V30 447 1 151 442 CFG=3
M  V30 448 1 152 443
M  V30 449 1 152 444
M  V30 450 1 153 445
M  V30 451 1 153 446
M  V30 452 1 154 447
M  V30 453 1 154 448
M  V30 454 1 155 449
M  V30 455 1 157 450
M  V30 456 1 158 451
M  V30 457 1 158 452
M  V30 458 1 161 453
M  V30 459 1 162 454 CFG=3
M  V30 460 1 163 455
M  V30 461 1 163 456
M  V30 462 1 164 457
M  V30 463 1 164 458
M  V30 464 1 165 459
M  V30 465 1 165 460
M  V30 466 1 166 461
M  V30 467 1 168 462
M  V30 468 1 169 463
M  V30 469 1 169 464
M  V30 470 1 172 465
M  V30 471 1 173 466 CFG=3
M  V30 472 1 176 467
M  V30 473 1 177 468 CFG=3
M  V30 474 1 178 469
M  V30 475 1 178 470
M  V30 476 1 179 471
M  V30 477 1 179 472
M  V30 478 1 180 473
M  V30 479 1 180 474
M  V30 480 1 181 475
M  V30 481 1 183 476
M  V30 482 1 184 477
M  V30 483 1 184 478
M  V30 484 1 187 479
M  V30 485 1 188 480 CFG=1
M  V30 486 1 189 481
M  V30 487 1 189 482
M  V30 488 1 190 483
M  V30 489 1 190 484
M  V30 490 1 191 485
M  V30 491 1 191 486
M  V30 492 1 192 487
M  V30 493 1 192 488
M  V30 494 1 193 489
M  V30 495 1 193 490
M  V30 496 1 196 491
M  V30 497 1 197 492 CFG=1
M  V30 498 1 198 493
M  V30 499 1 198 494
M  V30 500 1 199 495
M  V30 501 1 199 496
M  V30 502 1 200 497
M  V30 503 1 200 498
M  V30 504 1 201 499
M  V30 505 1 203 500
M  V30 506 1 204 501
M  V30 507 1 204 502
M  V30 508 1 207 503
M  V30 509 1 208 504 CFG=1
M  V30 510 1 209 505
M  V30 511 1 209 506
M  V30 512 1 210 507
M  V30 513 1 210 508
M  V30 514 1 211 509
M  V30 515 1 211 510
M  V30 516 1 212 511
M  V30 517 1 212 512
M  V30 518 1 213 513
M  V30 519 1 213 514
M  V30 520 1 216 515
M  V30 521 1 217 516 CFG=1
M  V30 522 1 218 517
M  V30 523 1 218 518
M  V30 524 1 219 519
M  V30 525 1 219 520
M  V30 526 1 220 521
M  V30 527 1 220 522
M  V30 528 1 221 523
M  V30 529 1 221 524
M  V30 530 1 222 525
M  V30 531 1 222 526
M  V30 532 1 225 527
M  V30 533 1 226 528 CFG=1
M  V30 534 1 227 529
M  V30 535 1 227 530
M  V30 536 1 228 531
M  V30 537 1 228 532
M  V30 538 1 229 533
M  V30 539 1 229 534
M  V30 540 1 230 535
M  V30 541 1 232 536
M  V30 542 1 233 537
M  V30 543 1 233 538
M  V30 544 1 236 539
M  V30 545 1 237 540 CFG=1
M  V30 546 1 238 541
M  V30 547 1 238 542
M  V30 548 1 239 543
M  V30 549 1 239 544
M  V30 550 1 240 545
M  V30 551 1 240 546
M  V30 552 1 241 547
M  V30 553 1 243 548
M  V30 554 1 244 549
M  V30 555 1 244 550
M  V30 556 1 247 551
M  V30 557 1 248 552 CFG=1
M  V30 558 1 249 553
M  V30 559 1 249 554
M  V30 560 1 250 555
M  V30 561 1 250 556
M  V30 562 1 252 557
M  V30 563 1 252 558
M  V30 564 1 256 559
M  V30 565 1 257 560 CFG=1
M  V30 566 1 258 561
M  V30 567 1 258 562
M  V30 568 1 259 563
M  V30 569 1 259 564
M  V30 570 1 260 565
M  V30 571 1 260 566
M  V30 572 1 261 567
M  V30 573 1 263 568
M  V30 574 1 264 569
M  V30 575 1 264 570
M  V30 576 1 267 571
M  V30 577 1 268 572 CFG=1
M  V30 578 1 269 573
M  V30 579 1 269 574
M  V30 580 1 270 575
M  V30 581 1 270 576
M  V30 582 1 271 577
M  V30 583 1 271 578
M  V30 584 1 272 579
M  V30 585 1 274 580
M  V30 586 1 275 581
M  V30 587 1 275 582
M  V30 588 1 278 583
M  V30 589 1 279 584 CFG=1
M  V30 590 1 280 585
M  V30 591 1 280 586
M  V30 592 1 281 587
M  V30 593 1 281 588
M  V30 594 1 282 589
M  V30 595 1 282 590
M  V30 596 1 283 591
M  V30 597 1 285 592
M  V30 598 1 286 593
M  V30 599 1 286 594
M  V30 600 1 289 595
M  V30 601 1 290 596
M  V30 602 1 291 597
M  V30 603 1 291 598
M  V30 604 1 291 599
M  V30 605 1 292 600
M  V30 606 1 292 601
M  V30 607 1 292 602
M  V30 END BOND
M  V30 END CTAB
M  END
>  <Dataset>  (211) 
ChEMBL_Kinases

>  <Ligand_Instance>  (211) 
nan

>  <PDB_ID>  (211) 
nan

>  <Standardized_SMILES>  (211) 
CC[C@H](C)[C@H](NC(=O)[C@H](CO)NC(=O)[C@H](CO)NC(=O)[C@H](CCC(=O)O)NC(=O)[C@@H](NC(=O)[C@@H]1CCCN1C(=O)[C@H](CCCCN)NC(=O)[C@H](CC(C)C)NC(=O)[C@H](CCC(N)=O)NC(=O)[C@H](C)NC(=O)[C@@H](NC(=O)CCOCCOCCOCCOCCNC(=O)Cn1nc(N)c2cc(-c3c(-c4ccccc4)nn4ccccc34)nnc21)[C@@H](C)O)[C@@H](C)CC)C(=O)N[C@@H](CC(C)C)C(=O)N[C@@H](C)C(=O)N[C@@H](CCC(N)=O)C(=O)N[C@@H](CCCNC(=N)N)C(=O)N[C@@H](CCCNC(=N)N)C(=O)N[C@H](C(=O)N[C@@H](CCCNC(=N)N)C(=O)N[C@@H](CCCCN)C(=O)N[C@@H](CCCNC(=N)N)C(=O)N[C@@H](CCCCN)C(=O)N[C@@H](CCCCN)C(=O)N[C@@H](CCCNC(=N)N)C(=O)N[C@@H](CCCNC(=N)N)C(=O)N[C@@H](CCC(N)=O)C(=O)N[C@@H](CCCNC(=N)N)C(=O)N[C@@H](CCCNC(=N)N)C(=O)N[C@@H](CCCNC(=N)N)C(=O)O)C(C)C

>  <Name>  (211) 
nan

>  <Pocket>  (211) 
nan

>  <ATP_Site>  (211) 
nan

>  <Peripheral>  (211) 
nan

>  <Num_H_Atoms_ProtBoundConf>  (211) 
nan

>  <Num_Resolved_Atoms>  (211) 
nan

>  <Num_Not_Resolved_Atoms>  (211) 
nan

$$$$
CHEMBL4856606
     RDKit          3D

  0  0  0  0  0  0  0  0  0  0999 V3000
M  V30 BEGIN CTAB
M  V30 COUNTS 48 50 0 0 0
M  V30 BEGIN ATOM
M  V30 1 C -0.232808 -3.672898 0.795038 0
M  V30 2 N 0.628415 -4.834544 0.863049 0
M  V30 3 C 2.030948 -4.658413 0.705159 0
M  V30 4 C 2.582503 -3.414185 0.490324 0
M  V30 5 C 3.947952 -3.189551 0.329752 0
M  V30 6 O 4.390405 -1.893198 0.118643 0
M  V30 7 C 3.486560 -0.815236 0.065401 0
M  V30 8 C 3.215773 -0.188039 1.286749 0
M  V30 9 C 3.867339 -0.667909 2.533847 0
M  V30 10 C 2.337129 0.880386 1.318423 0
M  V30 11 C 1.758685 1.287350 0.133788 0
M  V30 12 N 0.827473 2.386786 0.033607 0
M  V30 13 C -0.549858 2.025261 0.193371 0
M  V30 14 O -0.858491 0.806699 0.405429 0
M  V30 15 N -1.694240 2.902352 0.143672 0
M  V30 16 C -2.975335 2.310832 0.331841 0
M  V30 17 C -3.585566 1.878333 -0.845006 0
M  V30 18 C -4.845446 1.276000 -0.833321 0
M  V30 19 C -5.498431 1.106507 0.371503 0
M  V30 20 C -4.869977 1.541710 1.497699 0
M  V30 21 C -5.516094 1.392812 2.847444 0
M  V30 22 F -5.675193 2.619164 3.418295 0
M  V30 23 F -6.680736 0.678663 2.693762 0
M  V30 24 F -4.681933 0.645639 3.663601 0
M  V30 25 C -3.634004 2.140497 1.552488 0
M  V30 26 C 2.012344 0.681549 -1.084635 0
M  V30 27 C 2.890071 -0.381559 -1.099174 0
M  V30 28 Cl 3.288147 -1.228750 -2.590320 0
M  V30 29 N 4.755384 -4.287799 0.394860 0
M  V30 30 C 4.208121 -5.515470 0.607125 0
M  V30 31 N 2.883216 -5.697694 0.758282 0
M  V30 32 H -0.325144 -3.270012 -0.230567 0
M  V30 33 H -1.257072 -3.940767 1.184404 0
M  V30 34 H 0.167629 -2.846734 1.425791 0
M  V30 35 H 0.260910 -5.792679 1.022888 0
M  V30 36 H 1.927642 -2.543409 0.440115 0
M  V30 37 H 3.825614 -1.787539 2.613207 0
M  V30 38 H 3.308063 -0.243049 3.392796 0
M  V30 39 H 4.906020 -0.298630 2.635444 0
M  V30 40 H 2.089511 1.400059 2.216278 0
M  V30 41 H 0.965470 3.421969 -0.137135 0
M  V30 42 H -1.437141 3.917635 -0.033016 0
M  V30 43 H -3.129005 1.981036 -1.820223 0
M  V30 44 H -5.303713 0.945379 -1.766097 0
M  V30 45 H -6.480380 0.642159 0.423579 0
M  V30 46 H -3.115117 2.491235 2.410233 0
M  V30 47 H 1.585547 0.965430 -2.025306 0
M  V30 48 H 4.942838 -6.324593 0.641639 0
M  V30 END ATOM
M  V30 BEGIN BOND
M  V30 1 1 1 2
M  V30 2 1 2 3
M  V30 3 2 3 4
M  V30 4 1 4 5
M  V30 5 1 5 6
M  V30 6 1 6 7
M  V30 7 2 7 8
M  V30 8 1 8 9
M  V30 9 1 8 10
M  V30 10 2 10 11
M  V30 11 1 11 12
M  V30 12 1 12 13
M  V30 13 2 13 14
M  V30 14 1 13 15
M  V30 15 1 15 16
M  V30 16 2 16 17
M  V30 17 1 17 18
M  V30 18 2 18 19
M  V30 19 1 19 20
M  V30 20 1 20 21
M  V30 21 1 21 22
M  V30 22 1 21 23
M  V30 23 1 21 24
M  V30 24 2 20 25
M  V30 25 1 11 26
M  V30 26 2 26 27
M  V30 27 1 27 28
M  V30 28 2 5 29
M  V30 29 1 29 30
M  V30 30 2 30 31
M  V30 31 1 31 3
M  V30 32 1 27 7
M  V30 33 1 25 16
M  V30 34 1 1 32
M  V30 35 1 1 33
M  V30 36 1 1 34
M  V30 37 1 2 35
M  V30 38 1 4 36
M  V30 39 1 9 37
M  V30 40 1 9 38
M  V30 41 1 9 39
M  V30 42 1 10 40
M  V30 43 1 12 41
M  V30 44 1 15 42
M  V30 45 1 17 43
M  V30 46 1 18 44
M  V30 47 1 19 45
M  V30 48 1 25 46
M  V30 49 1 26 47
M  V30 50 1 30 48
M  V30 END BOND
M  V30 END CTAB
M  END
>  <Dataset>  (212) 
ChEMBL_Kinases

>  <Ligand_Instance>  (212) 
nan

>  <PDB_ID>  (212) 
nan

>  <Standardized_SMILES>  (212) 
CNc1cc(Oc2c(C)cc(NC(=O)Nc3cccc(C(F)(F)F)c3)cc2Cl)ncn1

>  <Name>  (212) 
nan

>  <Pocket>  (212) 
nan

>  <ATP_Site>  (212) 
nan

>  <Peripheral>  (212) 
nan

>  <Num_H_Atoms_ProtBoundConf>  (212) 
nan

>  <Num_Resolved_Atoms>  (212) 
nan

>  <Num_Not_Resolved_Atoms>  (212) 
nan

$$$$
CHEMBL4076248
     RDKit          3D

  0  0  0  0  0  0  0  0  0  0999 V3000
M  V30 BEGIN CTAB
M  V30 COUNTS 29 31 0 0 0
M  V30 BEGIN ATOM
M  V30 1 C -2.090682 -1.215943 0.810558 0
M  V30 2 C -0.924167 -1.922720 1.389342 0
M  V30 3 C -1.072902 -2.875599 2.366587 0
M  V30 4 C 0.030473 -3.542285 2.912197 0
M  V30 5 C 1.292760 -3.196591 2.419434 0
M  V30 6 C 1.425983 -2.227410 1.427531 0
M  V30 7 C 0.313069 -1.586400 0.908889 0
M  V30 8 C 0.595668 -0.593985 -0.123527 0
M  V30 9 C 0.619498 -1.033134 -1.434318 0
M  V30 10 C 0.890201 -0.072304 -2.399631 0
M  V30 11 N 1.125664 1.241309 -2.120842 0
M  V30 12 C 1.095975 1.642198 -0.830030 0
M  V30 13 N 1.284440 2.853225 -0.233232 0
M  V30 14 C 1.145908 2.726207 1.114405 0
M  V30 15 C 0.857537 1.390933 1.413070 0
M  V30 16 C 0.629303 0.783313 2.700814 0
M  V30 17 N 0.436468 0.304164 3.736851 0
M  V30 18 C 0.835409 0.751718 0.179624 0
M  V30 19 H -1.804395 -0.323526 0.256287 0
M  V30 20 H -2.688808 -1.958742 0.216319 0
M  V30 21 H -2.759188 -0.971047 1.686484 0
M  V30 22 H -2.083487 -3.114155 2.722566 0
M  V30 23 H -0.127675 -4.286611 3.680348 0
M  V30 24 H 2.098048 -3.734513 2.869399 0
M  V30 25 H 2.462446 -2.045458 1.125599 0
M  V30 26 H 0.448499 -2.038563 -1.757400 0
M  V30 27 H 0.942533 -0.268247 -3.479485 0
M  V30 28 H 1.503814 3.741514 -0.759138 0
M  V30 29 H 1.240504 3.520253 1.849992 0
M  V30 END ATOM
M  V30 BEGIN BOND
M  V30 1 1 1 2
M  V30 2 2 2 3
M  V30 3 1 3 4
M  V30 4 2 4 5
M  V30 5 1 5 6
M  V30 6 2 6 7
M  V30 7 1 7 8
M  V30 8 2 8 9
M  V30 9 1 9 10
M  V30 10 2 10 11
M  V30 11 1 11 12
M  V30 12 1 12 13
M  V30 13 1 13 14
M  V30 14 2 14 15
M  V30 15 1 15 16
M  V30 16 3 16 17
M  V30 17 1 15 18
M  V30 18 1 7 2
M  V30 19 1 18 8
M  V30 20 2 18 12
M  V30 21 1 1 19
M  V30 22 1 1 20
M  V30 23 1 1 21
M  V30 24 1 3 22
M  V30 25 1 4 23
M  V30 26 1 5 24
M  V30 27 1 6 25
M  V30 28 1 9 26
M  V30 29 1 10 27
M  V30 30 1 13 28
M  V30 31 1 14 29
M  V30 END BOND
M  V30 END CTAB
M  END
>  <Dataset>  (213) 
ChEMBL_Kinases

>  <Ligand_Instance>  (213) 
nan

>  <PDB_ID>  (213) 
nan

>  <Standardized_SMILES>  (213) 
Cc1ccccc1-c1ccnc2[nH]cc(C#N)c12

>  <Name>  (213) 
nan

>  <Pocket>  (213) 
nan

>  <ATP_Site>  (213) 
nan

>  <Peripheral>  (213) 
nan

>  <Num_H_Atoms_ProtBoundConf>  (213) 
nan

>  <Num_Resolved_Atoms>  (213) 
nan

>  <Num_Not_Resolved_Atoms>  (213) 
nan

$$$$
CHEMBL4076233
     RDKit          3D

  0  0  0  0  0  0  0  0  0  0999 V3000
M  V30 BEGIN CTAB
M  V30 COUNTS 63 67 0 0 0
M  V30 BEGIN ATOM
M  V30 1 C 6.096390 0.667477 6.593948 0
M  V30 2 N 5.327041 -0.274923 5.814960 0
M  V30 3 C 5.784325 -0.269051 4.453826 0
M  V30 4 C 4.910489 -1.111682 3.547758 0
M  V30 5 N 3.503343 -0.787570 3.663964 0
M  V30 6 C 2.605287 -0.503730 2.602316 0
M  V30 7 C 1.287498 -0.121899 2.737788 0
M  V30 8 C 0.486943 0.130527 1.642124 0
M  V30 9 N 0.943220 0.019369 0.385521 0
M  V30 10 C 0.297872 0.227559 -0.775508 0
M  V30 11 C -1.073779 0.633496 -1.067756 0
M  V30 12 C -1.676864 1.668626 -0.384134 0
M  V30 13 C -2.972688 2.012902 -0.700118 0
M  V30 14 C -3.682122 1.339309 -1.691586 0
M  V30 15 C -5.046691 1.782414 -1.951301 0
M  V30 16 N -5.637279 2.839306 -1.241009 0
M  V30 17 O -5.837574 1.302838 -2.802063 0
M  V30 18 C -3.090446 0.283959 -2.399948 0
M  V30 19 O -3.908657 -0.263894 -3.326338 0
M  V30 20 C -3.768844 -1.288973 -4.226724 0
M  V30 21 C -3.491028 -2.624995 -3.692228 0
M  V30 22 C -2.254410 -3.251407 -3.751746 0
M  V30 23 C -1.990696 -4.510594 -3.259415 0
M  V30 24 C -3.009422 -5.215625 -2.662403 0
M  V30 25 C -4.224382 -4.607603 -2.600725 0
M  V30 26 C -4.539374 -3.331243 -3.086699 0
M  V30 27 C -5.916845 -2.806282 -2.944710 0
M  V30 28 F -6.679623 -3.774880 -2.291583 0
M  V30 29 F -6.554257 -2.622653 -4.164533 0
M  V30 30 F -6.017134 -1.676679 -2.192281 0
M  V30 31 C -1.798068 -0.011453 -2.039402 0
M  V30 32 C 1.253518 -0.034556 -1.737579 0
M  V30 33 N 2.408848 -0.381524 -1.144466 0
M  V30 34 C 2.220786 -0.349828 0.202815 0
M  V30 35 C 3.043236 -0.608759 1.300086 0
M  V30 36 C 3.148749 -0.802208 5.067954 0
M  V30 37 C 3.943909 0.203071 5.873732 0
M  V30 38 H 7.098758 0.321652 6.844554 0
M  V30 39 H 5.523325 0.801325 7.559199 0
M  V30 40 H 6.052208 1.660521 6.107185 0
M  V30 41 H 5.856614 0.776824 4.048513 0
M  V30 42 H 6.792976 -0.736752 4.453916 0
M  V30 43 H 5.316111 -1.075659 2.540134 0
M  V30 44 H 5.003120 -2.158520 3.962337 0
M  V30 45 H 0.881699 -0.019685 3.732002 0
M  V30 46 H -0.533463 0.423678 1.849210 0
M  V30 47 H -1.162303 2.218759 0.392192 0
M  V30 48 H -3.468728 2.836640 -0.164468 0
M  V30 49 H -5.665538 3.751415 -1.765696 0
M  V30 50 H -5.995118 2.641455 -0.266430 0
M  V30 51 H -4.747046 -1.380773 -4.786676 0
M  V30 52 H -3.041137 -1.046718 -5.058787 0
M  V30 53 H -1.450380 -2.676508 -4.230874 0
M  V30 54 H -1.015791 -4.960624 -3.325726 0
M  V30 55 H -2.865855 -6.208212 -2.256378 0
M  V30 56 H -5.028278 -5.176088 -2.124336 0
M  V30 57 H -1.350349 -0.806810 -2.577366 0
M  V30 58 H 1.105946 0.026830 -2.802299 0
M  V30 59 H 4.037934 -0.894146 1.000218 0
M  V30 60 H 2.062270 -0.680260 5.205443 0
M  V30 61 H 3.431831 -1.801540 5.468580 0
M  V30 62 H 3.823031 1.236140 5.542784 0
M  V30 63 H 3.591427 0.115649 6.920522 0
M  V30 END ATOM
M  V30 BEGIN BOND
M  V30 1 1 1 2
M  V30 2 1 2 3
M  V30 3 1 3 4
M  V30 4 1 4 5
M  V30 5 1 5 6
M  V30 6 1 6 7
M  V30 7 2 7 8
M  V30 8 1 8 9
M  V30 9 1 9 10
M  V30 10 1 10 11
M  V30 11 2 11 12
M  V30 12 1 12 13
M  V30 13 2 13 14
M  V30 14 1 14 15
M  V30 15 1 15 16
M  V30 16 2 15 17
M  V30 17 1 14 18
M  V30 18 1 18 19
M  V30 19 1 19 20
M  V30 20 1 20 21
M  V30 21 2 21 22
M  V30 22 1 22 23
M  V30 23 2 23 24
M  V30 24 1 24 25
M  V30 25 2 25 26
M  V30 26 1 26 27
M  V30 27 1 27 28
M  V30 28 1 27 29
M  V30 29 1 27 30
M  V30 30 2 18 31
M  V30 31 2 10 32
M  V30 32 1 32 33
M  V30 33 2 33 34
M  V30 34 1 34 35
M  V30 35 1 5 36
M  V30 36 1 36 37
M  V30 37 1 37 2
M  V30 38 2 35 6
M  V30 39 1 34 9
M  V30 40 1 31 11
M  V30 41 1 26 21
M  V30 42 1 1 38
M  V30 43 1 1 39
M  V30 44 1 1 40
M  V30 45 1 3 41
M  V30 46 1 3 42
M  V30 47 1 4 43
M  V30 48 1 4 44
M  V30 49 1 7 45
M  V30 50 1 8 46
M  V30 51 1 12 47
M  V30 52 1 13 48
M  V30 53 1 16 49
M  V30 54 1 16 50
M  V30 55 1 20 51
M  V30 56 1 20 52
M  V30 57 1 22 53
M  V30 58 1 23 54
M  V30 59 1 24 55
M  V30 60 1 25 56
M  V30 61 1 31 57
M  V30 62 1 32 58
M  V30 63 1 35 59
M  V30 64 1 36 60
M  V30 65 1 36 61
M  V30 66 1 37 62
M  V30 67 1 37 63
M  V30 END BOND
M  V30 END CTAB
M  END
>  <Dataset>  (214) 
ChEMBL_Kinases

>  <Ligand_Instance>  (214) 
nan

>  <PDB_ID>  (214) 
nan

>  <Standardized_SMILES>  (214) 
CN1CCN(c2ccn3c(-c4ccc(C(N)=O)c(OCc5ccccc5C(F)(F)F)c4)cnc3c2)CC1

>  <Name>  (214) 
nan

>  <Pocket>  (214) 
nan

>  <ATP_Site>  (214) 
nan

>  <Peripheral>  (214) 
nan

>  <Num_H_Atoms_ProtBoundConf>  (214) 
nan

>  <Num_Resolved_Atoms>  (214) 
nan

>  <Num_Not_Resolved_Atoms>  (214) 
nan

$$$$
CHEMBL4076226
     RDKit          3D

  0  0  0  0  0  0  0  0  0  0999 V3000
M  V30 BEGIN CTAB
M  V30 COUNTS 205 211 0 0 0
M  V30 BEGIN ATOM
M  V30 1 C -1.590188 0.623585 -5.022387 0
M  V30 2 C -1.267756 -0.747338 -4.538551 0
M  V30 3 N -1.222183 -0.954441 -3.136704 0
M  V30 4 C -1.595116 0.108057 -2.191376 0
M  V30 5 C -2.514731 1.168232 -2.126429 0
M  V30 6 C -2.553168 1.994216 -0.991406 0
M  V30 7 S -3.718919 3.296372 -0.995086 0
M  V30 8 O -4.044625 3.670963 0.433159 0
M  V30 9 O -4.926290 2.913200 -1.754161 0
M  V30 10 O -3.091846 4.684569 -1.716914 0
M  V30 11 C -1.686469 1.767328 0.066701 0
M  V30 12 C -0.734077 0.726641 0.078726 0
M  V30 13 C -0.769801 -0.020238 -1.063429 0
M  V30 14 C 0.067540 -1.157941 -1.384224 0
M  V30 15 C 1.321951 -1.336414 -1.091600 0
M  V30 16 C 2.128273 -0.380847 -0.368695 0
M  V30 17 C 3.374029 -0.808527 -0.223565 0
M  V30 18 C 4.411335 -0.035617 0.473959 0
M  V30 19 C 5.652484 -0.412788 0.626583 0
M  V30 20 C 6.813980 0.155538 1.255751 0
M  V30 21 N 7.138939 1.195523 1.899941 0 CHG=1 VAL=4
M  V30 22 C 6.413141 2.377378 2.311632 0
M  V30 23 C 6.275217 2.365301 3.845414 0
M  V30 24 C 8.478264 1.183550 2.365067 0
M  V30 25 C 9.381208 1.907545 3.111521 0
M  V30 26 C 10.676412 1.472721 3.400146 0
M  V30 27 C 11.150620 0.249971 2.940702 0
M  V30 28 S 12.758942 -0.229743 3.371318 0
M  V30 29 O 12.834687 -1.713706 3.655313 0
M  V30 30 O 13.096692 0.418457 4.720972 0
M  V30 31 O 13.914625 0.140284 2.239575 0 CHG=-1 VAL=1
M  V30 32 C 10.282604 -0.508354 2.187001 0
M  V30 33 C 9.026244 -0.029570 1.935744 0
M  V30 34 C 8.020756 -0.693052 1.088165 0
M  V30 35 C 7.856914 -2.108460 1.523264 0
M  V30 36 C 8.512564 -0.657020 -0.352190 0
M  V30 37 C -0.896605 -2.023232 -2.254669 0
M  V30 38 C -2.059627 -2.369230 -1.385213 0
M  V30 39 C -0.070441 -3.169714 -2.733977 0
M  V30 40 C 0.026733 -4.173661 -1.602607 0
M  V30 41 C 1.005896 -5.284951 -1.811262 0
M  V30 42 C 0.940137 -6.273704 -0.698600 0
M  V30 43 O -0.329187 -6.095873 -0.713073 0
M  V30 44 N 1.523880 -7.168225 0.210817 0
M  V30 45 C 0.529535 -7.803985 0.976448 0
M  V30 46 C -0.405789 -7.107891 1.844476 0
M  V30 47 C 0.087835 -6.396070 3.072672 0
M  V30 48 C -1.103083 -5.747648 3.804111 0
M  V30 49 C -1.650197 -4.536011 3.056239 0 CFG=2
M  V30 50 N -0.703251 -3.471075 3.031533 0
M  V30 51 C 0.349203 -2.587231 2.801002 0
M  V30 52 O 1.013703 -3.214266 1.903348 0
M  V30 53 C 0.518451 -1.273235 3.513132 0
M  V30 54 C 1.946389 -0.900847 3.626895 0
M  V30 55 C 2.145143 0.481147 4.258003 0
M  V30 56 C 1.597879 1.550140 3.366185 0
M  V30 57 C 1.671260 2.970014 3.765981 0
M  V30 58 C 1.084732 3.731766 2.511321 0
M  V30 59 C 1.967036 3.525677 1.354899 0
M  V30 60 C 1.410628 4.103096 0.025475 0
M  V30 61 O 2.268152 3.798718 -0.994837 0
M  V30 62 C 2.434195 3.856397 -2.288782 0
M  V30 63 N 1.669337 4.306070 -3.303662 0
M  V30 64 C 2.092729 4.228601 -4.576046 0
M  V30 65 C 1.189172 4.693330 -5.504336 0
M  V30 66 C 1.606733 4.583944 -6.842547 0
M  V30 67 C 0.743771 5.018475 -7.939882 0
M  V30 68 O 1.068678 4.954218 -9.170869 0
M  V30 69 O -0.514741 5.561309 -8.065558 0
M  V30 70 C 2.814762 4.059802 -7.249177 0
M  V30 71 C 3.672599 3.611039 -6.257601 0
M  V30 72 C 3.311471 3.697712 -4.938754 0
M  V30 73 C 4.140005 3.221939 -3.945581 0
M  V30 74 C 5.360668 2.698244 -4.285974 0
M  V30 75 N 6.162656 2.246818 -3.325044 0
M  V30 76 C 5.837374 2.276234 -2.026258 0
M  V30 77 C 4.611326 2.803843 -1.707716 0
M  V30 78 C 3.683079 3.311466 -2.630520 0
M  V30 79 C -3.008543 -4.246750 3.431296 0
M  V30 80 O -3.635124 -5.360991 3.355307 0
M  V30 81 N -3.758401 -3.135325 3.828037 0
M  V30 82 C -5.190887 -3.225720 4.141407 0 CFG=1
M  V30 83 C -5.503206 -2.936885 5.565982 0
M  V30 84 C -5.114638 -1.598675 6.057729 0
M  V30 85 O -4.531391 -0.607223 5.545872 0
M  V30 86 O -5.520325 -1.502888 7.380857 0
M  V30 87 C -5.980720 -2.454554 3.172557 0
M  V30 88 O -7.196032 -2.566791 3.582423 0
M  V30 89 N -5.726782 -1.693093 2.006314 0
M  V30 90 C -6.656387 -0.993696 1.178369 0 CFG=1
M  V30 91 C -6.303964 0.466741 1.139431 0
M  V30 92 C -6.329072 1.103289 2.466809 0
M  V30 93 O -6.594152 0.625904 3.594399 0
M  V30 94 O -6.015703 2.457522 2.558375 0
M  V30 95 C -6.776609 -1.611565 -0.172241 0
M  V30 96 O -6.170726 -2.661176 -0.510764 0
M  V30 97 N -7.627627 -0.960337 -1.102046 0
M  V30 98 C -8.095586 -1.105326 -2.461759 0 CFG=1
M  V30 99 C -9.603460 -1.138216 -2.445072 0
M  V30 100 C -10.176940 0.108018 -1.884509 0
M  V30 101 O -10.801881 0.995300 -2.569747 0
M  V30 102 O -10.567241 1.128790 -1.040888 0
M  V30 103 C -7.543391 -0.025365 -3.332553 0
M  V30 104 O -6.720028 0.654880 -2.679443 0
M  V30 105 N -7.830223 0.278652 -4.685485 0
M  V30 106 C -7.136018 1.392463 -5.268879 0 CFG=1
M  V30 107 C -6.650305 1.116716 -6.662149 0
M  V30 108 C -7.765195 0.817984 -7.600093 0
M  V30 109 O -8.533007 -0.157805 -7.759817 0
M  V30 110 O -8.607124 1.132649 -8.653575 0
M  V30 111 C -7.957689 2.646089 -5.208665 0
M  V30 112 O -9.137089 2.825732 -4.742384 0
M  V30 113 O -7.441774 3.834777 -5.708353 0
M  V30 114 H -1.198785 1.365205 -4.292055 0
M  V30 115 H -2.638404 0.840735 -5.246766 0
M  V30 116 H -1.039362 0.875958 -5.968794 0
M  V30 117 H -0.270685 -1.019617 -4.999016 0
M  V30 118 H -1.992328 -1.477927 -4.977209 0
M  V30 119 H -3.157371 1.268387 -2.983483 0
M  V30 120 H -2.553081 5.215974 -1.071260 0
M  V30 121 H -1.790867 2.463956 0.911219 0
M  V30 122 H -0.102502 0.579219 0.929137 0
M  V30 123 H 1.723412 -2.296877 -1.450223 0
M  V30 124 H 1.998669 0.555180 0.060744 0
M  V30 125 H 3.721479 -1.767087 -0.608056 0
M  V30 126 H 4.150749 0.912795 0.906792 0
M  V30 127 H 5.749564 -1.371862 0.144161 0
M  V30 128 H 6.980271 3.301472 2.023740 0
M  V30 129 H 5.435638 2.433995 1.871888 0
M  V30 130 H 6.902478 1.575637 4.306168 0
M  V30 131 H 6.549522 3.341873 4.215606 0
M  V30 132 H 5.214557 2.067495 4.057947 0
M  V30 133 H 9.007856 2.862350 3.463879 0
M  V30 134 H 11.325023 2.096892 3.997385 0
M  V30 135 H 10.645681 -1.459509 1.820429 0
M  V30 136 H 8.896655 -2.490882 1.749418 0
M  V30 137 H 7.419687 -2.775991 0.747486 0
M  V30 138 H 7.313345 -2.116581 2.473914 0
M  V30 139 H 9.135248 -1.507073 -0.633232 0
M  V30 140 H 7.635319 -0.448054 -0.972380 0
M  V30 141 H 9.164732 0.257544 -0.468560 0
M  V30 142 H -1.794637 -2.862736 -0.424231 0
M  V30 143 H -2.792685 -2.959133 -1.966368 0
M  V30 144 H -2.551550 -1.398759 -1.072988 0
M  V30 145 H 0.888795 -2.826213 -3.121016 0
M  V30 146 H -0.596334 -3.625878 -3.622065 0
M  V30 147 H -1.009881 -4.671345 -1.617892 0
M  V30 148 H 0.147675 -3.753041 -0.611462 0
M  V30 149 H 2.069938 -4.888007 -1.768093 0
M  V30 150 H 0.951774 -5.757144 -2.816098 0
M  V30 151 H 2.521651 -6.969921 -0.081413 0
M  V30 152 H 0.970439 -8.655011 1.590702 0
M  V30 153 H -0.104018 -8.403628 0.231900 0
M  V30 154 H -1.232097 -6.579539 1.300936 0
M  V30 155 H -1.041922 -7.969976 2.319831 0
M  V30 156 H 0.922692 -5.720157 2.930167 0
M  V30 157 H 0.446805 -7.184029 3.794496 0
M  V30 158 H -1.876175 -6.536861 3.866882 0
M  V30 159 H -0.821527 -5.507660 4.859408 0
M  V30 160 H -1.641040 -4.932748 1.980477 0
M  V30 161 H -1.253186 -3.007773 3.841190 0
M  V30 162 H 0.107699 -1.438156 4.550415 0
M  V30 163 H -0.151978 -0.515960 3.072242 0
M  V30 164 H 2.425052 -0.976093 2.650942 0
M  V30 165 H 2.468218 -1.618929 4.301337 0
M  V30 166 H 3.235804 0.620593 4.371699 0
M  V30 167 H 1.676612 0.492972 5.239860 0
M  V30 168 H 0.468337 1.333340 3.311490 0
M  V30 169 H 2.056921 1.393330 2.395772 0
M  V30 170 H 2.634685 3.383444 4.038248 0
M  V30 171 H 0.970550 3.117023 4.623922 0
M  V30 172 H 0.044142 3.431596 2.370125 0
M  V30 173 H 1.093711 4.791039 2.809119 0
M  V30 174 H 2.367777 2.565353 1.110322 0
M  V30 175 H 2.918511 4.181704 1.476286 0
M  V30 176 H 0.403629 3.700823 -0.158427 0
M  V30 177 H 1.355707 5.203346 0.158243 0
M  V30 178 H 0.218678 5.117168 -5.273064 0
M  V30 179 H -1.351726 5.026154 -8.281263 0
M  V30 180 H 3.087632 3.994526 -8.293003 0
M  V30 181 H 4.603507 3.211015 -6.622866 0
M  V30 182 H 5.764588 2.607299 -5.254260 0
M  V30 183 H 6.455028 1.921336 -1.207593 0
M  V30 184 H 4.331409 2.836222 -0.637037 0
M  V30 185 H -3.158431 -2.283482 3.865376 0
M  V30 186 H -5.499496 -4.312266 3.988562 0
M  V30 187 H -5.165624 -3.748855 6.224207 0
M  V30 188 H -6.625757 -2.966625 5.635591 0
M  V30 189 H -5.457677 -0.682507 7.967308 0
M  V30 190 H -4.688372 -1.735660 1.855317 0
M  V30 191 H -7.669785 -1.069732 1.682145 0
M  V30 192 H -7.119611 0.964865 0.556041 0
M  V30 193 H -5.336407 0.610895 0.587195 0
M  V30 194 H -6.427023 3.115419 3.192914 0
M  V30 195 H -8.114444 -0.080720 -0.803769 0
M  V30 196 H -7.716459 -2.109323 -2.805288 0
M  V30 197 H -9.928037 -1.136723 -3.531782 0
M  V30 198 H -9.952169 -2.041277 -1.937738 0
M  V30 199 H -9.938308 1.579448 -0.377808 0
M  V30 200 H -8.544753 -0.404542 -5.051721 0
M  V30 201 H -6.256562 1.616495 -4.626159 0
M  V30 202 H -6.047458 0.175565 -6.599139 0
M  V30 203 H -5.977886 1.878847 -7.081713 0
M  V30 204 H -8.970215 2.060769 -8.832303 0
M  V30 205 H -7.686663 4.736695 -5.265582 0
M  V30 END ATOM
M  V30 BEGIN BOND
M  V30 1 1 1 2
M  V30 2 1 2 3
M  V30 3 1 3 4
M  V30 4 2 4 5
M  V30 5 1 5 6
M  V30 6 1 6 7
M  V30 7 2 7 8
M  V30 8 2 7 9
M  V30 9 1 7 10
M  V30 10 2 6 11
M  V30 11 1 11 12
M  V30 12 2 12 13
M  V30 13 1 13 14
M  V30 14 2 14 15
M  V30 15 1 15 16
M  V30 16 2 16 17
M  V30 17 1 17 18
M  V30 18 2 18 19
M  V30 19 1 19 20
M  V30 20 2 20 21
M  V30 21 1 21 22
M  V30 22 1 22 23
M  V30 23 1 21 24
M  V30 24 2 24 25
M  V30 25 1 25 26
M  V30 26 2 26 27
M  V30 27 1 27 28
M  V30 28 2 28 29
M  V30 29 2 28 30
M  V30 30 1 28 31
M  V30 31 1 27 32
M  V30 32 2 32 33
M  V30 33 1 33 34
M  V30 34 1 34 35
M  V30 35 1 34 36
M  V30 36 1 14 37
M  V30 37 1 37 38
M  V30 38 1 37 39
M  V30 39 1 39 40
M  V30 40 1 40 41
M  V30 41 1 41 42
M  V30 42 2 42 43
M  V30 43 1 42 44
M  V30 44 1 44 45
M  V30 45 1 45 46
M  V30 46 1 46 47
M  V30 47 1 47 48
M  V30 48 1 48 49
M  V30 49 1 49 50
M  V30 50 1 50 51
M  V30 51 2 51 52
M  V30 52 1 51 53
M  V30 53 1 53 54
M  V30 54 1 54 55
M  V30 55 1 55 56
M  V30 56 1 56 57
M  V30 57 1 57 58
M  V30 58 1 58 59
M  V30 59 1 59 60
M  V30 60 1 60 61
M  V30 61 1 61 62
M  V30 62 2 62 63
M  V30 63 1 63 64
M  V30 64 2 64 65
M  V30 65 1 65 66
M  V30 66 1 66 67
M  V30 67 2 67 68
M  V30 68 1 67 69
M  V30 69 2 66 70
M  V30 70 1 70 71
M  V30 71 2 71 72
M  V30 72 1 72 73
M  V30 73 2 73 74
M  V30 74 1 74 75
M  V30 75 2 75 76
M  V30 76 1 76 77
M  V30 77 2 77 78
M  V30 78 1 49 79
M  V30 79 2 79 80
M  V30 80 1 79 81
M  V30 81 1 81 82
M  V30 82 1 82 83
M  V30 83 1 83 84
M  V30 84 2 84 85
M  V30 85 1 84 86
M  V30 86 1 82 87
M  V30 87 2 87 88
M  V30 88 1 87 89
M  V30 89 1 89 90
M  V30 90 1 90 91
M  V30 91 1 91 92
M  V30 92 2 92 93
M  V30 93 1 92 94
M  V30 94 1 90 95
M  V30 95 2 95 96
M  V30 96 1 95 97
M  V30 97 1 97 98
M  V30 98 1 98 99
M  V30 99 1 99 100
M  V30 100 2 100 101
M  V30 101 1 100 102
M  V30 102 1 98 103
M  V30 103 2 103 104
M  V30 104 1 103 105
M  V30 105 1 105 106
M  V30 106 1 106 107
M  V30 107 1 107 108
M  V30 108 2 108 109
M  V30 109 1 108 110
M  V30 110 1 106 111
M  V30 111 2 111 112
M  V30 112 1 111 113
M  V30 113 1 37 3
M  V30 114 1 78 62
M  V30 115 1 13 4
M  V30 116 1 34 20
M  V30 117 1 72 64
M  V30 118 1 78 73
M  V30 119 1 33 24
M  V30 120 1 1 114
M  V30 121 1 1 115
M  V30 122 1 1 116
M  V30 123 1 2 117
M  V30 124 1 2 118
M  V30 125 1 5 119
M  V30 126 1 10 120
M  V30 127 1 11 121
M  V30 128 1 12 122
M  V30 129 1 15 123
M  V30 130 1 16 124
M  V30 131 1 17 125
M  V30 132 1 18 126
M  V30 133 1 19 127
M  V30 134 1 22 128
M  V30 135 1 22 129
M  V30 136 1 23 130
M  V30 137 1 23 131
M  V30 138 1 23 132
M  V30 139 1 25 133
M  V30 140 1 26 134
M  V30 141 1 32 135
M  V30 142 1 35 136
M  V30 143 1 35 137
M  V30 144 1 35 138
M  V30 145 1 36 139
M  V30 146 1 36 140
M  V30 147 1 36 141
M  V30 148 1 38 142
M  V30 149 1 38 143
M  V30 150 1 38 144
M  V30 151 1 39 145
M  V30 152 1 39 146
M  V30 153 1 40 147
M  V30 154 1 40 148
M  V30 155 1 41 149
M  V30 156 1 41 150
M  V30 157 1 44 151
M  V30 158 1 45 152
M  V30 159 1 45 153
M  V30 160 1 46 154
M  V30 161 1 46 155
M  V30 162 1 47 156
M  V30 163 1 47 157
M  V30 164 1 48 158
M  V30 165 1 48 159
M  V30 166 1 49 160 CFG=3
M  V30 167 1 50 161
M  V30 168 1 53 162
M  V30 169 1 53 163
M  V30 170 1 54 164
M  V30 171 1 54 165
M  V30 172 1 55 166
M  V30 173 1 55 167
M  V30 174 1 56 168
M  V30 175 1 56 169
M  V30 176 1 57 170
M  V30 177 1 57 171
M  V30 178 1 58 172
M  V30 179 1 58 173
M  V30 180 1 59 174
M  V30 181 1 59 175
M  V30 182 1 60 176
M  V30 183 1 60 177
M  V30 184 1 65 178
M  V30 185 1 69 179
M  V30 186 1 70 180
M  V30 187 1 71 181
M  V30 188 1 74 182
M  V30 189 1 76 183
M  V30 190 1 77 184
M  V30 191 1 81 185
M  V30 192 1 82 186 CFG=3
M  V30 193 1 83 187
M  V30 194 1 83 188
M  V30 195 1 86 189
M  V30 196 1 89 190
M  V30 197 1 90 191 CFG=1
M  V30 198 1 91 192
M  V30 199 1 91 193
M  V30 200 1 94 194
M  V30 201 1 97 195
M  V30 202 1 98 196 CFG=3
M  V30 203 1 99 197
M  V30 204 1 99 198
M  V30 205 1 102 199
M  V30 206 1 105 200
M  V30 207 1 106 201 CFG=1
M  V30 208 1 107 202
M  V30 209 1 107 203
M  V30 210 1 110 204
M  V30 211 1 113 205
M  V30 END BOND
M  V30 END CTAB
M  END
>  <Dataset>  (215) 
ChEMBL_Kinases

>  <Ligand_Instance>  (215) 
nan

>  <PDB_ID>  (215) 
nan

>  <Standardized_SMILES>  (215) 
CCN1c2cc(S(=O)(=O)O)ccc2/C(=C\C=C\C=C\C2=[N+](CC)c3ccc(S(=O)(=O)[O-])cc3C2(C)C)C1(C)CCCC(=O)NCCCC[C@H](NC(=O)CCCCCCCCOc1nc2cc(C(=O)O)ccc2c2cnccc12)C(=O)N[C@@H](CC(=O)O)C(=O)N[C@@H](CC(=O)O)C(=O)N[C@@H](CC(=O)O)C(=O)N[C@@H](CC(=O)O)C(=O)O

>  <Name>  (215) 
nan

>  <Pocket>  (215) 
nan

>  <ATP_Site>  (215) 
nan

>  <Peripheral>  (215) 
nan

>  <Num_H_Atoms_ProtBoundConf>  (215) 
nan

>  <Num_Resolved_Atoms>  (215) 
nan

>  <Num_Not_Resolved_Atoms>  (215) 
nan

$$$$
CHEMBL4076186
     RDKit          3D

  0  0  0  0  0  0  0  0  0  0999 V3000
M  V30 BEGIN CTAB
M  V30 COUNTS 50 53 0 0 0
M  V30 BEGIN ATOM
M  V30 1 C 0.280035 -3.938569 1.011090 0
M  V30 2 O 0.589110 -2.888119 0.111955 0
M  V30 3 C 1.875945 -2.315326 0.104860 0
M  V30 4 C 2.850306 -2.750985 0.954143 0
M  V30 5 C 4.109962 -2.158895 0.916729 0
M  V30 6 F 5.097257 -2.572933 1.749924 0
M  V30 7 C 4.394540 -1.139110 0.037353 0
M  V30 8 C 3.361426 -0.759766 -0.782162 0
M  V30 9 C 2.071950 -1.299742 -0.808750 0
M  V30 10 C 1.069012 -0.767636 -1.767832 0
M  V30 11 C 0.279400 0.336298 -1.179693 0
M  V30 12 N -1.149298 0.070318 -1.044143 0
M  V30 13 C -1.699107 0.226509 0.256457 0
M  V30 14 N -0.810778 0.634264 1.179048 0
M  V30 15 C -1.097467 0.847125 2.476781 0
M  V30 16 C -0.106359 1.288824 3.448494 0
M  V30 17 C 1.205623 1.520295 3.097744 0
M  V30 18 C 2.051219 1.939792 4.128046 0
M  V30 19 N 1.644528 2.116821 5.392260 0
M  V30 20 C 0.342850 1.878564 5.700026 0
M  V30 21 N -0.501927 1.470206 4.721003 0
M  V30 22 C -2.401974 0.617773 2.833917 0
M  V30 23 C -3.348450 0.201555 1.936758 0
M  V30 24 O -4.544599 -0.009393 2.261301 0
M  V30 25 N -2.957911 0.019904 0.670293 0
M  V30 26 C -3.905874 -0.418553 -0.312438 0
M  V30 27 C -1.548446 -0.284138 -2.359665 0
M  V30 28 C -0.971484 -1.612907 -2.759237 0
M  V30 29 N 0.337738 -1.866220 -2.289160 0
M  V30 30 H 0.193504 -3.554188 2.048634 0
M  V30 31 H -0.689320 -4.347698 0.719674 0
M  V30 32 H 1.050075 -4.745001 1.025073 0
M  V30 33 H 2.619490 -3.559584 1.649209 0
M  V30 34 H 5.349036 -0.637791 -0.043285 0
M  V30 35 H 3.549898 0.049650 -1.495778 0
M  V30 36 H 1.652561 -0.339484 -2.618983 0
M  V30 37 H 0.722563 0.611446 -0.200721 0
M  V30 38 H 0.349875 1.289972 -1.777809 0
M  V30 39 H 1.542935 1.380259 2.080561 0
M  V30 40 H 3.110350 2.140138 3.907170 0
M  V30 41 H -0.063414 1.999914 6.703451 0
M  V30 42 H -2.717217 0.763355 3.850386 0
M  V30 43 H -3.680431 -1.398087 -0.776328 0
M  V30 44 H -4.200151 0.382801 -1.018771 0
M  V30 45 H -4.878659 -0.624691 0.241252 0
M  V30 46 H -1.180638 0.462044 -3.122945 0
M  V30 47 H -2.630247 -0.345226 -2.561638 0
M  V30 48 H -1.651443 -2.409190 -2.398901 0
M  V30 49 H -0.979952 -1.660453 -3.866831 0
M  V30 50 H 0.915476 -2.485580 -2.859257 0
M  V30 END ATOM
M  V30 BEGIN BOND
M  V30 1 1 1 2
M  V30 2 1 2 3
M  V30 3 2 3 4
M  V30 4 1 4 5
M  V30 5 1 5 6
M  V30 6 2 5 7
M  V30 7 1 7 8
M  V30 8 2 8 9
M  V30 9 1 9 10
M  V30 10 1 10 11
M  V30 11 1 11 12
M  V30 12 1 12 13
M  V30 13 2 13 14
M  V30 14 1 14 15
M  V30 15 1 15 16
M  V30 16 2 16 17
M  V30 17 1 17 18
M  V30 18 2 18 19
M  V30 19 1 19 20
M  V30 20 2 20 21
M  V30 21 2 15 22
M  V30 22 1 22 23
M  V30 23 2 23 24
M  V30 24 1 23 25
M  V30 25 1 25 26
M  V30 26 1 12 27
M  V30 27 1 27 28
M  V30 28 1 28 29
M  V30 29 1 9 3
M  V30 30 1 29 10
M  V30 31 1 25 13
M  V30 32 1 21 16
M  V30 33 1 1 30
M  V30 34 1 1 31
M  V30 35 1 1 32
M  V30 36 1 4 33
M  V30 37 1 7 34
M  V30 38 1 8 35
M  V30 39 1 10 36
M  V30 40 1 11 37
M  V30 41 1 11 38
M  V30 42 1 17 39
M  V30 43 1 18 40
M  V30 44 1 20 41
M  V30 45 1 22 42
M  V30 46 1 26 43
M  V30 47 1 26 44
M  V30 48 1 26 45
M  V30 49 1 27 46
M  V30 50 1 27 47
M  V30 51 1 28 48
M  V30 52 1 28 49
M  V30 53 1 29 50
M  V30 END BOND
M  V30 END CTAB
M  END
>  <Dataset>  (216) 
ChEMBL_Kinases

>  <Ligand_Instance>  (216) 
nan

>  <PDB_ID>  (216) 
nan

>  <Standardized_SMILES>  (216) 
COc1cc(F)ccc1C1CN(c2nc(-c3ccncn3)cc(=O)n2C)CCN1

>  <Name>  (216) 
nan

>  <Pocket>  (216) 
nan

>  <ATP_Site>  (216) 
nan

>  <Peripheral>  (216) 
nan

>  <Num_H_Atoms_ProtBoundConf>  (216) 
nan

>  <Num_Resolved_Atoms>  (216) 
nan

>  <Num_Not_Resolved_Atoms>  (216) 
nan

$$$$
CHEMBL4856623
     RDKit          3D

  0  0  0  0  0  0  0  0  0  0999 V3000
M  V30 BEGIN CTAB
M  V30 COUNTS 40 42 0 0 0
M  V30 BEGIN ATOM
M  V30 1 O 0.079234 -1.178505 1.537259 0
M  V30 2 C 0.898477 -1.947993 2.144589 0
M  V30 3 N 2.206619 -1.438774 2.299052 0
M  V30 4 C 2.435339 -0.121845 1.750014 0
M  V30 5 C 2.252513 1.041942 2.469071 0
M  V30 6 C 2.488342 2.272411 1.886874 0
M  V30 7 C 2.907676 2.256401 0.573041 0
M  V30 8 O 3.177323 3.434242 -0.121606 0
M  V30 9 C 2.207126 4.107177 -0.848050 0
M  V30 10 C 0.930200 3.569809 -0.869402 0
M  V30 11 C -0.170100 4.107820 -1.545360 0
M  V30 12 N 0.079595 5.243307 -2.218029 0
M  V30 13 C 1.314588 5.788509 -2.214115 0
M  V30 14 N 2.374475 5.246667 -1.547488 0
M  V30 15 C 3.098394 1.106265 -0.168978 0
M  V30 16 C 2.857167 -0.127672 0.429665 0
M  V30 17 N 0.377158 -3.202853 2.576523 0
M  V30 18 C -1.005445 -3.493078 2.296937 0
M  V30 19 C -2.107571 -3.219474 3.080515 0
M  V30 20 C -3.352163 -3.588435 2.614146 0
M  V30 21 C -3.487450 -4.216364 1.391822 0
M  V30 22 C -2.397284 -4.491954 0.606870 0
M  V30 23 C -2.592481 -5.172405 -0.707209 0
M  V30 24 F -1.571774 -6.030997 -1.009326 0
M  V30 25 F -3.791611 -5.857609 -0.664073 0
M  V30 26 F -2.734946 -4.179244 -1.670904 0
M  V30 27 C -1.139014 -4.128189 1.059925 0
M  V30 28 H 2.863151 -2.100300 2.806812 0
M  V30 29 H 1.923261 0.970276 3.490019 0
M  V30 30 H 2.356315 3.196189 2.416676 0
M  V30 31 H 0.741577 2.646629 -0.318287 0
M  V30 32 H -1.121118 3.604811 -1.493740 0
M  V30 33 H 1.468059 6.707993 -2.773110 0
M  V30 34 H 3.427439 1.116340 -1.197060 0
M  V30 35 H 3.004875 -1.016196 -0.144737 0
M  V30 36 H 1.068907 -3.804685 3.066868 0
M  V30 37 H -1.866944 -2.728678 4.006748 0
M  V30 38 H -4.186843 -3.350361 3.269102 0
M  V30 39 H -4.473443 -4.489515 1.060518 0
M  V30 40 H -0.336145 -4.380109 0.384257 0
M  V30 END ATOM
M  V30 BEGIN BOND
M  V30 1 2 1 2
M  V30 2 1 2 3
M  V30 3 1 3 4
M  V30 4 2 4 5
M  V30 5 1 5 6
M  V30 6 2 6 7
M  V30 7 1 7 8
M  V30 8 1 8 9
M  V30 9 2 9 10
M  V30 10 1 10 11
M  V30 11 2 11 12
M  V30 12 1 12 13
M  V30 13 2 13 14
M  V30 14 1 7 15
M  V30 15 2 15 16
M  V30 16 1 2 17
M  V30 17 1 17 18
M  V30 18 2 18 19
M  V30 19 1 19 20
M  V30 20 2 20 21
M  V30 21 1 21 22
M  V30 22 1 22 23
M  V30 23 1 23 24
M  V30 24 1 23 25
M  V30 25 1 23 26
M  V30 26 2 22 27
M  V30 27 1 16 4
M  V30 28 1 27 18
M  V30 29 1 14 9
M  V30 30 1 3 28
M  V30 31 1 5 29
M  V30 32 1 6 30
M  V30 33 1 10 31
M  V30 34 1 11 32
M  V30 35 1 13 33
M  V30 36 1 15 34
M  V30 37 1 16 35
M  V30 38 1 17 36
M  V30 39 1 19 37
M  V30 40 1 20 38
M  V30 41 1 21 39
M  V30 42 1 27 40
M  V30 END BOND
M  V30 END CTAB
M  END
>  <Dataset>  (217) 
ChEMBL_Kinases

>  <Ligand_Instance>  (217) 
nan

>  <PDB_ID>  (217) 
nan

>  <Standardized_SMILES>  (217) 
O=C(Nc1ccc(Oc2ccncn2)cc1)Nc1cccc(C(F)(F)F)c1

>  <Name>  (217) 
nan

>  <Pocket>  (217) 
nan

>  <ATP_Site>  (217) 
nan

>  <Peripheral>  (217) 
nan

>  <Num_H_Atoms_ProtBoundConf>  (217) 
nan

>  <Num_Resolved_Atoms>  (217) 
nan

>  <Num_Not_Resolved_Atoms>  (217) 
nan

$$$$
CHEMBL4076170
     RDKit          3D

  0  0  0  0  0  0  0  0  0  0999 V3000
M  V30 BEGIN CTAB
M  V30 COUNTS 55 59 0 0 0
M  V30 BEGIN ATOM
M  V30 1 N 7.936733 -2.848117 2.745323 0
M  V30 2 C 7.206196 -1.725867 2.265683 0
M  V30 3 O 7.919094 -0.844096 1.732209 0
M  V30 4 C 5.771068 -1.625534 2.389510 0
M  V30 5 C 4.998057 -2.607703 2.980734 0
M  V30 6 C 3.623841 -2.503793 3.095456 0
M  V30 7 C 3.008884 -1.367235 2.595089 0
M  V30 8 C 3.781136 -0.386841 2.004847 0
M  V30 9 C 5.161625 -0.490380 1.889173 0
M  V30 10 C 3.333337 0.892504 1.411737 0
M  V30 11 O 4.173718 1.753384 1.111738 0
M  V30 12 C 1.941759 1.235396 1.142388 0
M  V30 13 C 1.748742 2.566680 0.840686 0
M  V30 14 C 0.498543 3.067783 0.558960 0
M  V30 15 C -0.624080 2.270766 0.562715 0
M  V30 16 N -1.904194 2.811514 0.285689 0
M  V30 17 C -3.111731 2.225143 -0.168264 0
M  V30 18 C -4.326563 2.830332 0.064164 0
M  V30 19 C -5.506383 2.282927 -0.382711 0
M  V30 20 C -5.537298 1.098945 -1.087506 0
M  V30 21 F -6.698054 0.556394 -1.529180 0
M  V30 22 C -4.343529 0.458338 -1.343445 0
M  V30 23 N -4.350341 -0.765457 -2.069350 0
M  V30 24 C -4.463280 -1.964851 -1.354089 0
M  V30 25 O -4.547486 -1.799661 -0.113509 0
M  V30 26 C -4.472181 -3.227717 -2.077714 0
M  V30 27 C -4.572195 -4.471429 -1.565853 0
M  V30 28 C -4.562043 -5.544022 -2.418592 0
M  V30 29 C -4.449071 -5.278316 -3.757442 0
M  V30 30 S -4.350455 -3.397243 -3.824672 0
M  V30 31 C -3.188065 1.046048 -0.875446 0
M  V30 32 C -0.400870 0.944974 0.868074 0
M  V30 33 C 0.837335 0.408803 1.155096 0
M  V30 34 C 0.830435 -1.046565 1.453771 0
M  V30 35 C 1.531242 -1.341703 2.762377 0
M  V30 36 H 8.511058 -3.602930 2.277581 0
M  V30 37 H 7.863803 -2.900871 3.789865 0
M  V30 38 H 5.482473 -3.510854 3.378871 0
M  V30 39 H 3.017708 -3.271887 3.558012 0
M  V30 40 H 5.737265 0.287501 1.425391 0
M  V30 41 H 2.609381 3.224003 0.828217 0
M  V30 42 H 0.394599 4.113799 0.328748 0
M  V30 43 H -1.972871 3.858263 0.449631 0
M  V30 44 H -4.311231 3.773420 0.624572 0
M  V30 45 H -6.442524 2.816029 -0.163994 0
M  V30 46 H -4.271553 -0.764924 -3.126511 0
M  V30 47 H -4.660989 -4.625392 -0.477067 0
M  V30 48 H -4.635273 -6.584907 -2.130860 0
M  V30 49 H -4.418389 -5.942494 -4.612904 0
M  V30 50 H -2.296234 0.490440 -1.126000 0
M  V30 51 H -1.190565 0.238712 0.912156 0
M  V30 52 H -0.224652 -1.403230 1.500588 0
M  V30 53 H 1.404380 -1.620375 0.670296 0
M  V30 54 H 1.150661 -2.263560 3.215766 0
M  V30 55 H 1.304106 -0.465078 3.437244 0
M  V30 END ATOM
M  V30 BEGIN BOND
M  V30 1 1 1 2
M  V30 2 2 2 3
M  V30 3 1 2 4
M  V30 4 2 4 5
M  V30 5 1 5 6
M  V30 6 2 6 7
M  V30 7 1 7 8
M  V30 8 2 8 9
M  V30 9 1 8 10
M  V30 10 2 10 11
M  V30 11 1 10 12
M  V30 12 2 12 13
M  V30 13 1 13 14
M  V30 14 2 14 15
M  V30 15 1 15 16
M  V30 16 1 16 17
M  V30 17 2 17 18
M  V30 18 1 18 19
M  V30 19 2 19 20
M  V30 20 1 20 21
M  V30 21 1 20 22
M  V30 22 1 22 23
M  V30 23 1 23 24
M  V30 24 2 24 25
M  V30 25 1 24 26
M  V30 26 2 26 27
M  V30 27 1 27 28
M  V30 28 2 28 29
M  V30 29 1 29 30
M  V30 30 2 22 31
M  V30 31 1 15 32
M  V30 32 2 32 33
M  V30 33 1 33 34
M  V30 34 1 34 35
M  V30 35 1 9 4
M  V30 36 1 33 12
M  V30 37 1 35 7
M  V30 38 1 31 17
M  V30 39 1 30 26
M  V30 40 1 1 36
M  V30 41 1 1 37
M  V30 42 1 5 38
M  V30 43 1 6 39
M  V30 44 1 9 40
M  V30 45 1 13 41
M  V30 46 1 14 42
M  V30 47 1 16 43
M  V30 48 1 18 44
M  V30 49 1 19 45
M  V30 50 1 23 46
M  V30 51 1 27 47
M  V30 52 1 28 48
M  V30 53 1 29 49
M  V30 54 1 31 50
M  V30 55 1 32 51
M  V30 56 1 34 52
M  V30 57 1 34 53
M  V30 58 1 35 54
M  V30 59 1 35 55
M  V30 END BOND
M  V30 END CTAB
M  END
>  <Dataset>  (218) 
ChEMBL_Kinases

>  <Ligand_Instance>  (218) 
nan

>  <PDB_ID>  (218) 
nan

>  <Standardized_SMILES>  (218) 
NC(=O)c1ccc2c(c1)C(=O)c1ccc(Nc3ccc(F)c(NC(=O)c4cccs4)c3)cc1CC2

>  <Name>  (218) 
nan

>  <Pocket>  (218) 
nan

>  <ATP_Site>  (218) 
nan

>  <Peripheral>  (218) 
nan

>  <Num_H_Atoms_ProtBoundConf>  (218) 
nan

>  <Num_Resolved_Atoms>  (218) 
nan

>  <Num_Not_Resolved_Atoms>  (218) 
nan

$$$$
CHEMBL4076131
     RDKit          3D

  0  0  0  0  0  0  0  0  0  0999 V3000
M  V30 BEGIN CTAB
M  V30 COUNTS 63 67 0 0 0
M  V30 BEGIN ATOM
M  V30 1 O 3.238016 0.263254 0.150671 0
M  V30 2 C 2.366912 0.806733 0.889964 0
M  V30 3 N 3.030780 1.399962 1.993943 0
M  V30 4 C 4.466100 1.208670 1.944575 0
M  V30 5 C 5.086055 1.865417 3.156411 0
M  V30 6 C 4.821727 3.323267 3.226177 0
M  V30 7 C 5.752780 4.162010 2.603700 0
M  V30 8 C 5.642509 5.535400 2.584164 0
M  V30 9 C 4.548998 6.120196 3.215949 0
M  V30 10 C 3.643931 5.276456 3.822636 0
M  V30 11 N 3.776445 3.919537 3.827538 0
M  V30 12 C 0.946997 0.804020 0.626039 0
M  V30 13 C 0.578664 0.090819 -0.516429 0
M  V30 14 C -0.738106 -0.017401 -0.904125 0
M  V30 15 C -1.095469 -0.783717 -2.122543 0 CFG=2
M  V30 16 C -1.975403 -0.046874 -3.080771 0
M  V30 17 C -2.023347 -0.889503 -4.349830 0
M  V30 18 N -1.496552 -2.202980 -4.143222 0
M  V30 19 C -1.978587 -2.878002 -2.980977 0
M  V30 20 C -1.856353 -2.068618 -1.732448 0 CFG=1
M  V30 21 C -1.151934 -2.753512 -0.617110 0
M  V30 22 O -1.674329 -3.920616 -0.129421 0
M  V30 23 C -2.850910 -4.236988 0.453848 0
M  V30 24 C -3.986974 -3.539289 0.797971 0
M  V30 25 C -5.077480 -4.126113 1.401361 0
M  V30 26 C -5.051503 -5.484001 1.685146 0
M  V30 27 C -3.943287 -6.236529 1.365220 0
M  V30 28 C -2.851749 -5.607397 0.752120 0
M  V30 29 O -4.276514 -7.513514 1.788483 0
M  V30 30 C -5.700008 -7.646691 1.884196 0
M  V30 31 O -6.018020 -6.304710 2.285013 0
M  V30 32 C -1.776553 0.560021 -0.206043 0
M  V30 33 C -1.419865 1.265331 0.922428 0
M  V30 34 C -0.104872 1.371794 1.306964 0
M  V30 35 F 0.257358 2.061403 2.410080 0
M  V30 36 H 2.464873 1.899111 2.713628 0
M  V30 37 H 4.915279 1.653072 1.026289 0
M  V30 38 H 4.692365 0.130615 2.015551 0
M  V30 39 H 6.182747 1.660100 3.155578 0
M  V30 40 H 4.635047 1.336006 4.044089 0
M  V30 41 H 6.619198 3.710221 2.102700 0
M  V30 42 H 6.418987 6.099873 2.073831 0
M  V30 43 H 4.489306 7.179438 3.185432 0
M  V30 44 H 2.789318 5.709206 4.317370 0
M  V30 45 H 1.313101 -0.413198 -1.155680 0
M  V30 46 H -0.203860 -1.149905 -2.681014 0
M  V30 47 H -1.651554 0.983170 -3.278798 0
M  V30 48 H -3.003844 0.013037 -2.661695 0
M  V30 49 H -3.053403 -0.935054 -4.775723 0
M  V30 50 H -1.356701 -0.385462 -5.080115 0
M  V30 51 H -0.513634 -2.351527 -4.383970 0
M  V30 52 H -3.055782 -3.126006 -3.195936 0
M  V30 53 H -1.422415 -3.849513 -2.924381 0
M  V30 54 H -2.862557 -1.737797 -1.440523 0
M  V30 55 H -1.073805 -1.995412 0.221261 0
M  V30 56 H -0.085726 -2.931642 -0.895630 0
M  V30 57 H -3.898822 -2.496163 0.537765 0
M  V30 58 H -5.915459 -3.481329 1.627131 0
M  V30 59 H -2.064319 -6.339423 0.568349 0
M  V30 60 H -5.997789 -8.397860 2.614131 0
M  V30 61 H -6.177948 -7.764578 0.885611 0
M  V30 62 H -2.802614 0.494069 -0.480485 0
M  V30 63 H -2.144913 1.776549 1.573852 0
M  V30 END ATOM
M  V30 BEGIN BOND
M  V30 1 2 1 2
M  V30 2 1 2 3
M  V30 3 1 3 4
M  V30 4 1 4 5
M  V30 5 1 5 6
M  V30 6 2 6 7
M  V30 7 1 7 8
M  V30 8 2 8 9
M  V30 9 1 9 10
M  V30 10 2 10 11
M  V30 11 1 2 12
M  V30 12 2 12 13
M  V30 13 1 13 14
M  V30 14 1 14 15
M  V30 15 1 15 16
M  V30 16 1 16 17
M  V30 17 1 17 18
M  V30 18 1 18 19
M  V30 19 1 19 20
M  V30 20 1 20 21
M  V30 21 1 21 22
M  V30 22 1 22 23
M  V30 23 2 23 24
M  V30 24 1 24 25
M  V30 25 2 25 26
M  V30 26 1 26 27
M  V30 27 2 27 28
M  V30 28 1 27 29
M  V30 29 1 29 30
M  V30 30 1 30 31
M  V30 31 2 14 32
M  V30 32 1 32 33
M  V30 33 2 33 34
M  V30 34 1 34 35
M  V30 35 1 11 6
M  V30 36 1 34 12
M  V30 37 1 20 15
M  V30 38 1 28 23
M  V30 39 1 31 26
M  V30 40 1 3 36
M  V30 41 1 4 37
M  V30 42 1 4 38
M  V30 43 1 5 39
M  V30 44 1 5 40
M  V30 45 1 7 41
M  V30 46 1 8 42
M  V30 47 1 9 43
M  V30 48 1 10 44
M  V30 49 1 13 45
M  V30 50 1 15 46 CFG=3
M  V30 51 1 16 47
M  V30 52 1 16 48
M  V30 53 1 17 49
M  V30 54 1 17 50
M  V30 55 1 18 51
M  V30 56 1 19 52
M  V30 57 1 19 53
M  V30 58 1 20 54 CFG=1
M  V30 59 1 21 55
M  V30 60 1 21 56
M  V30 61 1 24 57
M  V30 62 1 25 58
M  V30 63 1 28 59
M  V30 64 1 30 60
M  V30 65 1 30 61
M  V30 66 1 32 62
M  V30 67 1 33 63
M  V30 END BOND
M  V30 END CTAB
M  END
>  <Dataset>  (219) 
ChEMBL_Kinases

>  <Ligand_Instance>  (219) 
nan

>  <PDB_ID>  (219) 
nan

>  <Standardized_SMILES>  (219) 
O=C(NCCc1ccccn1)c1cc([C@@H]2CCNC[C@H]2COc2ccc3c(c2)OCO3)ccc1F

>  <Name>  (219) 
nan

>  <Pocket>  (219) 
nan

>  <ATP_Site>  (219) 
nan

>  <Peripheral>  (219) 
nan

>  <Num_H_Atoms_ProtBoundConf>  (219) 
nan

>  <Num_Resolved_Atoms>  (219) 
nan

>  <Num_Not_Resolved_Atoms>  (219) 
nan

$$$$
CHEMBL4076106
     RDKit          3D

  0  0  0  0  0  0  0  0  0  0999 V3000
M  V30 BEGIN CTAB
M  V30 COUNTS 60 62 0 0 0
M  V30 BEGIN ATOM
M  V30 1 C 5.395605 -1.947086 3.433567 0
M  V30 2 C 3.932250 -2.323970 3.575979 0
M  V30 3 N 3.033457 -1.407884 2.935674 0
M  V30 4 C 2.989560 -0.117454 3.568632 0
M  V30 5 C 2.381795 -0.085658 4.927023 0
M  V30 6 C 1.721074 -1.999322 2.925758 0
M  V30 7 C 0.681107 -1.134857 2.265431 0
M  V30 8 C 1.006249 -0.843294 0.823817 0
M  V30 9 C 1.101796 -2.096859 -0.003156 0
M  V30 10 N -0.141409 -2.840734 0.008577 0
M  V30 11 C -1.341932 -2.299479 -0.522460 0
M  V30 12 N -1.390294 -1.087444 -1.069512 0
M  V30 13 C -2.458368 -0.491902 -1.599463 0
M  V30 14 C -2.403723 0.838262 -2.173811 0
M  V30 15 C -1.414720 1.653076 -2.285941 0
M  V30 16 C -1.190813 2.975648 -2.813959 0
M  V30 17 C 0.087581 3.496928 -2.725799 0
M  V30 18 Cl 1.395092 2.574122 -1.990926 0
M  V30 19 C 0.432679 4.720369 -3.180055 0
M  V30 20 C -0.519982 5.518927 -3.769638 0
M  V30 21 Cl -0.087361 7.106819 -4.362331 0
M  V30 22 C -1.814775 5.076998 -3.897005 0
M  V30 23 C -2.087488 3.820544 -3.410175 0
M  V30 24 Cl -3.747470 3.321814 -3.601922 0
M  V30 25 N -3.612599 -1.175520 -1.585997 0
M  V30 26 C -3.705389 -2.412949 -1.063022 0
M  V30 27 C -4.905993 -3.085455 -1.065123 0
M  V30 28 C -4.972662 -4.351545 -0.521210 0
M  V30 29 C -3.824671 -4.934392 0.022899 0
M  V30 30 N -3.923852 -6.258255 0.583203 0
M  V30 31 C -2.653134 -4.207984 -0.006384 0
M  V30 32 C -2.549777 -2.959846 -0.532698 0
M  V30 33 H 5.943239 -2.668111 2.757672 0
M  V30 34 H 5.537372 -0.966216 2.953305 0
M  V30 35 H 5.930716 -2.027831 4.421267 0
M  V30 36 H 3.806564 -3.307094 3.070180 0
M  V30 37 H 3.674171 -2.516279 4.639439 0
M  V30 38 H 4.050486 0.218615 3.682533 0
M  V30 39 H 2.498137 0.642766 2.932184 0
M  V30 40 H 3.090365 -0.377194 5.736428 0
M  V30 41 H 1.400901 -0.578852 5.025133 0
M  V30 42 H 2.164757 1.001181 5.148118 0
M  V30 43 H 1.431426 -2.299454 3.947790 0
M  V30 44 H 1.736099 -2.966936 2.341644 0
M  V30 45 H 0.636959 -0.169676 2.803010 0
M  V30 46 H -0.328765 -1.566490 2.316139 0
M  V30 47 H 0.189687 -0.212300 0.427638 0
M  V30 48 H 1.924777 -0.225845 0.730252 0
M  V30 49 H 1.974339 -2.714370 0.243984 0
M  V30 50 H 1.280938 -1.753004 -1.066299 0
M  V30 51 H -0.055651 -3.783926 0.437265 0
M  V30 52 H -3.310761 1.246968 -2.582389 0
M  V30 53 H -0.558973 1.125551 -1.838905 0
M  V30 54 H 1.430860 5.120961 -3.107808 0
M  V30 55 H -2.553421 5.712537 -4.360910 0
M  V30 56 H -5.772664 -2.578294 -1.505026 0
M  V30 57 H -5.919008 -4.886153 -0.520422 0
M  V30 58 H -3.537496 -6.787662 -0.232500 0
M  V30 59 H -4.309817 -6.355264 1.547899 0
M  V30 60 H -1.810393 -4.714207 0.427273 0
M  V30 END ATOM
M  V30 BEGIN BOND
M  V30 1 1 1 2
M  V30 2 1 2 3
M  V30 3 1 3 4
M  V30 4 1 4 5
M  V30 5 1 3 6
M  V30 6 1 6 7
M  V30 7 1 7 8
M  V30 8 1 8 9
M  V30 9 1 9 10
M  V30 10 1 10 11
M  V30 11 2 11 12
M  V30 12 1 12 13
M  V30 13 1 13 14
M  V30 14 2 14 15
M  V30 15 1 15 16
M  V30 16 2 16 17
M  V30 17 1 17 18
M  V30 18 1 17 19
M  V30 19 2 19 20
M  V30 20 1 20 21
M  V30 21 1 20 22
M  V30 22 2 22 23
M  V30 23 1 23 24
M  V30 24 2 13 25
M  V30 25 1 25 26
M  V30 26 2 26 27
M  V30 27 1 27 28
M  V30 28 2 28 29
M  V30 29 1 29 30
M  V30 30 1 29 31
M  V30 31 2 31 32
M  V30 32 1 32 11
M  V30 33 1 23 16
M  V30 34 1 32 26
M  V30 35 1 1 33
M  V30 36 1 1 34
M  V30 37 1 1 35
M  V30 38 1 2 36
M  V30 39 1 2 37
M  V30 40 1 4 38
M  V30 41 1 4 39
M  V30 42 1 5 40
M  V30 43 1 5 41
M  V30 44 1 5 42
M  V30 45 1 6 43
M  V30 46 1 6 44
M  V30 47 1 7 45
M  V30 48 1 7 46
M  V30 49 1 8 47
M  V30 50 1 8 48
M  V30 51 1 9 49
M  V30 52 1 9 50
M  V30 53 1 10 51
M  V30 54 1 14 52
M  V30 55 1 15 53
M  V30 56 1 19 54
M  V30 57 1 22 55
M  V30 58 1 27 56
M  V30 59 1 28 57
M  V30 60 1 30 58
M  V30 61 1 30 59
M  V30 62 1 31 60
M  V30 END BOND
M  V30 END CTAB
M  END
>  <Dataset>  (220) 
ChEMBL_Kinases

>  <Ligand_Instance>  (220) 
nan

>  <PDB_ID>  (220) 
nan

>  <Standardized_SMILES>  (220) 
CCN(CC)CCCCNc1nc(/C=C/c2c(Cl)cc(Cl)cc2Cl)nc2ccc(N)cc12

>  <Name>  (220) 
nan

>  <Pocket>  (220) 
nan

>  <ATP_Site>  (220) 
nan

>  <Peripheral>  (220) 
nan

>  <Num_H_Atoms_ProtBoundConf>  (220) 
nan

>  <Num_Resolved_Atoms>  (220) 
nan

>  <Num_Not_Resolved_Atoms>  (220) 
nan

$$$$
CHEMBL4856762
     RDKit          3D

  0  0  0  0  0  0  0  0  0  0999 V3000
M  V30 BEGIN CTAB
M  V30 COUNTS 53 55 0 0 0
M  V30 BEGIN ATOM
M  V30 1 C 2.477592 -3.470924 3.806300 0
M  V30 2 C 1.661845 -3.533222 2.561420 0
M  V30 3 C 0.207162 -3.778738 2.986800 0
M  V30 4 C 1.744235 -2.263978 1.735709 0
M  V30 5 C 1.235398 -1.153542 2.605026 0
M  V30 6 N 1.243038 0.142575 1.961846 0
M  V30 7 C 2.328834 1.057556 1.995453 0
M  V30 8 O 3.355807 0.691800 2.640649 0
M  V30 9 O 2.340261 2.291250 1.385828 0
M  V30 10 C 1.271950 2.712247 0.562351 0
M  V30 11 C 1.869211 2.818002 -0.830109 0
M  V30 12 C 3.012042 3.834196 -0.804042 0
M  V30 13 C 0.913445 3.278249 -1.881851 0
M  V30 14 C 0.116723 1.822840 0.601916 0
M  V30 15 C -1.056381 2.125486 -0.007749 0
M  V30 16 N -2.135722 1.302179 -0.013274 0
M  V30 17 C -2.105636 0.100115 0.604987 0
M  V30 18 N -3.162896 -0.834460 0.658839 0
M  V30 19 C -3.367314 -1.898269 -0.249214 0
M  V30 20 C -2.459445 -2.070422 -1.276814 0
M  V30 21 C -2.697220 -3.122524 -2.136819 0
M  V30 22 C -3.791108 -3.976434 -1.990922 0
M  V30 23 O -3.997711 -5.025709 -2.876771 0
M  V30 24 C -4.677477 -3.755481 -0.933335 0
M  V30 25 C -4.468399 -2.701471 -0.044515 0
M  V30 26 N -0.965067 -0.239432 1.222184 0
M  V30 27 C 0.103991 0.587518 1.222655 0
M  V30 28 H 2.522812 -4.500895 4.232419 0
M  V30 29 H 1.963336 -2.863898 4.594259 0
M  V30 30 H 3.515825 -3.158710 3.661417 0
M  V30 31 H 1.927728 -4.439882 1.956379 0
M  V30 32 H -0.030450 -4.860414 3.041274 0
M  V30 33 H -0.485893 -3.295546 2.269704 0
M  V30 34 H 0.021129 -3.291332 3.965611 0
M  V30 35 H 1.249152 -2.394437 0.777675 0
M  V30 36 H 2.826735 -2.122279 1.509927 0
M  V30 37 H 1.951736 -1.068225 3.454737 0
M  V30 38 H 0.257699 -1.428338 3.051547 0
M  V30 39 H 0.976037 3.726759 0.885503 0
M  V30 40 H 2.235318 1.827054 -1.111165 0
M  V30 41 H 3.927557 3.264027 -0.593176 0
M  V30 42 H 2.748027 4.564532 0.010373 0
M  V30 43 H 3.045171 4.408342 -1.743044 0
M  V30 44 H 1.563642 3.530587 -2.780696 0
M  V30 45 H 0.407633 4.242290 -1.665370 0
M  V30 46 H 0.273020 2.471479 -2.233826 0
M  V30 47 H -1.267073 3.027053 -0.531936 0
M  V30 48 H -3.763912 -0.621733 1.462996 0
M  V30 49 H -1.603522 -1.423169 -1.412000 0
M  V30 50 H -2.037195 -3.340544 -2.978865 0
M  V30 51 H -4.939885 -5.250285 -3.223255 0
M  V30 52 H -5.536051 -4.411401 -0.803961 0
M  V30 53 H -5.159668 -2.544425 0.764529 0
M  V30 END ATOM
M  V30 BEGIN BOND
M  V30 1 1 1 2
M  V30 2 1 2 3
M  V30 3 1 2 4
M  V30 4 1 4 5
M  V30 5 1 5 6
M  V30 6 1 6 7
M  V30 7 2 7 8
M  V30 8 1 7 9
M  V30 9 1 9 10
M  V30 10 1 10 11
M  V30 11 1 11 12
M  V30 12 1 11 13
M  V30 13 1 10 14
M  V30 14 2 14 15
M  V30 15 1 15 16
M  V30 16 2 16 17
M  V30 17 1 17 18
M  V30 18 1 18 19
M  V30 19 2 19 20
M  V30 20 1 20 21
M  V30 21 2 21 22
M  V30 22 1 22 23
M  V30 23 1 22 24
M  V30 24 2 24 25
M  V30 25 1 17 26
M  V30 26 2 26 27
M  V30 27 1 27 6
M  V30 28 1 27 14
M  V30 29 1 25 19
M  V30 30 1 1 28
M  V30 31 1 1 29
M  V30 32 1 1 30
M  V30 33 1 2 31
M  V30 34 1 3 32
M  V30 35 1 3 33
M  V30 36 1 3 34
M  V30 37 1 4 35
M  V30 38 1 4 36
M  V30 39 1 5 37
M  V30 40 1 5 38
M  V30 41 1 10 39
M  V30 42 1 11 40
M  V30 43 1 12 41
M  V30 44 1 12 42
M  V30 45 1 12 43
M  V30 46 1 13 44
M  V30 47 1 13 45
M  V30 48 1 13 46
M  V30 49 1 15 47
M  V30 50 1 18 48
M  V30 51 1 20 49
M  V30 52 1 21 50
M  V30 53 1 23 51
M  V30 54 1 24 52
M  V30 55 1 25 53
M  V30 END BOND
M  V30 END CTAB
M  END
>  <Dataset>  (221) 
ChEMBL_Kinases

>  <Ligand_Instance>  (221) 
nan

>  <PDB_ID>  (221) 
nan

>  <Standardized_SMILES>  (221) 
CC(C)CCN1C(=O)OC(C(C)C)c2cnc(Nc3ccc(O)cc3)nc21

>  <Name>  (221) 
nan

>  <Pocket>  (221) 
nan

>  <ATP_Site>  (221) 
nan

>  <Peripheral>  (221) 
nan

>  <Num_H_Atoms_ProtBoundConf>  (221) 
nan

>  <Num_Resolved_Atoms>  (221) 
nan

>  <Num_Not_Resolved_Atoms>  (221) 
nan

$$$$
CHEMBL4076100
     RDKit          3D

  0  0  0  0  0  0  0  0  0  0999 V3000
M  V30 BEGIN CTAB
M  V30 COUNTS 42 44 0 0 0
M  V30 BEGIN ATOM
M  V30 1 C -0.081258 -6.900832 1.128925 0
M  V30 2 C 1.104894 -6.804330 0.223836 0
M  V30 3 O 1.116488 -5.698730 -0.631604 0
M  V30 4 C 1.108103 -4.389736 -0.183461 0
M  V30 5 C 1.088644 -3.818061 1.068712 0
M  V30 6 C 1.084503 -2.456054 1.263094 0
M  V30 7 C 1.101555 -1.642277 0.142491 0
M  V30 8 C 1.121880 -2.151464 -1.133863 0
M  V30 9 C 1.125173 -3.542647 -1.300740 0
M  V30 10 C 1.134387 -0.977931 -2.004593 0
M  V30 11 O 1.154619 -1.036727 -3.260962 0
M  V30 12 C 1.119639 0.233172 -1.159383 0
M  V30 13 C 1.126240 1.502210 -1.601107 0
M  V30 14 C 1.107397 2.598289 -0.613494 0
M  V30 15 C 1.824794 3.773870 -0.677189 0
M  V30 16 C 1.689212 4.708828 0.324819 0
M  V30 17 C 0.846975 4.532443 1.428868 0
M  V30 18 O 0.714039 5.477507 2.436089 0
M  V30 19 C 0.134058 3.356298 1.484803 0
M  V30 20 O -0.741136 3.080269 2.552723 0
M  V30 21 C -1.477511 1.878107 2.608819 0
M  V30 22 C -2.306087 1.905370 3.860865 0
M  V30 23 C 0.265261 2.409855 0.480094 0
M  V30 24 O 1.099925 -0.258544 0.137729 0
M  V30 25 H 0.224789 -6.789065 2.206180 0
M  V30 26 H -0.859914 -6.163258 0.929445 0
M  V30 27 H -0.536940 -7.934513 1.102338 0
M  V30 28 H 1.115791 -7.725513 -0.417730 0
M  V30 29 H 2.024277 -6.836065 0.856327 0
M  V30 30 H 1.078411 -4.589725 1.826539 0
M  V30 31 H 1.067979 -2.169278 2.302046 0
M  V30 32 H 1.141417 -3.799098 -2.360733 0
M  V30 33 H 1.144232 1.702439 -2.683014 0
M  V30 34 H 2.462601 3.887600 -1.531326 0
M  V30 35 H 2.263720 5.619392 0.247330 0
M  V30 36 H 0.954500 5.233966 3.410066 0
M  V30 37 H -0.781012 0.991698 2.668358 0
M  V30 38 H -2.076619 1.801573 1.679608 0
M  V30 39 H -3.247148 1.331682 3.771694 0
M  V30 40 H -2.571510 2.912581 4.187029 0
M  V30 41 H -1.672754 1.447433 4.676829 0
M  V30 42 H -0.328720 1.506720 0.585256 0
M  V30 END ATOM
M  V30 BEGIN BOND
M  V30 1 1 1 2
M  V30 2 1 2 3
M  V30 3 1 3 4
M  V30 4 2 4 5
M  V30 5 1 5 6
M  V30 6 2 6 7
M  V30 7 1 7 8
M  V30 8 2 8 9
M  V30 9 1 8 10
M  V30 10 2 10 11
M  V30 11 1 10 12
M  V30 12 2 12 13
M  V30 13 1 13 14
M  V30 14 2 14 15
M  V30 15 1 15 16
M  V30 16 2 16 17
M  V30 17 1 17 18
M  V30 18 1 17 19
M  V30 19 1 19 20
M  V30 20 1 20 21
M  V30 21 1 21 22
M  V30 22 2 19 23
M  V30 23 1 12 24
M  V30 24 1 9 4
M  V30 25 1 23 14
M  V30 26 1 24 7
M  V30 27 1 1 25
M  V30 28 1 1 26
M  V30 29 1 1 27
M  V30 30 1 2 28
M  V30 31 1 2 29
M  V30 32 1 5 30
M  V30 33 1 6 31
M  V30 34 1 9 32
M  V30 35 1 13 33
M  V30 36 1 15 34
M  V30 37 1 16 35
M  V30 38 1 18 36
M  V30 39 1 21 37
M  V30 40 1 21 38
M  V30 41 1 22 39
M  V30 42 1 22 40
M  V30 43 1 22 41
M  V30 44 1 23 42
M  V30 END BOND
M  V30 END CTAB
M  END
>  <Dataset>  (222) 
ChEMBL_Kinases

>  <Ligand_Instance>  (222) 
nan

>  <PDB_ID>  (222) 
nan

>  <Standardized_SMILES>  (222) 
CCOc1ccc2c(c1)C(=O)/C(=C/c1ccc(O)c(OCC)c1)O2

>  <Name>  (222) 
nan

>  <Pocket>  (222) 
nan

>  <ATP_Site>  (222) 
nan

>  <Peripheral>  (222) 
nan

>  <Num_H_Atoms_ProtBoundConf>  (222) 
nan

>  <Num_Resolved_Atoms>  (222) 
nan

>  <Num_Not_Resolved_Atoms>  (222) 
nan

$$$$
CHEMBL4076060
     RDKit          3D

  0  0  0  0  0  0  0  0  0  0999 V3000
M  V30 BEGIN CTAB
M  V30 COUNTS 49 52 0 0 0
M  V30 BEGIN ATOM
M  V30 1 C -0.637055 0.787445 2.123918 0
M  V30 2 C 0.316638 -0.364705 1.975939 0 CFG=2
M  V30 3 C 1.757496 -0.003589 2.102678 0
M  V30 4 N 2.453732 0.225682 0.880965 0
M  V30 5 C 3.828096 0.579060 0.933819 0
M  V30 6 C 4.415204 0.632179 2.176114 0
M  V30 7 C 5.761299 0.969182 2.356698 0
M  V30 8 C 6.482642 1.251585 1.188543 0
M  V30 9 F 7.805567 1.584096 1.355121 0
M  V30 10 C 5.891850 1.199849 -0.082165 0
M  V30 11 C 4.560767 0.861877 -0.199297 0
M  V30 12 C 1.662512 0.066370 -0.312937 0
M  V30 13 C 1.045278 -1.326144 -0.204353 0
M  V30 14 N 0.016190 -1.197862 0.815538 0
M  V30 15 C -1.257516 -1.830107 0.763789 0
M  V30 16 N -2.245945 -1.178540 0.095591 0
M  V30 17 C -3.483300 -1.688500 -0.007332 0
M  V30 18 C -4.541830 -0.991465 -0.727023 0
M  V30 19 C -4.318216 0.223760 -1.335697 0
M  V30 20 C -5.346290 0.850872 -2.006862 0
M  V30 21 N -6.563537 0.286479 -2.071795 0
M  V30 22 C -6.782061 -0.897689 -1.478972 0
M  V30 23 N -5.775579 -1.528837 -0.812230 0
M  V30 24 C -3.658705 -2.887823 0.602020 0
M  V30 25 C -2.722664 -3.609855 1.293125 0
M  V30 26 O -2.930379 -4.717176 1.841784 0
M  V30 27 N -1.484833 -3.032904 1.358813 0
M  V30 28 C -0.407180 -3.689774 2.058329 0
M  V30 29 H -1.600460 0.425401 2.571722 0
M  V30 30 H -0.184304 1.501282 2.848449 0
M  V30 31 H -0.924387 1.273181 1.172081 0
M  V30 32 H 0.084569 -1.043517 2.851535 0
M  V30 33 H 1.817732 0.888683 2.786522 0
M  V30 34 H 2.332782 -0.792511 2.663356 0
M  V30 35 H 3.914235 0.426765 3.109449 0
M  V30 36 H 6.232731 1.014295 3.327498 0
M  V30 37 H 6.550118 1.440431 -0.915120 0
M  V30 38 H 4.117432 0.826094 -1.183680 0
M  V30 39 H 0.871277 0.835127 -0.413481 0
M  V30 40 H 2.234877 0.066434 -1.253115 0
M  V30 41 H 0.661482 -1.614324 -1.182920 0
M  V30 42 H 1.820208 -2.042260 0.073399 0
M  V30 43 H -3.347357 0.679542 -1.287456 0
M  V30 44 H -5.099717 1.817171 -2.469410 0
M  V30 45 H -7.779524 -1.361053 -1.531687 0
M  V30 46 H -4.641903 -3.358997 0.557161 0
M  V30 47 H -0.355025 -3.402040 3.140174 0
M  V30 48 H -0.540939 -4.802883 2.053975 0
M  V30 49 H 0.586890 -3.457734 1.643026 0
M  V30 END ATOM
M  V30 BEGIN BOND
M  V30 1 1 1 2
M  V30 2 1 2 3
M  V30 3 1 3 4
M  V30 4 1 4 5
M  V30 5 2 5 6
M  V30 6 1 6 7
M  V30 7 2 7 8
M  V30 8 1 8 9
M  V30 9 1 8 10
M  V30 10 2 10 11
M  V30 11 1 4 12
M  V30 12 1 12 13
M  V30 13 1 13 14
M  V30 14 1 14 15
M  V30 15 2 15 16
M  V30 16 1 16 17
M  V30 17 1 17 18
M  V30 18 2 18 19
M  V30 19 1 19 20
M  V30 20 2 20 21
M  V30 21 1 21 22
M  V30 22 2 22 23
M  V30 23 2 17 24
M  V30 24 1 24 25
M  V30 25 2 25 26
M  V30 26 1 25 27
M  V30 27 1 27 28
M  V30 28 1 14 2
M  V30 29 1 27 15
M  V30 30 1 11 5
M  V30 31 1 23 18
M  V30 32 1 1 29
M  V30 33 1 1 30
M  V30 34 1 1 31
M  V30 35 1 2 32 CFG=1
M  V30 36 1 3 33
M  V30 37 1 3 34
M  V30 38 1 6 35
M  V30 39 1 7 36
M  V30 40 1 10 37
M  V30 41 1 11 38
M  V30 42 1 12 39
M  V30 43 1 12 40
M  V30 44 1 13 41
M  V30 45 1 13 42
M  V30 46 1 19 43
M  V30 47 1 20 44
M  V30 48 1 22 45
M  V30 49 1 24 46
M  V30 50 1 28 47
M  V30 51 1 28 48
M  V30 52 1 28 49
M  V30 END BOND
M  V30 END CTAB
M  END
>  <Dataset>  (223) 
ChEMBL_Kinases

>  <Ligand_Instance>  (223) 
nan

>  <PDB_ID>  (223) 
nan

>  <Standardized_SMILES>  (223) 
C[C@@H]1CN(c2ccc(F)cc2)CCN1c1nc(-c2ccncn2)cc(=O)n1C

>  <Name>  (223) 
nan

>  <Pocket>  (223) 
nan

>  <ATP_Site>  (223) 
nan

>  <Peripheral>  (223) 
nan

>  <Num_H_Atoms_ProtBoundConf>  (223) 
nan

>  <Num_Resolved_Atoms>  (223) 
nan

>  <Num_Not_Resolved_Atoms>  (223) 
nan

$$$$
CHEMBL4076038
     RDKit          3D

  0  0  0  0  0  0  0  0  0  0999 V3000
M  V30 BEGIN CTAB
M  V30 COUNTS 45 47 0 0 0
M  V30 BEGIN ATOM
M  V30 1 C 2.403265 -5.421922 4.826739 0
M  V30 2 O 2.058969 -4.577668 3.726815 0
M  V30 3 C 2.178294 -3.213201 3.728852 0
M  V30 4 O 2.616885 -2.592152 4.738167 0
M  V30 5 N 1.739968 -2.696940 2.462699 0
M  V30 6 C 1.231521 -3.269206 1.248459 0
M  V30 7 C -0.126285 -2.587011 1.018974 0
M  V30 8 N 0.020571 -1.195214 0.677408 0
M  V30 9 C -0.865095 -0.247479 0.068535 0
M  V30 10 N -0.382151 0.983329 -0.160731 0
M  V30 11 C -1.115259 1.935533 -0.718808 0
M  V30 12 C -0.503745 3.236899 -0.922309 0
M  V30 13 C -1.149892 4.302451 -1.486314 0
M  V30 14 C -0.593473 5.556842 -1.691447 0
M  V30 15 N 0.700764 5.701775 -1.286819 0
M  V30 16 C 1.368378 4.682703 -0.730127 0
M  V30 17 N 0.771811 3.491635 -0.559118 0
M  V30 18 C -2.408172 1.707710 -1.090540 0
M  V30 19 C -2.896820 0.448095 -0.853859 0
M  V30 20 O -4.101391 0.200456 -1.189111 0
M  V30 21 N -2.119683 -0.507077 -0.279215 0
M  V30 22 C -2.733221 -1.784172 -0.068555 0
M  V30 23 C 1.353111 -0.697861 1.048603 0 CFG=2
M  V30 24 C 2.344557 -0.827383 -0.079033 0
M  V30 25 C 1.805693 -1.263561 2.348616 0
M  V30 26 H 1.720254 -6.312955 4.702452 0
M  V30 27 H 3.440272 -5.804966 4.758733 0
M  V30 28 H 2.171552 -4.946312 5.806082 0
M  V30 29 H 0.947095 -4.342909 1.445787 0
M  V30 30 H 1.883654 -3.247502 0.385587 0
M  V30 31 H -0.627306 -2.703300 2.025377 0
M  V30 32 H -0.606469 -3.151234 0.221324 0
M  V30 33 H -2.163127 4.214086 -1.811255 0
M  V30 34 H -1.120022 6.384470 -2.137814 0
M  V30 35 H 2.408324 4.845366 -0.419720 0
M  V30 36 H -3.048662 2.424297 -1.541584 0
M  V30 37 H -2.525539 -2.500352 -0.913051 0
M  V30 38 H -3.864775 -1.654757 -0.163314 0
M  V30 39 H -2.624896 -2.211612 0.930955 0
M  V30 40 H 1.250424 0.416878 1.222164 0
M  V30 41 H 2.694966 0.176639 -0.464865 0
M  V30 42 H 1.869187 -1.289911 -0.974564 0
M  V30 43 H 3.289461 -1.324589 0.232629 0
M  V30 44 H 2.883923 -0.963294 2.477243 0
M  V30 45 H 1.251917 -0.747627 3.160100 0
M  V30 END ATOM
M  V30 BEGIN BOND
M  V30 1 1 1 2
M  V30 2 1 2 3
M  V30 3 2 3 4
M  V30 4 1 3 5
M  V30 5 1 5 6
M  V30 6 1 6 7
M  V30 7 1 7 8
M  V30 8 1 8 9
M  V30 9 2 9 10
M  V30 10 1 10 11
M  V30 11 1 11 12
M  V30 12 2 12 13
M  V30 13 1 13 14
M  V30 14 2 14 15
M  V30 15 1 15 16
M  V30 16 2 16 17
M  V30 17 2 11 18
M  V30 18 1 18 19
M  V30 19 2 19 20
M  V30 20 1 19 21
M  V30 21 1 21 22
M  V30 22 1 8 23
M  V30 23 1 23 24
M  V30 24 1 23 25
M  V30 25 1 25 5
M  V30 26 1 21 9
M  V30 27 1 17 12
M  V30 28 1 1 26
M  V30 29 1 1 27
M  V30 30 1 1 28
M  V30 31 1 6 29
M  V30 32 1 6 30
M  V30 33 1 7 31
M  V30 34 1 7 32
M  V30 35 1 13 33
M  V30 36 1 14 34
M  V30 37 1 16 35
M  V30 38 1 18 36
M  V30 39 1 22 37
M  V30 40 1 22 38
M  V30 41 1 22 39
M  V30 42 1 23 40 CFG=1
M  V30 43 1 24 41
M  V30 44 1 24 42
M  V30 45 1 24 43
M  V30 46 1 25 44
M  V30 47 1 25 45
M  V30 END BOND
M  V30 END CTAB
M  END
>  <Dataset>  (224) 
ChEMBL_Kinases

>  <Ligand_Instance>  (224) 
nan

>  <PDB_ID>  (224) 
nan

>  <Standardized_SMILES>  (224) 
COC(=O)N1CCN(c2nc(-c3ccncn3)cc(=O)n2C)[C@H](C)C1

>  <Name>  (224) 
nan

>  <Pocket>  (224) 
nan

>  <ATP_Site>  (224) 
nan

>  <Peripheral>  (224) 
nan

>  <Num_H_Atoms_ProtBoundConf>  (224) 
nan

>  <Num_Resolved_Atoms>  (224) 
nan

>  <Num_Not_Resolved_Atoms>  (224) 
nan

$$$$
CHEMBL4076001
     RDKit          3D

  0  0  0  0  0  0  0  0  0  0999 V3000
M  V30 BEGIN CTAB
M  V30 COUNTS 47 50 0 0 0
M  V30 BEGIN ATOM
M  V30 1 C 1.283856 -3.986245 2.073827 0
M  V30 2 N 0.082366 -3.316359 1.679233 0
M  V30 3 C 0.207334 -2.172038 0.968616 0
M  V30 4 N 1.460379 -1.612713 0.597186 0
M  V30 5 C 2.038263 -1.976796 -0.701366 0
M  V30 6 C 3.092469 -1.006961 -1.141733 0
M  V30 7 N 2.669399 0.318209 -0.734075 0
M  V30 8 C 2.760531 0.468886 0.710551 0 CFG=1
M  V30 9 C 2.157268 1.758738 1.129919 0
M  V30 10 C 0.953105 2.234466 0.656236 0
M  V30 11 C 0.377944 3.425487 1.031676 0
M  V30 12 C 1.085409 4.175051 1.952790 0
M  V30 13 Cl 0.472253 5.721591 2.526943 0
M  V30 14 C 2.300035 3.785755 2.487449 0
M  V30 15 C 2.806816 2.580423 2.059085 0
M  V30 16 C 2.190310 -0.700619 1.446574 0
M  V30 17 N -0.942757 -1.554606 0.606583 0
M  V30 18 C -2.150815 -2.034170 0.924698 0
M  V30 19 C -3.313714 -1.281660 0.477313 0
M  V30 20 C -3.166283 -0.121971 -0.248076 0
M  V30 21 C -4.178403 0.679552 -0.728769 0
M  V30 22 N -5.443166 0.276558 -0.454169 0
M  V30 23 C -5.688817 -0.860184 0.258832 0
M  V30 24 C -4.624299 -1.624835 0.715677 0
M  V30 25 C -2.278114 -3.195407 1.646029 0
M  V30 26 C -1.110995 -3.838251 2.023358 0
M  V30 27 O -1.115699 -4.911428 2.687704 0
M  V30 28 H 1.151938 -5.088550 1.965443 0
M  V30 29 H 1.406578 -3.820511 3.182766 0
M  V30 30 H 2.182947 -3.670905 1.548385 0
M  V30 31 H 1.181597 -1.841943 -1.425436 0
M  V30 32 H 2.312784 -3.032948 -0.772776 0
M  V30 33 H 4.071814 -1.284764 -0.699908 0
M  V30 34 H 3.158142 -1.011171 -2.237505 0
M  V30 35 H 3.301921 0.997295 -1.206134 0
M  V30 36 H 3.851292 0.564346 0.909192 0
M  V30 37 H 0.429543 1.612114 -0.067815 0
M  V30 38 H -0.569852 3.779712 0.645572 0
M  V30 39 H 2.833602 4.393094 3.209103 0
M  V30 40 H 3.769173 2.264510 2.477681 0
M  V30 41 H 1.488888 -0.295220 2.202097 0
M  V30 42 H 3.030916 -1.286094 1.871479 0
M  V30 43 H -2.167180 0.234850 -0.488968 0
M  V30 44 H -4.004004 1.582822 -1.294780 0
M  V30 45 H -6.709098 -1.136797 0.449655 0
M  V30 46 H -4.826274 -2.526411 1.282671 0
M  V30 47 H -3.229317 -3.608169 1.918787 0
M  V30 END ATOM
M  V30 BEGIN BOND
M  V30 1 1 1 2
M  V30 2 1 2 3
M  V30 3 1 3 4
M  V30 4 1 4 5
M  V30 5 1 5 6
M  V30 6 1 6 7
M  V30 7 1 7 8
M  V30 8 1 8 9
M  V30 9 2 9 10
M  V30 10 1 10 11
M  V30 11 2 11 12
M  V30 12 1 12 13
M  V30 13 1 12 14
M  V30 14 2 14 15
M  V30 15 1 8 16
M  V30 16 2 3 17
M  V30 17 1 17 18
M  V30 18 1 18 19
M  V30 19 2 19 20
M  V30 20 1 20 21
M  V30 21 2 21 22
M  V30 22 1 22 23
M  V30 23 2 23 24
M  V30 24 2 18 25
M  V30 25 1 25 26
M  V30 26 2 26 27
M  V30 27 1 26 2
M  V30 28 1 16 4
M  V30 29 1 24 19
M  V30 30 1 15 9
M  V30 31 1 1 28
M  V30 32 1 1 29
M  V30 33 1 1 30
M  V30 34 1 5 31
M  V30 35 1 5 32
M  V30 36 1 6 33
M  V30 37 1 6 34
M  V30 38 1 7 35
M  V30 39 1 8 36 CFG=3
M  V30 40 1 10 37
M  V30 41 1 11 38
M  V30 42 1 14 39
M  V30 43 1 15 40
M  V30 44 1 16 41
M  V30 45 1 16 42
M  V30 46 1 20 43
M  V30 47 1 21 44
M  V30 48 1 23 45
M  V30 49 1 24 46
M  V30 50 1 25 47
M  V30 END BOND
M  V30 END CTAB
M  END
>  <Dataset>  (225) 
ChEMBL_Kinases

>  <Ligand_Instance>  (225) 
nan

>  <PDB_ID>  (225) 
nan

>  <Standardized_SMILES>  (225) 
Cn1c(N2CCN[C@@H](c3ccc(Cl)cc3)C2)nc(-c2ccncc2)cc1=O

>  <Name>  (225) 
nan

>  <Pocket>  (225) 
nan

>  <ATP_Site>  (225) 
nan

>  <Peripheral>  (225) 
nan

>  <Num_H_Atoms_ProtBoundConf>  (225) 
nan

>  <Num_Resolved_Atoms>  (225) 
nan

>  <Num_Not_Resolved_Atoms>  (225) 
nan

$$$$
CHEMBL4856667
     RDKit          3D

  0  0  0  0  0  0  0  0  0  0999 V3000
M  V30 BEGIN CTAB
M  V30 COUNTS 38 41 0 0 0
M  V30 BEGIN ATOM
M  V30 1 O -0.319383 -6.992075 2.036538 0
M  V30 2 C 0.339643 -5.941120 2.243923 0
M  V30 3 O 1.453086 -5.987629 3.066079 0
M  V30 4 C -0.065942 -4.675254 1.621064 0
M  V30 5 C -1.171517 -4.610410 0.799730 0
M  V30 6 C -1.527195 -3.385142 0.223810 0
M  V30 7 C -0.821614 -2.228886 0.438061 0
M  V30 8 C 0.255462 -2.395049 1.264834 0
M  V30 9 C 0.671879 -3.540127 1.864213 0
M  V30 10 C 0.975500 -1.250457 1.491604 0
M  V30 11 C 0.647448 -0.002890 0.929280 0
M  V30 12 N 1.372786 1.190600 1.155521 0
M  V30 13 C 1.903010 2.481943 1.189954 0
M  V30 14 C 0.976969 3.635798 1.458947 0
M  V30 15 C 1.338721 4.278238 0.174009 0
M  V30 16 C 2.145354 3.060757 -0.198573 0
M  V30 17 C -0.468059 0.034959 0.109627 0
M  V30 18 C -0.957044 1.158995 -0.520497 0
M  V30 19 C -2.063324 1.239783 -1.332812 0
M  V30 20 N -2.750055 0.078652 -1.534588 0
M  V30 21 C -2.326342 -1.068309 -0.944097 0
M  V30 22 C -1.228055 -1.083282 -0.153634 0
M  V30 23 H 1.985161 -6.854541 3.215967 0
M  V30 24 H -1.687930 -5.539843 0.664447 0
M  V30 25 H -2.405539 -3.517588 -0.381278 0
M  V30 26 H 1.534040 -3.602030 2.507651 0
M  V30 27 H 1.858300 -1.325893 2.151998 0
M  V30 28 H 2.074383 0.881395 1.862551 0
M  V30 29 H 2.840666 2.640306 1.822041 0
M  V30 30 H -0.085077 3.373596 1.615467 0
M  V30 31 H 1.313022 4.250210 2.314583 0
M  V30 32 H 0.515164 4.534053 -0.518834 0
M  V30 33 H 1.991201 5.197067 0.245187 0
M  V30 34 H 3.229054 3.275803 -0.382463 0
M  V30 35 H 1.747319 2.493090 -1.041477 0
M  V30 36 H -0.459779 2.090214 -0.379585 0
M  V30 37 H -2.384810 2.161992 -1.793308 0
M  V30 38 H -2.971783 -1.878061 -1.203759 0
M  V30 END ATOM
M  V30 BEGIN BOND
M  V30 1 2 1 2
M  V30 2 1 2 3
M  V30 3 1 2 4
M  V30 4 2 4 5
M  V30 5 1 5 6
M  V30 6 2 6 7
M  V30 7 1 7 8
M  V30 8 2 8 9
M  V30 9 1 8 10
M  V30 10 2 10 11
M  V30 11 1 11 12
M  V30 12 1 12 13
M  V30 13 1 13 14
M  V30 14 1 14 15
M  V30 15 1 15 16
M  V30 16 1 11 17
M  V30 17 2 17 18
M  V30 18 1 18 19
M  V30 19 2 19 20
M  V30 20 1 20 21
M  V30 21 2 21 22
M  V30 22 1 9 4
M  V30 23 1 16 13
M  V30 24 1 22 17
M  V30 25 1 22 7
M  V30 26 1 3 23
M  V30 27 1 5 24
M  V30 28 1 6 25
M  V30 29 1 9 26
M  V30 30 1 10 27
M  V30 31 1 12 28
M  V30 32 1 13 29
M  V30 33 1 14 30
M  V30 34 1 14 31
M  V30 35 1 15 32
M  V30 36 1 15 33
M  V30 37 1 16 34
M  V30 38 1 16 35
M  V30 39 1 18 36
M  V30 40 1 19 37
M  V30 41 1 21 38
M  V30 END BOND
M  V30 END CTAB
M  END
>  <Dataset>  (226) 
ChEMBL_Kinases

>  <Ligand_Instance>  (226) 
nan

>  <PDB_ID>  (226) 
nan

>  <Standardized_SMILES>  (226) 
O=C(O)c1ccc2c(c1)cc(NC1CCC1)c1ccncc12

>  <Name>  (226) 
nan

>  <Pocket>  (226) 
nan

>  <ATP_Site>  (226) 
nan

>  <Peripheral>  (226) 
nan

>  <Num_H_Atoms_ProtBoundConf>  (226) 
nan

>  <Num_Resolved_Atoms>  (226) 
nan

>  <Num_Not_Resolved_Atoms>  (226) 
nan

$$$$
CHEMBL4856712
     RDKit          3D

  0  0  0  0  0  0  0  0  0  0999 V3000
M  V30 BEGIN CTAB
M  V30 COUNTS 54 59 0 0 0
M  V30 BEGIN ATOM
M  V30 1 C 3.244573 0.084402 3.470438 0
M  V30 2 C 2.406757 -0.737204 2.492212 0
M  V30 3 C 1.910271 -1.997324 3.160170 0
M  V30 4 N 3.159715 -1.023805 1.286994 0
M  V30 5 C 3.870111 -2.159672 1.123859 0
M  V30 6 N 4.456776 -2.126588 -0.103716 0
M  V30 7 N 4.093499 -0.981061 -0.655758 0
M  V30 8 C 3.303800 -0.284199 0.162323 0
M  V30 9 C 2.633004 1.007890 0.069330 0
M  V30 10 C 3.293302 2.209273 0.288693 0
M  V30 11 C 2.597198 3.417283 0.185346 0
M  V30 12 C 1.247300 3.458153 -0.134043 0
M  V30 13 N 0.325890 4.411166 -0.304237 0
M  V30 14 N -0.860649 3.869150 -0.614853 0
M  V30 15 C -0.752111 2.536071 -0.657905 0
M  V30 16 C -1.817211 1.605878 -0.959669 0
M  V30 17 C -2.680150 1.829868 -2.016002 0
M  V30 18 C -3.684416 0.928879 -2.280649 0
M  V30 19 C -3.877497 -0.211877 -1.528058 0
M  V30 20 C -3.036025 -0.474268 -0.461486 0
M  V30 21 N -3.135673 -1.630305 0.398019 0
M  V30 22 C -3.541329 -1.779219 1.673092 0
M  V30 23 N -3.433612 -3.082154 1.989680 0
M  V30 24 C -2.962859 -3.739917 0.915340 0
M  V30 25 C -2.679063 -5.207861 0.790575 0
M  V30 26 C -2.961173 -5.806649 -0.595621 0
M  V30 27 C -1.558892 -5.553466 -0.197731 0
M  V30 28 C -2.763757 -2.839522 -0.114237 0
M  V30 29 C -2.023996 0.460014 -0.216656 0
M  V30 30 C 0.568096 2.271737 -0.357133 0
M  V30 31 C 1.281109 1.097897 -0.247994 0
M  V30 32 H 3.297913 1.129041 3.077584 0
M  V30 33 H 2.688043 0.083927 4.423285 0
M  V30 34 H 4.244077 -0.358020 3.544719 0
M  V30 35 H 1.524242 -0.113565 2.268933 0
M  V30 36 H 0.893749 -1.851200 3.590704 0
M  V30 37 H 2.634312 -2.332075 3.945726 0
M  V30 38 H 1.883794 -2.856716 2.434905 0
M  V30 39 H 3.971227 -2.982338 1.844515 0
M  V30 40 H 4.348410 2.170397 0.537976 0
M  V30 41 H 3.118758 4.348119 0.357679 0
M  V30 42 H 0.570401 5.422616 -0.193722 0
M  V30 43 H -2.559020 2.721224 -2.634062 0
M  V30 44 H -4.373007 1.084322 -3.104229 0
M  V30 45 H -4.650503 -0.951725 -1.693276 0
M  V30 46 H -3.877966 -0.908695 2.246051 0
M  V30 47 H -2.863156 -5.853248 1.651297 0
M  V30 48 H -3.437458 -5.176128 -1.346568 0
M  V30 49 H -3.254621 -6.879663 -0.636628 0
M  V30 50 H -1.045492 -4.708651 -0.698728 0
M  V30 51 H -0.879572 -6.374133 0.121250 0
M  V30 52 H -2.390920 -3.093806 -1.095265 0
M  V30 53 H -1.370116 0.248252 0.618746 0
M  V30 54 H 0.794879 0.156040 -0.412518 0
M  V30 END ATOM
M  V30 BEGIN BOND
M  V30 1 1 1 2
M  V30 2 1 2 3
M  V30 3 1 2 4
M  V30 4 1 4 5
M  V30 5 2 5 6
M  V30 6 1 6 7
M  V30 7 2 7 8
M  V30 8 1 8 9
M  V30 9 2 9 10
M  V30 10 1 10 11
M  V30 11 2 11 12
M  V30 12 1 12 13
M  V30 13 1 13 14
M  V30 14 2 14 15
M  V30 15 1 15 16
M  V30 16 2 16 17
M  V30 17 1 17 18
M  V30 18 2 18 19
M  V30 19 1 19 20
M  V30 20 1 20 21
M  V30 21 1 21 22
M  V30 22 2 22 23
M  V30 23 1 23 24
M  V30 24 1 24 25
M  V30 25 1 25 26
M  V30 26 1 26 27
M  V30 27 2 24 28
M  V30 28 2 20 29
M  V30 29 1 15 30
M  V30 30 2 30 31
M  V30 31 1 8 4
M  V30 32 1 31 9
M  V30 33 1 30 12
M  V30 34 1 29 16
M  V30 35 1 28 21
M  V30 36 1 27 25
M  V30 37 1 1 32
M  V30 38 1 1 33
M  V30 39 1 1 34
M  V30 40 1 2 35
M  V30 41 1 3 36
M  V30 42 1 3 37
M  V30 43 1 3 38
M  V30 44 1 5 39
M  V30 45 1 10 40
M  V30 46 1 11 41
M  V30 47 1 13 42
M  V30 48 1 17 43
M  V30 49 1 18 44
M  V30 50 1 19 45
M  V30 51 1 22 46
M  V30 52 1 25 47
M  V30 53 1 26 48
M  V30 54 1 26 49
M  V30 55 1 27 50
M  V30 56 1 27 51
M  V30 57 1 28 52
M  V30 58 1 29 53
M  V30 59 1 31 54
M  V30 END BOND
M  V30 END CTAB
M  END
>  <Dataset>  (227) 
ChEMBL_Kinases

>  <Ligand_Instance>  (227) 
nan

>  <PDB_ID>  (227) 
nan

>  <Standardized_SMILES>  (227) 
CC(C)n1cnnc1-c1ccc2[nH]nc(-c3cccc(-n4cnc(C5CC5)c4)c3)c2c1

>  <Name>  (227) 
nan

>  <Pocket>  (227) 
nan

>  <ATP_Site>  (227) 
nan

>  <Peripheral>  (227) 
nan

>  <Num_H_Atoms_ProtBoundConf>  (227) 
nan

>  <Num_Resolved_Atoms>  (227) 
nan

>  <Num_Not_Resolved_Atoms>  (227) 
nan

$$$$
CHEMBL4075979
     RDKit          3D

  0  0  0  0  0  0  0  0  0  0999 V3000
M  V30 BEGIN CTAB
M  V30 COUNTS 31 33 0 0 0
M  V30 BEGIN ATOM
M  V30 1 C 0.461112 -2.145317 2.867818 0
M  V30 2 O 0.338736 -1.828097 1.481984 0
M  V30 3 C 0.671208 -2.753547 0.502230 0
M  V30 4 C 1.126568 -4.005544 0.772047 0
M  V30 5 C 1.448212 -4.902338 -0.210599 0
M  V30 6 C 1.288960 -4.477196 -1.514760 0
M  V30 7 C 0.828596 -3.212466 -1.893809 0
M  V30 8 C 0.544221 -2.416961 -0.806934 0
M  V30 9 C 0.034529 -1.014911 -1.084532 0
M  V30 10 N -0.292116 -0.137415 -0.445863 0
M  V30 11 C -0.728358 1.063060 -0.807599 0
M  V30 12 C -1.136251 2.153429 0.074081 0
M  V30 13 C -0.533732 2.405080 1.212536 0
M  V30 14 S 0.870027 1.583117 2.019182 0
M  V30 15 C 0.297521 2.001525 3.693091 0
M  V30 16 S 0.476225 1.257012 5.154134 0
M  V30 17 N -0.412068 3.223107 3.473701 0
M  V30 18 C -0.869593 3.470104 2.160348 0
M  V30 19 O -1.514963 4.522121 1.832062 0
M  V30 20 C -0.785517 1.249910 -2.213961 0
M  V30 21 S -0.178470 -0.392840 -2.860864 0
M  V30 22 H -0.294207 -2.917132 3.100253 0
M  V30 23 H 1.481250 -2.565279 3.033574 0
M  V30 24 H 0.371089 -1.219733 3.432565 0
M  V30 25 H 1.244782 -4.316668 1.795813 0
M  V30 26 H 1.811137 -5.901094 -0.014018 0
M  V30 27 H 1.548776 -5.203374 -2.285547 0
M  V30 28 H 0.716914 -2.910959 -2.913002 0
M  V30 29 H -1.977031 2.814001 -0.187515 0
M  V30 30 H -0.569499 3.893625 4.288053 0
M  V30 31 H -1.113422 2.160468 -2.739008 0
M  V30 END ATOM
M  V30 BEGIN BOND
M  V30 1 1 1 2
M  V30 2 1 2 3
M  V30 3 2 3 4
M  V30 4 1 4 5
M  V30 5 2 5 6
M  V30 6 1 6 7
M  V30 7 2 7 8
M  V30 8 1 8 9
M  V30 9 2 9 10
M  V30 10 1 10 11
M  V30 11 1 11 12
M  V30 12 2 12 13
M  V30 13 1 13 14
M  V30 14 1 14 15
M  V30 15 2 15 16
M  V30 16 1 15 17
M  V30 17 1 17 18
M  V30 18 2 18 19
M  V30 19 2 11 20
M  V30 20 1 20 21
M  V30 21 1 8 3
M  V30 22 1 21 9
M  V30 23 1 18 13
M  V30 24 1 1 22
M  V30 25 1 1 23
M  V30 26 1 1 24
M  V30 27 1 4 25
M  V30 28 1 5 26
M  V30 29 1 6 27
M  V30 30 1 7 28
M  V30 31 1 12 29
M  V30 32 1 17 30
M  V30 33 1 20 31
M  V30 END BOND
M  V30 END CTAB
M  END
>  <Dataset>  (228) 
ChEMBL_Kinases

>  <Ligand_Instance>  (228) 
nan

>  <PDB_ID>  (228) 
nan

>  <Standardized_SMILES>  (228) 
COc1ccccc1-c1nc(/C=C2\SC(=S)NC2=O)cs1

>  <Name>  (228) 
nan

>  <Pocket>  (228) 
nan

>  <ATP_Site>  (228) 
nan

>  <Peripheral>  (228) 
nan

>  <Num_H_Atoms_ProtBoundConf>  (228) 
nan

>  <Num_Resolved_Atoms>  (228) 
nan

>  <Num_Not_Resolved_Atoms>  (228) 
nan

$$$$
CHEMBL4075977
     RDKit          3D

  0  0  0  0  0  0  0  0  0  0999 V3000
M  V30 BEGIN CTAB
M  V30 COUNTS 31 33 0 0 0
M  V30 BEGIN ATOM
M  V30 1 C 0.488594 -3.787070 4.582403 0
M  V30 2 O 0.534890 -2.832388 3.557170 0
M  V30 3 C 0.226107 -3.164680 2.252325 0
M  V30 4 C -0.151743 -4.404033 1.780702 0
M  V30 5 C -0.444320 -4.652992 0.457198 0
M  V30 6 C -0.372577 -3.651458 -0.486385 0
M  V30 7 C 0.000890 -2.426173 -0.022393 0
M  V30 8 C 0.142488 -1.200925 -0.906302 0
M  V30 9 N 0.412095 -0.114499 -0.871945 0
M  V30 10 C 0.462204 0.784530 -1.835898 0
M  V30 11 C 0.841461 2.207736 -1.646220 0
M  V30 12 C 0.487564 2.869861 -0.572753 0
M  V30 13 S -0.484107 1.969313 0.665611 0
M  V30 14 C -0.429367 3.299311 1.890082 0
M  V30 15 S -0.988830 3.129282 3.390340 0
M  V30 16 N 0.174372 4.402594 1.232513 0
M  V30 17 C 0.662901 4.200830 -0.059637 0
M  V30 18 O 1.220020 5.088209 -0.755021 0
M  V30 19 C 0.123766 0.297972 -3.100406 0
M  V30 20 S -0.243864 -1.476371 -2.740019 0
M  V30 21 C 0.297955 -2.149152 1.289855 0
M  V30 22 H 1.454409 -4.324549 4.730432 0
M  V30 23 H -0.325494 -4.503802 4.374955 0
M  V30 24 H 0.253954 -3.336646 5.573231 0
M  V30 25 H -0.218074 -5.202002 2.483296 0
M  V30 26 H -0.731714 -5.645632 0.168886 0
M  V30 27 H -0.583366 -3.774182 -1.519054 0
M  V30 28 H 1.426407 2.791334 -2.365797 0
M  V30 29 H 0.211348 5.317371 1.773949 0
M  V30 30 H 0.110740 0.916391 -4.040483 0
M  V30 31 H 0.595927 -1.152494 1.634830 0
M  V30 END ATOM
M  V30 BEGIN BOND
M  V30 1 1 1 2
M  V30 2 1 2 3
M  V30 3 2 3 4
M  V30 4 1 4 5
M  V30 5 2 5 6
M  V30 6 1 6 7
M  V30 7 1 7 8
M  V30 8 2 8 9
M  V30 9 1 9 10
M  V30 10 1 10 11
M  V30 11 2 11 12
M  V30 12 1 12 13
M  V30 13 1 13 14
M  V30 14 2 14 15
M  V30 15 1 14 16
M  V30 16 1 16 17
M  V30 17 2 17 18
M  V30 18 2 10 19
M  V30 19 1 19 20
M  V30 20 2 7 21
M  V30 21 1 21 3
M  V30 22 1 20 8
M  V30 23 1 17 12
M  V30 24 1 1 22
M  V30 25 1 1 23
M  V30 26 1 1 24
M  V30 27 1 4 25
M  V30 28 1 5 26
M  V30 29 1 6 27
M  V30 30 1 11 28
M  V30 31 1 16 29
M  V30 32 1 19 30
M  V30 33 1 21 31
M  V30 END BOND
M  V30 END CTAB
M  END
>  <Dataset>  (229) 
ChEMBL_Kinases

>  <Ligand_Instance>  (229) 
nan

>  <PDB_ID>  (229) 
nan

>  <Standardized_SMILES>  (229) 
COc1cccc(-c2nc(/C=C3\SC(=S)NC3=O)cs2)c1

>  <Name>  (229) 
nan

>  <Pocket>  (229) 
nan

>  <ATP_Site>  (229) 
nan

>  <Peripheral>  (229) 
nan

>  <Num_H_Atoms_ProtBoundConf>  (229) 
nan

>  <Num_Resolved_Atoms>  (229) 
nan

>  <Num_Not_Resolved_Atoms>  (229) 
nan

$$$$
CHEMBL4075970
     RDKit          3D

  0  0  0  0  0  0  0  0  0  0999 V3000
M  V30 BEGIN CTAB
M  V30 COUNTS 16 17 0 0 0
M  V30 BEGIN ATOM
M  V30 1 N 1.086136 -3.740519 0.803307 0
M  V30 2 C 0.834763 -2.625848 0.851275 0
M  V30 3 C 0.491548 -1.215145 0.918878 0
M  V30 4 C -0.800749 -0.752373 1.075098 0
M  V30 5 N -0.676988 0.600711 1.088484 0
M  V30 6 C 0.633230 0.959384 0.946894 0
M  V30 7 N 1.253628 2.142920 0.900409 0
M  V30 8 C 2.587866 2.209721 0.750164 0
M  V30 9 C 3.386133 1.103729 0.637025 0
M  V30 10 C 2.776543 -0.135995 0.681142 0
M  V30 11 C 1.406110 -0.199440 0.835569 0
M  V30 12 H -1.722411 -1.312338 1.168469 0
M  V30 13 H -1.420051 1.320295 1.187504 0
M  V30 14 H 3.123254 3.155609 0.708503 0
M  V30 15 H 4.456358 1.109002 0.515539 0
M  V30 16 H 3.292539 -1.083934 0.603286 0
M  V30 END ATOM
M  V30 BEGIN BOND
M  V30 1 3 1 2
M  V30 2 1 2 3
M  V30 3 2 3 4
M  V30 4 1 4 5
M  V30 5 1 5 6
M  V30 6 2 6 7
M  V30 7 1 7 8
M  V30 8 2 8 9
M  V30 9 1 9 10
M  V30 10 2 10 11
M  V30 11 1 11 3
M  V30 12 1 11 6
M  V30 13 1 4 12
M  V30 14 1 5 13
M  V30 15 1 8 14
M  V30 16 1 9 15
M  V30 17 1 10 16
M  V30 END BOND
M  V30 END CTAB
M  END
>  <Dataset>  (230) 
ChEMBL_Kinases

>  <Ligand_Instance>  (230) 
nan

>  <PDB_ID>  (230) 
nan

>  <Standardized_SMILES>  (230) 
N#Cc1c[nH]c2ncccc12

>  <Name>  (230) 
nan

>  <Pocket>  (230) 
nan

>  <ATP_Site>  (230) 
nan

>  <Peripheral>  (230) 
nan

>  <Num_H_Atoms_ProtBoundConf>  (230) 
nan

>  <Num_Resolved_Atoms>  (230) 
nan

>  <Num_Not_Resolved_Atoms>  (230) 
nan

$$$$
CHEMBL4856716
     RDKit          3D

  0  0  0  0  0  0  0  0  0  0999 V3000
M  V30 BEGIN CTAB
M  V30 COUNTS 54 59 0 0 0
M  V30 BEGIN ATOM
M  V30 1 C 2.534062 -6.236806 3.479053 0
M  V30 2 N 2.892933 -5.376358 2.381056 0
M  V30 3 C 2.798941 -4.048671 2.274062 0
M  V30 4 C 3.283775 -3.728413 1.005432 0
M  V30 5 N 3.300988 -2.345576 0.612379 0
M  V30 6 C 4.270106 -1.427944 0.631489 0
M  V30 7 N 3.797917 -0.259406 0.157199 0
M  V30 8 C 2.489847 -0.471405 -0.163992 0
M  V30 9 C 1.540416 0.405489 -0.693849 0
M  V30 10 N 1.890094 1.739011 -0.976857 0
M  V30 11 C 1.047342 2.783525 -1.521880 0
M  V30 12 C -0.119997 3.094322 -0.650814 0
M  V30 13 N -0.047063 4.025354 0.348086 0
M  V30 14 C -1.262509 4.093534 0.964168 0
M  V30 15 C -1.836081 4.797753 1.999266 0
M  V30 16 C -3.148027 4.613638 2.378528 0
M  V30 17 F -3.690453 5.320271 3.402294 0
M  V30 18 C -3.939085 3.693903 1.711249 0
M  V30 19 F -5.237661 3.478319 2.049990 0
M  V30 20 C -3.431910 2.955187 0.667502 0
M  V30 21 C -2.105247 3.196159 0.344702 0
M  V30 22 N -1.375884 2.615026 -0.623563 0
M  V30 23 N 0.325305 -0.086119 -0.907562 0
M  V30 24 C -0.006099 -1.376098 -0.633286 0
M  V30 25 N -1.276668 -1.981927 -0.834505 0
M  V30 26 C -1.567663 -3.355274 -0.460008 0
M  V30 27 C -2.587318 -3.261020 0.649594 0
M  V30 28 O -3.711795 -2.628603 0.190023 0
M  V30 29 C -3.498027 -1.357406 -0.320928 0
M  V30 30 C -2.450648 -1.363357 -1.423914 0
M  V30 31 N 0.941068 -2.183319 -0.124059 0
M  V30 32 C 2.187845 -1.781999 0.124948 0
M  V30 33 C 3.660692 -4.890890 0.377568 0
M  V30 34 N 3.394105 -5.866585 1.278181 0
M  V30 35 H 1.852678 -5.662855 4.143535 0
M  V30 36 H 3.426359 -6.507479 4.057243 0
M  V30 37 H 2.002165 -7.139679 3.100892 0
M  V30 38 H 2.407352 -3.455364 3.082499 0
M  V30 39 H 5.235549 -1.754131 1.007288 0
M  V30 40 H 2.885399 2.031767 -0.772734 0
M  V30 41 H 1.604607 3.716759 -1.689610 0
M  V30 42 H 0.645798 2.483901 -2.517346 0
M  V30 43 H -1.209041 5.519950 2.520701 0
M  V30 44 H -4.011255 2.226474 0.117834 0
M  V30 45 H -1.597962 1.899478 -1.321085 0
M  V30 46 H -2.019350 -3.859270 -1.324265 0
M  V30 47 H -0.654901 -3.900505 -0.147391 0
M  V30 48 H -2.129992 -2.723104 1.504416 0
M  V30 49 H -2.883475 -4.279437 0.955875 0
M  V30 50 H -3.268868 -0.588030 0.420201 0
M  V30 51 H -4.460072 -1.061334 -0.802742 0
M  V30 52 H -2.800288 -2.030729 -2.254403 0
M  V30 53 H -2.261072 -0.343855 -1.750773 0
M  V30 54 H 4.064025 -4.880328 -0.612991 0
M  V30 END ATOM
M  V30 BEGIN BOND
M  V30 1 1 1 2
M  V30 2 1 2 3
M  V30 3 2 3 4
M  V30 4 1 4 5
M  V30 5 1 5 6
M  V30 6 2 6 7
M  V30 7 1 7 8
M  V30 8 2 8 9
M  V30 9 1 9 10
M  V30 10 1 10 11
M  V30 11 1 11 12
M  V30 12 2 12 13
M  V30 13 1 13 14
M  V30 14 2 14 15
M  V30 15 1 15 16
M  V30 16 1 16 17
M  V30 17 2 16 18
M  V30 18 1 18 19
M  V30 19 1 18 20
M  V30 20 2 20 21
M  V30 21 1 21 22
M  V30 22 1 9 23
M  V30 23 2 23 24
M  V30 24 1 24 25
M  V30 25 1 25 26
M  V30 26 1 26 27
M  V30 27 1 27 28
M  V30 28 1 28 29
M  V30 29 1 29 30
M  V30 30 1 24 31
M  V30 31 2 31 32
M  V30 32 1 4 33
M  V30 33 2 33 34
M  V30 34 1 34 2
M  V30 35 1 32 5
M  V30 36 1 32 8
M  V30 37 1 22 12
M  V30 38 1 30 25
M  V30 39 1 21 14
M  V30 40 1 1 35
M  V30 41 1 1 36
M  V30 42 1 1 37
M  V30 43 1 3 38
M  V30 44 1 6 39
M  V30 45 1 10 40
M  V30 46 1 11 41
M  V30 47 1 11 42
M  V30 48 1 15 43
M  V30 49 1 20 44
M  V30 50 1 22 45
M  V30 51 1 26 46
M  V30 52 1 26 47
M  V30 53 1 27 48
M  V30 54 1 27 49
M  V30 55 1 29 50
M  V30 56 1 29 51
M  V30 57 1 30 52
M  V30 58 1 30 53
M  V30 59 1 33 54
M  V30 END BOND
M  V30 END CTAB
M  END
>  <Dataset>  (231) 
ChEMBL_Kinases

>  <Ligand_Instance>  (231) 
nan

>  <PDB_ID>  (231) 
nan

>  <Standardized_SMILES>  (231) 
Cn1cc(-n2cnc3c(NCc4nc5cc(F)c(F)cc5[nH]4)nc(N4CCOCC4)nc32)cn1

>  <Name>  (231) 
nan

>  <Pocket>  (231) 
nan

>  <ATP_Site>  (231) 
nan

>  <Peripheral>  (231) 
nan

>  <Num_H_Atoms_ProtBoundConf>  (231) 
nan

>  <Num_Resolved_Atoms>  (231) 
nan

>  <Num_Not_Resolved_Atoms>  (231) 
nan

$$$$
CHEMBL4075961
     RDKit          3D

  0  0  0  0  0  0  0  0  0  0999 V3000
M  V30 BEGIN CTAB
M  V30 COUNTS 50 53 0 0 0
M  V30 BEGIN ATOM
M  V30 1 C -0.387064 -4.748209 -1.302467 0
M  V30 2 C 0.920612 -4.343814 -0.648711 0
M  V30 3 C 1.498669 -5.533601 0.092566 0
M  V30 4 O 1.844174 -3.788088 -1.533151 0
M  V30 5 C 2.378981 -2.529589 -1.501111 0
M  V30 6 C 3.274802 -2.314556 -2.547448 0
M  V30 7 C 3.934327 -1.107671 -2.708508 0
M  V30 8 C 3.723588 -0.052700 -1.819996 0
M  V30 9 N 4.151613 1.205324 -1.648210 0
M  V30 10 N 3.562165 1.737027 -0.568305 0
M  V30 11 C 2.723798 0.824993 -0.002408 0
M  V30 12 C 1.932660 1.097808 1.191389 0
M  V30 13 C 2.554358 1.726389 2.255206 0
M  V30 14 C 1.754332 1.955932 3.351741 0
M  V30 15 N 0.458171 1.620643 3.449301 0
M  V30 16 C -0.178496 1.004455 2.425234 0
M  V30 17 N -1.549351 0.639967 2.505446 0
M  V30 18 C -2.325068 -0.016988 1.472542 0
M  V30 19 C -3.273076 1.019650 0.902162 0
M  V30 20 N -4.039165 1.667749 1.948241 0
M  V30 21 C -5.328466 2.286364 1.703163 0
M  V30 22 C -3.490439 1.693785 3.280761 0
M  V30 23 O -4.094033 2.405060 4.127348 0
M  V30 24 C -2.265513 0.943845 3.729895 0
M  V30 25 C 0.600631 0.762525 1.313670 0
M  V30 26 C 2.840181 -0.289500 -0.802571 0
M  V30 27 C 2.171634 -1.481998 -0.621315 0
M  V30 28 H -0.497365 -5.858726 -1.348397 0
M  V30 29 H -1.272555 -4.314843 -0.783678 0
M  V30 30 H -0.350595 -4.382869 -2.349511 0
M  V30 31 H 0.665961 -3.591233 0.123187 0
M  V30 32 H 1.792151 -6.364601 -0.567342 0
M  V30 33 H 2.426117 -5.222680 0.620781 0
M  V30 34 H 0.777201 -5.909901 0.844332 0
M  V30 35 H 3.537476 -3.045563 -3.315366 0
M  V30 36 H 4.634012 -0.916416 -3.511845 0
M  V30 37 H 4.841996 1.662636 -2.284767 0
M  V30 38 H 3.583708 2.024324 2.252702 0
M  V30 39 H 2.195291 2.447725 4.215095 0
M  V30 40 H -1.700823 -0.477530 0.708204 0
M  V30 41 H -2.924303 -0.854919 1.932129 0
M  V30 42 H -2.687866 1.743301 0.319941 0
M  V30 43 H -3.973430 0.520704 0.190271 0
M  V30 44 H -5.700405 1.893395 0.735053 0
M  V30 45 H -6.014672 2.135036 2.548212 0
M  V30 46 H -5.242773 3.387575 1.554605 0
M  V30 47 H -1.685084 1.573829 4.435066 0
M  V30 48 H -2.542650 -0.028564 4.202731 0
M  V30 49 H 0.174781 0.274735 0.447909 0
M  V30 50 H 1.471322 -1.721655 0.155490 0
M  V30 END ATOM
M  V30 BEGIN BOND
M  V30 1 1 1 2
M  V30 2 1 2 3
M  V30 3 1 2 4
M  V30 4 1 4 5
M  V30 5 2 5 6
M  V30 6 1 6 7
M  V30 7 2 7 8
M  V30 8 1 8 9
M  V30 9 1 9 10
M  V30 10 2 10 11
M  V30 11 1 11 12
M  V30 12 2 12 13
M  V30 13 1 13 14
M  V30 14 2 14 15
M  V30 15 1 15 16
M  V30 16 1 16 17
M  V30 17 1 17 18
M  V30 18 1 18 19
M  V30 19 1 19 20
M  V30 20 1 20 21
M  V30 21 1 20 22
M  V30 22 2 22 23
M  V30 23 1 22 24
M  V30 24 2 16 25
M  V30 25 1 11 26
M  V30 26 2 26 27
M  V30 27 1 27 5
M  V30 28 1 26 8
M  V30 29 1 25 12
M  V30 30 1 24 17
M  V30 31 1 1 28
M  V30 32 1 1 29
M  V30 33 1 1 30
M  V30 34 1 2 31
M  V30 35 1 3 32
M  V30 36 1 3 33
M  V30 37 1 3 34
M  V30 38 1 6 35
M  V30 39 1 7 36
M  V30 40 1 9 37
M  V30 41 1 13 38
M  V30 42 1 14 39
M  V30 43 1 18 40
M  V30 44 1 18 41
M  V30 45 1 19 42
M  V30 46 1 19 43
M  V30 47 1 21 44
M  V30 48 1 21 45
M  V30 49 1 21 46
M  V30 50 1 24 47
M  V30 51 1 24 48
M  V30 52 1 25 49
M  V30 53 1 27 50
M  V30 END BOND
M  V30 END CTAB
M  END
>  <Dataset>  (232) 
ChEMBL_Kinases

>  <Ligand_Instance>  (232) 
nan

>  <PDB_ID>  (232) 
nan

>  <Standardized_SMILES>  (232) 
CC(C)Oc1ccc2[nH]nc(-c3ccnc(N4CCN(C)C(=O)C4)c3)c2c1

>  <Name>  (232) 
nan

>  <Pocket>  (232) 
nan

>  <ATP_Site>  (232) 
nan

>  <Peripheral>  (232) 
nan

>  <Num_H_Atoms_ProtBoundConf>  (232) 
nan

>  <Num_Resolved_Atoms>  (232) 
nan

>  <Num_Not_Resolved_Atoms>  (232) 
nan

$$$$
CHEMBL4856755
     RDKit          3D

  0  0  0  0  0  0  0  0  0  0999 V3000
M  V30 BEGIN CTAB
M  V30 COUNTS 52 55 0 0 0
M  V30 BEGIN ATOM
M  V30 1 C 3.409520 -6.288154 2.930203 0
M  V30 2 N 3.111270 -4.888554 2.634702 0
M  V30 3 C 1.696754 -4.741519 2.353176 0
M  V30 4 C 4.174676 -3.917965 2.660298 0
M  V30 5 O 5.276053 -4.398699 2.944825 0
M  V30 6 C 3.646909 -2.598782 2.334856 0
M  V30 7 C 3.677328 -1.524059 3.196822 0
M  V30 8 C 3.182231 -0.272582 2.903404 0
M  V30 9 C 2.619237 -0.098077 1.655673 0
M  V30 10 C 2.072847 1.101819 1.201941 0
M  V30 11 C 1.511935 1.281861 -0.035914 0
M  V30 12 C 0.985535 2.626872 -0.338847 0
M  V30 13 C -0.447236 2.821960 0.097479 0
M  V30 14 N -1.380011 1.915870 -0.521445 0
M  V30 15 C -2.765907 1.996879 -0.193642 0
M  V30 16 C -3.191813 2.950719 0.709708 0
M  V30 17 C -4.547991 2.962183 0.965485 0
M  V30 18 N -5.469491 2.123487 0.406312 0
M  V30 19 C -5.039565 1.184810 -0.484543 0
M  V30 20 C -5.955356 0.332414 -1.054922 0
M  V30 21 C -5.555377 -0.639270 -1.966655 0
M  V30 22 C -4.190848 -0.710481 -2.274921 0
M  V30 23 C -3.730573 -1.708775 -3.219861 0
M  V30 24 N -3.355452 -2.497462 -3.978587 0
M  V30 25 C -3.328180 0.171897 -1.669661 0
M  V30 26 C -3.685368 1.146302 -0.763307 0
M  V30 27 C 1.505625 0.179375 -0.860312 0
M  V30 28 C 2.031878 -1.041113 -0.469879 0
M  V30 29 C 2.587027 -1.174873 0.787899 0
M  V30 30 C 3.084175 -2.435974 1.079144 0
M  V30 31 H 2.675591 -6.726263 3.630074 0
M  V30 32 H 4.404819 -6.417629 3.394633 0
M  V30 33 H 3.461357 -6.854206 1.971964 0
M  V30 34 H 1.451175 -5.150740 1.345501 0
M  V30 35 H 1.358434 -3.684817 2.312510 0
M  V30 36 H 1.097043 -5.221764 3.159047 0
M  V30 37 H 4.127519 -1.669796 4.190028 0
M  V30 38 H 3.205777 0.569538 3.579042 0
M  V30 39 H 2.126192 1.909585 1.923108 0
M  V30 40 H 1.656112 3.396511 0.068147 0
M  V30 41 H 1.024435 2.747613 -1.460860 0
M  V30 42 H -0.750159 3.860341 -0.098252 0
M  V30 43 H -0.463188 2.659999 1.207211 0
M  V30 44 H -0.947833 1.264175 -1.171985 0
M  V30 45 H -2.543223 3.658388 1.203394 0
M  V30 46 H -5.026878 3.659507 1.655875 0
M  V30 47 H -7.011403 0.356789 -0.843476 0
M  V30 48 H -6.201400 -1.345806 -2.459498 0
M  V30 49 H -2.296682 0.045332 -1.965581 0
M  V30 50 H 1.078216 0.289200 -1.845610 0
M  V30 51 H 1.974257 -1.856435 -1.206316 0
M  V30 52 H 3.034352 -3.246173 0.365302 0
M  V30 END ATOM
M  V30 BEGIN BOND
M  V30 1 1 1 2
M  V30 2 1 2 3
M  V30 3 1 2 4
M  V30 4 2 4 5
M  V30 5 1 4 6
M  V30 6 2 6 7
M  V30 7 1 7 8
M  V30 8 2 8 9
M  V30 9 1 9 10
M  V30 10 2 10 11
M  V30 11 1 11 12
M  V30 12 1 12 13
M  V30 13 1 13 14
M  V30 14 1 14 15
M  V30 15 2 15 16
M  V30 16 1 16 17
M  V30 17 2 17 18
M  V30 18 1 18 19
M  V30 19 2 19 20
M  V30 20 1 20 21
M  V30 21 2 21 22
M  V30 22 1 22 23
M  V30 23 3 23 24
M  V30 24 1 22 25
M  V30 25 2 25 26
M  V30 26 1 11 27
M  V30 27 2 27 28
M  V30 28 1 28 29
M  V30 29 2 29 30
M  V30 30 1 30 6
M  V30 31 1 29 9
M  V30 32 1 26 15
M  V30 33 1 26 19
M  V30 34 1 1 31
M  V30 35 1 1 32
M  V30 36 1 1 33
M  V30 37 1 3 34
M  V30 38 1 3 35
M  V30 39 1 3 36
M  V30 40 1 7 37
M  V30 41 1 8 38
M  V30 42 1 10 39
M  V30 43 1 12 40
M  V30 44 1 12 41
M  V30 45 1 13 42
M  V30 46 1 13 43
M  V30 47 1 14 44
M  V30 48 1 16 45
M  V30 49 1 17 46
M  V30 50 1 20 47
M  V30 51 1 21 48
M  V30 52 1 25 49
M  V30 53 1 27 50
M  V30 54 1 28 51
M  V30 55 1 30 52
M  V30 END BOND
M  V30 END CTAB
M  END
>  <Dataset>  (233) 
ChEMBL_Kinases

>  <Ligand_Instance>  (233) 
nan

>  <PDB_ID>  (233) 
nan

>  <Standardized_SMILES>  (233) 
CN(C)C(=O)c1ccc2cc(CCNc3ccnc4ccc(C#N)cc34)ccc2c1

>  <Name>  (233) 
nan

>  <Pocket>  (233) 
nan

>  <ATP_Site>  (233) 
nan

>  <Peripheral>  (233) 
nan

>  <Num_H_Atoms_ProtBoundConf>  (233) 
nan

>  <Num_Resolved_Atoms>  (233) 
nan

>  <Num_Not_Resolved_Atoms>  (233) 
nan

$$$$
CHEMBL4856627
     RDKit          3D

  0  0  0  0  0  0  0  0  0  0999 V3000
M  V30 BEGIN CTAB
M  V30 COUNTS 51 54 0 0 0
M  V30 BEGIN ATOM
M  V30 1 C -0.268450 -2.305424 -1.516474 0
M  V30 2 N 0.102074 -3.430144 -0.656221 0
M  V30 3 C 1.216548 -3.529095 0.205199 0
M  V30 4 N 1.991637 -2.412019 0.172671 0
M  V30 5 C 3.112150 -2.263796 0.894698 0
M  V30 6 N 3.915263 -1.069900 0.818182 0
M  V30 7 C 3.276982 -0.068773 -0.001648 0
M  V30 8 C 3.798202 0.503711 -1.139256 0
M  V30 9 N 3.090124 1.442946 -1.787138 0
M  V30 10 C 1.884789 1.836653 -1.348107 0
M  V30 11 C 1.225245 2.837843 -2.118953 0
M  V30 12 N 0.692611 3.663427 -2.729625 0
M  V30 13 C 1.266132 1.320793 -0.202374 0
M  V30 14 N 0.011505 1.771540 0.206800 0
M  V30 15 C -0.732618 1.418676 1.363362 0
M  V30 16 C -1.042820 -0.004139 1.600453 0
M  V30 17 N -2.448834 -0.228221 1.979973 0
M  V30 18 C -3.210291 0.128085 0.780189 0
M  V30 19 C -3.153213 1.620848 0.652817 0
M  V30 20 C -2.035033 2.196036 1.488015 0
M  V30 21 C -2.459782 2.051675 2.937705 0
M  V30 22 C -2.837445 0.587497 3.107773 0
M  V30 23 C 2.017555 0.357148 0.440323 0
M  V30 24 N 3.447035 -3.312199 1.685885 0
M  V30 25 C 2.731298 -4.436516 1.765089 0
M  V30 26 C 1.589589 -4.561109 1.013920 0
M  V30 27 C 0.643301 -5.718431 0.937365 0
M  V30 28 F 1.026944 -6.749426 1.756662 0
M  V30 29 F -0.591939 -5.252910 1.346051 0
M  V30 30 F 0.605206 -6.234205 -0.351096 0
M  V30 31 H -1.244055 -1.911844 -1.223088 0
M  V30 32 H 0.534479 -1.553245 -1.411879 0
M  V30 33 H -0.293945 -2.622054 -2.587142 0
M  V30 34 H -0.587537 -4.210192 -0.745687 0
M  V30 35 H 4.823599 -1.098726 1.354793 0
M  V30 36 H 4.770351 0.118342 -1.406017 0
M  V30 37 H -0.466426 2.478694 -0.429026 0
M  V30 38 H -0.114353 1.787242 2.237740 0
M  V30 39 H -0.478334 -0.418874 2.490487 0
M  V30 40 H -0.828778 -0.694234 0.790226 0
M  V30 41 H -2.767399 -0.400473 -0.084850 0
M  V30 42 H -4.236044 -0.276748 0.876042 0
M  V30 43 H -3.123882 1.965245 -0.401173 0
M  V30 44 H -4.099833 2.025166 1.076951 0
M  V30 45 H -1.857637 3.254875 1.224744 0
M  V30 46 H -1.586126 2.311669 3.581679 0
M  V30 47 H -3.336721 2.694165 3.140258 0
M  V30 48 H -3.934667 0.472327 3.233755 0
M  V30 49 H -2.334771 0.151458 4.005625 0
M  V30 50 H 1.586239 -0.069247 1.322166 0
M  V30 51 H 2.959776 -5.290824 2.376819 0
M  V30 END ATOM
M  V30 BEGIN BOND
M  V30 1 1 1 2
M  V30 2 1 2 3
M  V30 3 2 3 4
M  V30 4 1 4 5
M  V30 5 1 5 6
M  V30 6 1 6 7
M  V30 7 2 7 8
M  V30 8 1 8 9
M  V30 9 2 9 10
M  V30 10 1 10 11
M  V30 11 3 11 12
M  V30 12 1 10 13
M  V30 13 1 13 14
M  V30 14 1 14 15
M  V30 15 1 15 16
M  V30 16 1 16 17
M  V30 17 1 17 18
M  V30 18 1 18 19
M  V30 19 1 19 20
M  V30 20 1 20 21
M  V30 21 1 21 22
M  V30 22 2 13 23
M  V30 23 2 5 24
M  V30 24 1 24 25
M  V30 25 2 25 26
M  V30 26 1 26 27
M  V30 27 1 27 28
M  V30 28 1 27 29
M  V30 29 1 27 30
M  V30 30 1 26 3
M  V30 31 1 23 7
M  V30 32 1 20 15
M  V30 33 1 22 17
M  V30 34 1 1 31
M  V30 35 1 1 32
M  V30 36 1 1 33
M  V30 37 1 2 34
M  V30 38 1 6 35
M  V30 39 1 8 36
M  V30 40 1 14 37
M  V30 41 1 15 38
M  V30 42 1 16 39
M  V30 43 1 16 40
M  V30 44 1 18 41
M  V30 45 1 18 42
M  V30 46 1 19 43
M  V30 47 1 19 44
M  V30 48 1 20 45
M  V30 49 1 21 46
M  V30 50 1 21 47
M  V30 51 1 22 48
M  V30 52 1 22 49
M  V30 53 1 23 50
M  V30 54 1 25 51
M  V30 END BOND
M  V30 END CTAB
M  END
>  <Dataset>  (234) 
ChEMBL_Kinases

>  <Ligand_Instance>  (234) 
nan

>  <PDB_ID>  (234) 
nan

>  <Standardized_SMILES>  (234) 
CNc1nc(Nc2cnc(C#N)c(NC3CN4CCC3CC4)c2)ncc1C(F)(F)F

>  <Name>  (234) 
nan

>  <Pocket>  (234) 
nan

>  <ATP_Site>  (234) 
nan

>  <Peripheral>  (234) 
nan

>  <Num_H_Atoms_ProtBoundConf>  (234) 
nan

>  <Num_Resolved_Atoms>  (234) 
nan

>  <Num_Not_Resolved_Atoms>  (234) 
nan

$$$$
CHEMBL4855000
     RDKit          3D

  0  0  0  0  0  0  0  0  0  0999 V3000
M  V30 BEGIN CTAB
M  V30 COUNTS 53 56 0 0 0
M  V30 BEGIN ATOM
M  V30 1 C -0.755939 -1.591383 5.483492 0
M  V30 2 C -1.546089 -2.392430 4.494080 0
M  V30 3 C -0.663521 -3.032384 3.472050 0
M  V30 4 C -0.334059 -2.399821 2.291077 0
M  V30 5 C 0.486564 -3.237708 1.569156 0
M  V30 6 N 1.097214 -3.058652 0.303098 0
M  V30 7 C 0.991007 -1.927272 -0.544614 0
M  V30 8 N 1.838508 -0.901490 -0.378363 0
M  V30 9 C 1.817416 0.206913 -1.155120 0
M  V30 10 N 2.652494 1.324869 -1.037957 0
M  V30 11 C 2.810777 2.689697 -0.629581 0
M  V30 12 C 2.392896 2.979348 0.785638 0
M  V30 13 C 0.964184 2.720581 1.025895 0
M  V30 14 C 0.125299 3.810063 0.754596 0
M  V30 15 C -1.241065 3.809101 0.907573 0
M  V30 16 C -1.853772 2.651124 1.363802 0
M  V30 17 C -1.049682 1.576312 1.634068 0
M  V30 18 C 0.320452 1.589117 1.476558 0
M  V30 19 N 0.915009 0.315642 -2.150548 0
M  V30 20 C 0.013404 -0.677412 -2.393241 0
M  V30 21 C -0.903226 -0.545083 -3.415476 0
M  V30 22 C -1.799374 -1.570026 -3.628341 0
M  V30 23 C -1.726762 -2.670436 -2.804394 0
M  V30 24 C -0.809908 -2.835765 -1.759545 0
M  V30 25 O -0.754236 -3.944387 -0.948090 0
M  V30 26 C -1.665633 -5.002305 -1.151994 0
M  V30 27 C 0.082917 -1.775656 -1.574048 0
M  V30 28 N 0.637949 -4.349384 2.315835 0
M  V30 29 N -0.045524 -4.223149 3.443047 0
M  V30 30 H -0.496844 -2.172933 6.400870 0
M  V30 31 H -1.351738 -0.731920 5.820001 0
M  V30 32 H 0.136934 -1.170312 4.985022 0
M  V30 33 H -2.153156 -3.182288 4.999783 0
M  V30 34 H -2.286214 -1.714267 4.018605 0
M  V30 35 H -0.575288 -1.455001 1.858897 0
M  V30 36 H 1.695947 -3.764207 -0.127565 0
M  V30 37 H 3.482337 0.825052 -1.469283 0
M  V30 38 H 2.277508 3.379390 -1.353705 0
M  V30 39 H 3.894447 2.962421 -0.791654 0
M  V30 40 H 2.599147 4.050667 0.976104 0
M  V30 41 H 3.033631 2.429480 1.512894 0
M  V30 42 H 0.511922 4.752686 0.397737 0
M  V30 43 H -1.860850 4.661435 0.691714 0
M  V30 44 H -2.924673 2.630701 1.489698 0
M  V30 45 H -1.546510 0.702585 1.983738 0
M  V30 46 H 0.972115 0.774526 1.678996 0
M  V30 47 H -0.887848 0.359201 -4.016733 0
M  V30 48 H -2.530867 -1.505530 -4.415831 0
M  V30 49 H -2.446526 -3.451727 -3.000995 0
M  V30 50 H -1.293361 -5.958480 -0.695506 0
M  V30 51 H -1.884404 -5.222958 -2.207616 0
M  V30 52 H -2.651945 -4.836485 -0.640172 0
M  V30 53 H -0.125005 -4.914043 4.223948 0
M  V30 END ATOM
M  V30 BEGIN BOND
M  V30 1 1 1 2
M  V30 2 1 2 3
M  V30 3 2 3 4
M  V30 4 1 4 5
M  V30 5 1 5 6
M  V30 6 1 6 7
M  V30 7 2 7 8
M  V30 8 1 8 9
M  V30 9 1 9 10
M  V30 10 1 10 11
M  V30 11 1 11 12
M  V30 12 1 12 13
M  V30 13 2 13 14
M  V30 14 1 14 15
M  V30 15 2 15 16
M  V30 16 1 16 17
M  V30 17 2 17 18
M  V30 18 2 9 19
M  V30 19 1 19 20
M  V30 20 2 20 21
M  V30 21 1 21 22
M  V30 22 2 22 23
M  V30 23 1 23 24
M  V30 24 1 24 25
M  V30 25 1 25 26
M  V30 26 2 24 27
M  V30 27 2 5 28
M  V30 28 1 28 29
M  V30 29 1 29 3
M  V30 30 1 27 7
M  V30 31 1 18 13
M  V30 32 1 27 20
M  V30 33 1 1 30
M  V30 34 1 1 31
M  V30 35 1 1 32
M  V30 36 1 2 33
M  V30 37 1 2 34
M  V30 38 1 4 35
M  V30 39 1 6 36
M  V30 40 1 10 37
M  V30 41 1 11 38
M  V30 42 1 11 39
M  V30 43 1 12 40
M  V30 44 1 12 41
M  V30 45 1 14 42
M  V30 46 1 15 43
M  V30 47 1 16 44
M  V30 48 1 17 45
M  V30 49 1 18 46
M  V30 50 1 21 47
M  V30 51 1 22 48
M  V30 52 1 23 49
M  V30 53 1 26 50
M  V30 54 1 26 51
M  V30 55 1 26 52
M  V30 56 1 29 53
M  V30 END BOND
M  V30 END CTAB
M  END
>  <Dataset>  (235) 
ChEMBL_Kinases

>  <Ligand_Instance>  (235) 
nan

>  <PDB_ID>  (235) 
nan

>  <Standardized_SMILES>  (235) 
CCc1cc(Nc2nc(NCCc3ccccc3)nc3cccc(OC)c23)n[nH]1

>  <Name>  (235) 
nan

>  <Pocket>  (235) 
nan

>  <ATP_Site>  (235) 
nan

>  <Peripheral>  (235) 
nan

>  <Num_H_Atoms_ProtBoundConf>  (235) 
nan

>  <Num_Resolved_Atoms>  (235) 
nan

>  <Num_Not_Resolved_Atoms>  (235) 
nan

$$$$
CHEMBL4855158
     RDKit          3D

  0  0  0  0  0  0  0  0  0  0999 V3000
M  V30 BEGIN CTAB
M  V30 COUNTS 64 67 0 0 0
M  V30 BEGIN ATOM
M  V30 1 C 5.647844 -0.354925 3.058674 0
M  V30 2 O 4.862276 -0.662383 1.909655 0
M  V30 3 C 3.469799 -0.689449 2.116543 0
M  V30 4 C 2.767405 -0.422696 3.321540 0
M  V30 5 C 1.452664 -0.509954 3.382279 0
M  V30 6 C 0.670333 -0.881974 2.286137 0
M  V30 7 C 1.404268 -1.109828 1.171778 0
M  V30 8 C 2.836061 -1.055152 0.929326 0
M  V30 9 N 3.343140 -1.428943 -0.329516 0
M  V30 10 C 2.357453 -0.534693 -0.941053 0
M  V30 11 N 2.845997 0.778484 -0.959295 0
M  V30 12 C 2.096190 1.846534 -1.322541 0
M  V30 13 C 0.773062 1.546365 -1.659976 0
M  V30 14 C -0.149457 2.686712 -2.118552 0
M  V30 15 N 0.199596 3.791121 -1.234667 0
M  V30 16 O -0.979236 2.663365 -3.023630 0
M  V30 17 C 0.233934 0.336335 -1.661550 0
M  V30 18 N -1.085717 0.041554 -1.751029 0
M  V30 19 C -2.439413 -0.268340 -1.861787 0
M  V30 20 C -3.449341 0.722454 -1.829830 0
M  V30 21 C -4.814335 0.398087 -1.867455 0
M  V30 22 C -5.039137 -1.008888 -1.932640 0
M  V30 23 C -4.154130 -2.034862 -1.980107 0
M  V30 24 C -2.876432 -1.623060 -1.935674 0
M  V30 25 C -1.863155 -2.668199 -1.993091 0
M  V30 26 C -2.063722 -3.191725 -3.493991 0
M  V30 27 O -2.007290 -3.810116 -1.256221 0
M  V30 28 C -0.789192 -4.337249 -0.891809 0
M  V30 29 N 1.151641 -0.537516 -1.299268 0
M  V30 30 C -0.785295 -1.148376 2.391357 0
M  V30 31 N -1.473956 -0.357734 3.326986 0
M  V30 32 C -2.057834 -1.196780 4.365514 0
M  V30 33 C -0.642630 0.595971 3.979074 0
M  V30 34 C 0.646048 -0.002469 4.543697 0
M  V30 35 H 6.420152 0.401970 2.846493 0
M  V30 36 H 5.064526 -0.189102 3.989180 0
M  V30 37 H 6.280788 -1.318399 3.232037 0
M  V30 38 H 3.322759 -0.137960 4.170473 0
M  V30 39 H 0.689085 -1.421023 0.402745 0
M  V30 40 H 4.082468 -2.064195 -0.671296 0
M  V30 41 H 2.374759 2.911093 -1.353461 0
M  V30 42 H -0.852999 3.918922 -0.900002 0
M  V30 43 H 1.040523 4.326978 -0.860806 0
M  V30 44 H -1.278272 0.256124 -0.854596 0
M  V30 45 H -3.098195 1.729358 -1.735961 0
M  V30 46 H -5.406022 1.276802 -1.831850 0
M  V30 47 H -6.131946 -1.183258 -1.977796 0
M  V30 48 H -4.507625 -2.992254 -2.069099 0
M  V30 49 H -0.795829 -2.415592 -2.035266 0
M  V30 50 H -2.803799 -3.946687 -3.500156 0
M  V30 51 H -2.254412 -2.346158 -4.133980 0
M  V30 52 H -1.129468 -3.646531 -3.811917 0
M  V30 53 H -0.141942 -3.669999 -0.310536 0
M  V30 54 H -0.917671 -5.297362 -0.360674 0
M  V30 55 H -0.201129 -4.582674 -1.862935 0
M  V30 56 H -0.797602 -2.239323 2.745025 0
M  V30 57 H -1.191027 -1.094220 1.392602 0
M  V30 58 H -2.820904 -0.542107 4.864795 0
M  V30 59 H -2.556281 -2.056618 3.984106 0
M  V30 60 H -1.328111 -1.438212 5.134042 0
M  V30 61 H -1.177306 1.093648 4.744411 0
M  V30 62 H -0.395022 1.364980 3.186209 0
M  V30 63 H 1.207722 0.897654 4.978580 0
M  V30 64 H 0.425808 -0.752907 5.294470 0
M  V30 END ATOM
M  V30 BEGIN BOND
M  V30 1 1 1 2
M  V30 2 1 2 3
M  V30 3 2 3 4
M  V30 4 1 4 5
M  V30 5 2 5 6
M  V30 6 1 6 7
M  V30 7 2 7 8
M  V30 8 1 8 9
M  V30 9 1 9 10
M  V30 10 2 10 11
M  V30 11 1 11 12
M  V30 12 2 12 13
M  V30 13 1 13 14
M  V30 14 1 14 15
M  V30 15 2 14 16
M  V30 16 1 13 17
M  V30 17 1 17 18
M  V30 18 1 18 19
M  V30 19 2 19 20
M  V30 20 1 20 21
M  V30 21 2 21 22
M  V30 22 1 22 23
M  V30 23 2 23 24
M  V30 24 1 24 25
M  V30 25 1 25 26
M  V30 26 1 25 27
M  V30 27 1 27 28
M  V30 28 2 17 29
M  V30 29 1 6 30
M  V30 30 1 30 31
M  V30 31 1 31 32
M  V30 32 1 31 33
M  V30 33 1 33 34
M  V30 34 1 8 3
M  V30 35 1 29 10
M  V30 36 1 34 5
M  V30 37 1 24 19
M  V30 38 1 1 35
M  V30 39 1 1 36
M  V30 40 1 1 37
M  V30 41 1 4 38
M  V30 42 1 7 39
M  V30 43 1 9 40
M  V30 44 1 12 41
M  V30 45 1 15 42
M  V30 46 1 15 43
M  V30 47 1 18 44
M  V30 48 1 20 45
M  V30 49 1 21 46
M  V30 50 1 22 47
M  V30 51 1 23 48
M  V30 52 1 25 49
M  V30 53 1 26 50
M  V30 54 1 26 51
M  V30 55 1 26 52
M  V30 56 1 28 53
M  V30 57 1 28 54
M  V30 58 1 28 55
M  V30 59 1 30 56
M  V30 60 1 30 57
M  V30 61 1 32 58
M  V30 62 1 32 59
M  V30 63 1 32 60
M  V30 64 1 33 61
M  V30 65 1 33 62
M  V30 66 1 34 63
M  V30 67 1 34 64
M  V30 END BOND
M  V30 END CTAB
M  END
>  <Dataset>  (236) 
ChEMBL_Kinases

>  <Ligand_Instance>  (236) 
nan

>  <PDB_ID>  (236) 
nan

>  <Standardized_SMILES>  (236) 
COc1cc2c(cc1Nc1ncc(C(N)=O)c(Nc3ccccc3C(C)OC)n1)CN(C)CC2

>  <Name>  (236) 
nan

>  <Pocket>  (236) 
nan

>  <ATP_Site>  (236) 
nan

>  <Peripheral>  (236) 
nan

>  <Num_H_Atoms_ProtBoundConf>  (236) 
nan

>  <Num_Resolved_Atoms>  (236) 
nan

>  <Num_Not_Resolved_Atoms>  (236) 
nan

$$$$
CHEMBL4855163
     RDKit          3D

  0  0  0  0  0  0  0  0  0  0999 V3000
M  V30 BEGIN CTAB
M  V30 COUNTS 40 41 0 0 0
M  V30 BEGIN ATOM
M  V30 1 C -0.028074 -5.365206 -1.283411 0
M  V30 2 C 1.105717 -5.103037 -0.316275 0
M  V30 3 C 0.821589 -6.012908 0.886178 0
M  V30 4 C 1.061240 -3.714897 0.224906 0
M  V30 5 C 1.162491 -2.622887 -0.819460 0 CFG=1
M  V30 6 N 0.068540 -2.746333 -1.739183 0
M  V30 7 C 1.172222 -1.366844 -0.032997 0
M  V30 8 O 2.125324 -1.307537 0.743956 0
M  V30 9 N 0.233972 -0.338150 -0.123758 0
M  V30 10 C 0.172201 0.869153 0.577054 0
M  V30 11 C 1.060855 1.295354 1.531597 0
M  V30 12 C 0.939433 2.502918 2.186242 0
M  V30 13 C -0.091005 3.381161 1.930617 0
M  V30 14 C -0.173653 4.637782 2.645791 0
M  V30 15 C -0.996954 5.716968 2.675665 0
M  V30 16 N -0.547807 6.592786 3.567700 0
M  V30 17 C 0.563174 6.067430 4.104751 0
M  V30 18 O 0.738249 4.929631 3.535059 0
M  V30 19 C -0.977902 2.953558 0.976570 0
M  V30 20 C -2.101259 3.750836 0.598567 0
M  V30 21 N -3.016309 4.382004 0.279251 0
M  V30 22 C -0.860553 1.742063 0.316323 0
M  V30 23 H 0.231125 -5.047721 -2.314820 0
M  V30 24 H -0.964444 -4.927407 -0.894834 0
M  V30 25 H -0.158850 -6.478052 -1.334548 0
M  V30 26 H 2.083506 -5.315868 -0.752462 0
M  V30 27 H 0.648340 -7.053267 0.604345 0
M  V30 28 H 1.679035 -5.890790 1.591336 0
M  V30 29 H -0.049087 -5.554419 1.405713 0
M  V30 30 H 0.127095 -3.511717 0.790311 0
M  V30 31 H 1.908211 -3.542898 0.918215 0
M  V30 32 H 2.095839 -2.726899 -1.422474 0
M  V30 33 H -0.814307 -2.555729 -1.214359 0
M  V30 34 H 0.112012 -2.078257 -2.529107 0
M  V30 35 H -0.504050 -0.576223 -0.844975 0
M  V30 36 H 1.884796 0.681461 1.790795 0
M  V30 37 H 1.704961 2.730142 2.921741 0
M  V30 38 H -1.853843 5.846696 2.090595 0
M  V30 39 H 1.232649 6.470269 4.874564 0
M  V30 40 H -1.590999 1.438390 -0.439350 0
M  V30 END ATOM
M  V30 BEGIN BOND
M  V30 1 1 1 2
M  V30 2 1 2 3
M  V30 3 1 2 4
M  V30 4 1 4 5
M  V30 5 1 5 6
M  V30 6 1 5 7
M  V30 7 2 7 8
M  V30 8 1 7 9
M  V30 9 1 9 10
M  V30 10 2 10 11
M  V30 11 1 11 12
M  V30 12 2 12 13
M  V30 13 1 13 14
M  V30 14 2 14 15
M  V30 15 1 15 16
M  V30 16 2 16 17
M  V30 17 1 17 18
M  V30 18 1 13 19
M  V30 19 1 19 20
M  V30 20 3 20 21
M  V30 21 2 19 22
M  V30 22 1 22 10
M  V30 23 1 18 14
M  V30 24 1 1 23
M  V30 25 1 1 24
M  V30 26 1 1 25
M  V30 27 1 2 26
M  V30 28 1 3 27
M  V30 29 1 3 28
M  V30 30 1 3 29
M  V30 31 1 4 30
M  V30 32 1 4 31
M  V30 33 1 5 32 CFG=3
M  V30 34 1 6 33
M  V30 35 1 6 34
M  V30 36 1 9 35
M  V30 37 1 11 36
M  V30 38 1 12 37
M  V30 39 1 15 38
M  V30 40 1 17 39
M  V30 41 1 22 40
M  V30 END BOND
M  V30 END CTAB
M  END
>  <Dataset>  (237) 
ChEMBL_Kinases

>  <Ligand_Instance>  (237) 
nan

>  <PDB_ID>  (237) 
nan

>  <Standardized_SMILES>  (237) 
CC(C)C[C@@H](N)C(=O)Nc1ccc(-c2cnco2)c(C#N)c1

>  <Name>  (237) 
nan

>  <Pocket>  (237) 
nan

>  <ATP_Site>  (237) 
nan

>  <Peripheral>  (237) 
nan

>  <Num_H_Atoms_ProtBoundConf>  (237) 
nan

>  <Num_Resolved_Atoms>  (237) 
nan

>  <Num_Not_Resolved_Atoms>  (237) 
nan

$$$$
CHEMBL4855187
     RDKit          3D

  0  0  0  0  0  0  0  0  0  0999 V3000
M  V30 BEGIN CTAB
M  V30 COUNTS 53 56 0 0 0
M  V30 BEGIN ATOM
M  V30 1 C 1.120281 2.811644 4.802707 0
M  V30 2 O 1.749638 2.599941 3.551553 0
M  V30 3 C 2.820192 1.717617 3.484026 0
M  V30 4 C 3.282253 1.048713 4.591677 0
M  V30 5 C 4.342358 0.156086 4.599446 0
M  V30 6 C 4.960837 -0.054298 3.379174 0
M  V30 7 F 6.008080 -0.913238 3.296627 0
M  V30 8 C 4.523215 0.605668 2.225768 0
M  V30 9 C 3.454836 1.489438 2.280381 0
M  V30 10 C 2.973432 2.194968 1.092397 0
M  V30 11 C 3.420837 3.429017 0.655126 0
M  V30 12 C 2.911576 4.020306 -0.475130 0
M  V30 13 N 1.961585 3.408502 -1.184869 0
M  V30 14 C 1.497124 2.211999 -0.799927 0
M  V30 15 N 0.561395 1.405480 -1.332689 0
M  V30 16 C 0.398184 0.284245 -0.625823 0
M  V30 17 C -0.495201 -0.848324 -0.838761 0
M  V30 18 C -0.485310 -1.882843 0.017654 0
M  V30 19 C -1.374975 -3.063451 -0.151357 0
M  V30 20 C -2.602601 -2.532940 -0.869089 0
M  V30 21 C -3.741497 -3.455470 -0.852907 0
M  V30 22 O -4.863485 -3.163609 -0.337499 0
M  V30 23 N -3.729457 -4.760435 -1.399976 0
M  V30 24 S -4.992214 -5.905538 -1.432874 0
M  V30 25 C -6.474570 -5.291073 -0.656695 0
M  V30 26 O -5.271562 -6.404014 -2.823748 0
M  V30 27 O -4.562913 -7.107081 -0.638334 0
M  V30 28 C -2.206167 -2.025707 -2.213216 0
M  V30 29 C -1.380155 -0.769771 -2.028869 0
M  V30 30 C 1.302208 0.402349 0.428103 0
M  V30 31 C 1.989664 1.594561 0.330382 0
M  V30 32 H 1.842528 3.217948 5.540594 0
M  V30 33 H 0.341732 3.616910 4.689448 0
M  V30 34 H 0.571816 1.917802 5.174608 0
M  V30 35 H 2.801991 1.207382 5.557772 0
M  V30 36 H 4.666228 -0.345847 5.506352 0
M  V30 37 H 4.996368 0.454433 1.253884 0
M  V30 38 H 4.185846 3.895118 1.248324 0
M  V30 39 H 3.284543 4.990344 -0.791773 0
M  V30 40 H -0.004739 1.593933 -2.206730 0
M  V30 41 H 0.179748 -1.890550 0.870143 0
M  V30 42 H -0.820400 -3.791853 -0.794134 0
M  V30 43 H -1.639203 -3.507999 0.820641 0
M  V30 44 H -2.909634 -1.626806 -0.269388 0
M  V30 45 H -2.835991 -5.108774 -1.858633 0
M  V30 46 H -6.185177 -5.085366 0.412054 0
M  V30 47 H -7.256724 -6.052310 -0.729891 0
M  V30 48 H -6.768814 -4.308108 -1.067332 0
M  V30 49 H -1.663980 -2.793140 -2.812651 0
M  V30 50 H -3.115411 -1.764704 -2.805392 0
M  V30 51 H -0.685640 -0.698381 -2.915915 0
M  V30 52 H -1.971162 0.160484 -2.045643 0
M  V30 53 H 1.474552 -0.297242 1.218008 0
M  V30 END ATOM
M  V30 BEGIN BOND
M  V30 1 1 1 2
M  V30 2 1 2 3
M  V30 3 2 3 4
M  V30 4 1 4 5
M  V30 5 2 5 6
M  V30 6 1 6 7
M  V30 7 1 6 8
M  V30 8 2 8 9
M  V30 9 1 9 10
M  V30 10 2 10 11
M  V30 11 1 11 12
M  V30 12 2 12 13
M  V30 13 1 13 14
M  V30 14 1 14 15
M  V30 15 1 15 16
M  V30 16 1 16 17
M  V30 17 2 17 18
M  V30 18 1 18 19
M  V30 19 1 19 20
M  V30 20 1 20 21
M  V30 21 2 21 22
M  V30 22 1 21 23
M  V30 23 1 23 24
M  V30 24 1 24 25
M  V30 25 2 24 26
M  V30 26 2 24 27
M  V30 27 1 20 28
M  V30 28 1 28 29
M  V30 29 2 16 30
M  V30 30 1 30 31
M  V30 31 1 9 3
M  V30 32 1 31 10
M  V30 33 2 31 14
M  V30 34 1 29 17
M  V30 35 1 1 32
M  V30 36 1 1 33
M  V30 37 1 1 34
M  V30 38 1 4 35
M  V30 39 1 5 36
M  V30 40 1 8 37
M  V30 41 1 11 38
M  V30 42 1 12 39
M  V30 43 1 15 40
M  V30 44 1 18 41
M  V30 45 1 19 42
M  V30 46 1 19 43
M  V30 47 1 20 44
M  V30 48 1 23 45
M  V30 49 1 25 46
M  V30 50 1 25 47
M  V30 51 1 25 48
M  V30 52 1 28 49
M  V30 53 1 28 50
M  V30 54 1 29 51
M  V30 55 1 29 52
M  V30 56 1 30 53
M  V30 END BOND
M  V30 END CTAB
M  END
>  <Dataset>  (238) 
ChEMBL_Kinases

>  <Ligand_Instance>  (238) 
nan

>  <PDB_ID>  (238) 
nan

>  <Standardized_SMILES>  (238) 
COc1ccc(F)cc1-c1ccnc2[nH]c(C3=CCC(C(=O)NS(C)(=O)=O)CC3)cc12

>  <Name>  (238) 
nan

>  <Pocket>  (238) 
nan

>  <ATP_Site>  (238) 
nan

>  <Peripheral>  (238) 
nan

>  <Num_H_Atoms_ProtBoundConf>  (238) 
nan

>  <Num_Resolved_Atoms>  (238) 
nan

>  <Num_Not_Resolved_Atoms>  (238) 
nan

$$$$
CHEMBL4855201
     RDKit          3D

  0  0  0  0  0  0  0  0  0  0999 V3000
M  V30 BEGIN CTAB
M  V30 COUNTS 68 72 0 0 0
M  V30 BEGIN ATOM
M  V30 1 O -0.475881 0.087748 3.686862 0
M  V30 2 C -0.940700 -1.097946 3.652215 0
M  V30 3 N 0.037316 -2.101190 3.765936 0
M  V30 4 C 1.402661 -1.730895 3.903428 0
M  V30 5 C 2.089267 -1.500791 5.071138 0
M  V30 6 C 3.422792 -1.144065 5.088898 0
M  V30 7 C 4.079038 -1.018043 3.852659 0
M  V30 8 C 3.432384 -1.239700 2.618062 0
M  V30 9 O 4.367706 -1.027698 1.701621 0
M  V30 10 C 4.542953 -1.017899 0.366853 0
M  V30 11 C 3.769865 -0.004224 -0.396055 0
M  V30 12 C 2.277952 -0.070838 -0.313182 0
M  V30 13 C 1.694692 0.674784 -1.528385 0
M  V30 14 N 1.974972 -0.122295 -2.661661 0
M  V30 15 C 0.906094 -0.517484 -3.470344 0
M  V30 16 C 1.229812 -1.350020 -4.649333 0
M  V30 17 C 1.280768 -2.726363 -4.678874 0
M  V30 18 C 1.599460 -3.383378 -5.859622 0
M  V30 19 C 1.867901 -2.656565 -7.014299 0
M  V30 20 C 1.822100 -1.261095 -7.007659 0
M  V30 21 C 1.500356 -0.620882 -5.812913 0
M  V30 22 C 3.188852 -0.833708 -2.671116 0
M  V30 23 C 4.196453 0.019976 -1.879115 0
M  V30 24 C 2.126152 -1.584059 2.745314 0
M  V30 25 C -2.351312 -1.460729 3.509237 0
M  V30 26 C -2.862311 -2.729159 3.469443 0
M  V30 27 C -4.223564 -2.925166 3.329423 0
M  V30 28 N -5.018314 -1.845566 3.234929 0
M  V30 29 C -4.550512 -0.593825 3.270357 0
M  V30 30 N -5.454823 0.501147 3.164228 0
M  V30 31 C -6.847985 0.235350 3.020161 0
M  V30 32 O -7.246873 -0.950634 2.989996 0
M  V30 33 C -7.701034 1.449638 2.918265 0
M  V30 34 C -7.316526 2.685945 3.645451 0
M  V30 35 C -7.127351 2.627044 2.144453 0
M  V30 36 C -3.198472 -0.389758 3.409365 0
M  V30 37 H -0.169599 -3.128052 3.756766 0
M  V30 38 H 1.482956 -1.626963 5.966988 0
M  V30 39 H 3.789022 -1.006930 6.076226 0
M  V30 40 H 5.116824 -0.730946 4.105033 0
M  V30 41 H 4.363361 -2.065101 -0.015530 0
M  V30 42 H 5.628973 -0.854469 0.061373 0
M  V30 43 H 4.059858 0.995141 0.015256 0
M  V30 44 H 1.869009 0.354372 0.616073 0
M  V30 45 H 1.938762 -1.129162 -0.484305 0
M  V30 46 H 0.610481 0.855285 -1.395227 0
M  V30 47 H 2.245945 1.636777 -1.600711 0
M  V30 48 H 0.167882 -1.078852 -2.824305 0
M  V30 49 H 0.316231 0.395726 -3.769048 0
M  V30 50 H 1.063843 -3.243425 -3.754571 0
M  V30 51 H 1.638592 -4.472012 -5.878398 0
M  V30 52 H 2.119413 -3.125578 -7.952063 0
M  V30 53 H 2.030201 -0.668017 -7.906577 0
M  V30 54 H 1.471318 0.478622 -5.834679 0
M  V30 55 H 3.653185 -0.976316 -3.667421 0
M  V30 56 H 3.113969 -1.781759 -2.101920 0
M  V30 57 H 4.129721 1.076909 -2.196588 0
M  V30 58 H 5.220424 -0.326654 -1.975229 0
M  V30 59 H 1.665359 -1.763417 1.796262 0
M  V30 60 H -2.160193 -3.533624 3.551236 0
M  V30 61 H -4.512859 -3.957718 3.310282 0
M  V30 62 H -5.060236 1.482040 3.196025 0
M  V30 63 H -8.792613 1.283759 2.805151 0
M  V30 64 H -8.084580 3.375152 4.017480 0
M  V30 65 H -6.416949 2.620223 4.300262 0
M  V30 66 H -7.836907 3.231050 1.517407 0
M  V30 67 H -6.095972 2.482482 1.751836 0
M  V30 68 H -2.876538 0.642938 3.431947 0
M  V30 END ATOM
M  V30 BEGIN BOND
M  V30 1 2 1 2
M  V30 2 1 2 3
M  V30 3 1 3 4
M  V30 4 2 4 5
M  V30 5 1 5 6
M  V30 6 2 6 7
M  V30 7 1 7 8
M  V30 8 1 8 9
M  V30 9 1 9 10
M  V30 10 1 10 11
M  V30 11 1 11 12
M  V30 12 1 12 13
M  V30 13 1 13 14
M  V30 14 1 14 15
M  V30 15 1 15 16
M  V30 16 2 16 17
M  V30 17 1 17 18
M  V30 18 2 18 19
M  V30 19 1 19 20
M  V30 20 2 20 21
M  V30 21 1 14 22
M  V30 22 1 22 23
M  V30 23 2 8 24
M  V30 24 1 2 25
M  V30 25 2 25 26
M  V30 26 1 26 27
M  V30 27 2 27 28
M  V30 28 1 28 29
M  V30 29 1 29 30
M  V30 30 1 30 31
M  V30 31 2 31 32
M  V30 32 1 31 33
M  V30 33 1 33 34
M  V30 34 1 34 35
M  V30 35 2 29 36
M  V30 36 1 24 4
M  V30 37 1 36 25
M  V30 38 1 23 11
M  V30 39 1 35 33
M  V30 40 1 21 16
M  V30 41 1 3 37
M  V30 42 1 5 38
M  V30 43 1 6 39
M  V30 44 1 7 40
M  V30 45 1 10 41
M  V30 46 1 10 42
M  V30 47 1 11 43
M  V30 48 1 12 44
M  V30 49 1 12 45
M  V30 50 1 13 46
M  V30 51 1 13 47
M  V30 52 1 15 48
M  V30 53 1 15 49
M  V30 54 1 17 50
M  V30 55 1 18 51
M  V30 56 1 19 52
M  V30 57 1 20 53
M  V30 58 1 21 54
M  V30 59 1 22 55
M  V30 60 1 22 56
M  V30 61 1 23 57
M  V30 62 1 23 58
M  V30 63 1 24 59
M  V30 64 1 26 60
M  V30 65 1 27 61
M  V30 66 1 30 62
M  V30 67 1 33 63
M  V30 68 1 34 64
M  V30 69 1 34 65
M  V30 70 1 35 66
M  V30 71 1 35 67
M  V30 72 1 36 68
M  V30 END BOND
M  V30 END CTAB
M  END
>  <Dataset>  (239) 
ChEMBL_Kinases

>  <Ligand_Instance>  (239) 
nan

>  <PDB_ID>  (239) 
nan

>  <Standardized_SMILES>  (239) 
O=C(Nc1cccc(OCC2CCN(Cc3ccccc3)CC2)c1)c1ccnc(NC(=O)C2CC2)c1

>  <Name>  (239) 
nan

>  <Pocket>  (239) 
nan

>  <ATP_Site>  (239) 
nan

>  <Peripheral>  (239) 
nan

>  <Num_H_Atoms_ProtBoundConf>  (239) 
nan

>  <Num_Resolved_Atoms>  (239) 
nan

>  <Num_Not_Resolved_Atoms>  (239) 
nan

$$$$
CHEMBL4855209
     RDKit          3D

  0  0  0  0  0  0  0  0  0  0999 V3000
M  V30 BEGIN CTAB
M  V30 COUNTS 53 56 0 0 0
M  V30 BEGIN ATOM
M  V30 1 C 6.663544 -4.216179 2.705943 0
M  V30 2 N 6.421993 -3.650848 1.395127 0
M  V30 3 C 5.747341 -2.398836 1.407495 0
M  V30 4 O 5.391366 -1.831741 2.467340 0
M  V30 5 C 5.457196 -1.746719 0.131800 0
M  V30 6 C 4.812617 -0.540687 0.047212 0
M  V30 7 C 4.530566 0.090998 -1.169064 0
M  V30 8 O 3.873042 1.299448 -0.999788 0
M  V30 9 C 2.490206 1.286705 -0.929705 0
M  V30 10 C 2.092418 1.805811 0.291690 0
M  V30 11 C 0.738070 1.912606 0.634412 0
M  V30 12 C -0.210884 1.494120 -0.259010 0
M  V30 13 N -1.609537 1.571715 0.018780 0
M  V30 14 C -2.241012 0.428601 0.667116 0
M  V30 15 O -1.135428 -0.103589 0.656751 0
M  V30 16 C -3.649110 0.685811 0.867076 0
M  V30 17 N -4.392168 1.778784 0.545205 0
M  V30 18 C -5.653428 1.573239 0.919115 0
M  V30 19 S -6.780403 2.904689 0.576641 0
M  V30 20 C -7.536255 2.727207 -1.084063 0
M  V30 21 O -5.671984 0.405341 1.444812 0
M  V30 22 C -4.512393 -0.197720 1.454747 0
M  V30 23 C -4.435914 -1.517436 2.027019 0
M  V30 24 C -5.560335 -2.119979 2.548170 0
M  V30 25 C -5.565473 -3.378241 3.111542 0
M  V30 26 C -4.417806 -4.131638 3.191020 0
M  V30 27 F -4.463279 -5.361610 3.750790 0
M  V30 28 C -3.277169 -3.577200 2.687708 0
M  V30 29 C -3.337912 -2.320064 2.139608 0
M  V30 30 C 0.193827 0.978912 -1.471975 0
M  V30 31 C 1.519027 0.871286 -1.814555 0
M  V30 32 F 2.043130 0.388628 -2.962729 0
M  V30 33 C 4.933061 -0.555993 -2.316038 0
M  V30 34 C 5.582435 -1.769991 -2.243418 0
M  V30 35 N 5.818388 -2.315060 -1.038780 0
M  V30 36 H 5.659982 -4.515504 3.122445 0
M  V30 37 H 7.352861 -5.061493 2.603997 0
M  V30 38 H 7.057158 -3.468806 3.395222 0
M  V30 39 H 6.712957 -4.114040 0.526561 0
M  V30 40 H 4.539890 -0.120212 1.028478 0
M  V30 41 H 2.718472 2.183127 1.113706 0
M  V30 42 H 0.364953 2.306000 1.565101 0
M  V30 43 H -1.989806 2.532778 -0.322894 0
M  V30 44 H -8.456501 2.097788 -1.030597 0
M  V30 45 H -7.711044 3.702591 -1.562173 0
M  V30 46 H -6.822105 2.173501 -1.730199 0
M  V30 47 H -6.549470 -1.646452 2.558191 0
M  V30 48 H -6.470025 -3.812337 3.508177 0
M  V30 49 H -2.364297 -4.149974 2.739078 0
M  V30 50 H -2.390767 -1.979733 1.775241 0
M  V30 51 H -0.483132 0.628454 -2.228490 0
M  V30 52 H 4.685380 -0.010736 -3.214261 0
M  V30 53 H 5.873825 -2.229299 -3.177974 0
M  V30 END ATOM
M  V30 BEGIN BOND
M  V30 1 1 1 2
M  V30 2 1 2 3
M  V30 3 2 3 4
M  V30 4 1 3 5
M  V30 5 2 5 6
M  V30 6 1 6 7
M  V30 7 1 7 8
M  V30 8 1 8 9
M  V30 9 2 9 10
M  V30 10 1 10 11
M  V30 11 2 11 12
M  V30 12 1 12 13
M  V30 13 1 13 14
M  V30 14 2 14 15
M  V30 15 1 14 16
M  V30 16 1 16 17
M  V30 17 2 17 18
M  V30 18 1 18 19
M  V30 19 1 19 20
M  V30 20 1 18 21
M  V30 21 1 21 22
M  V30 22 1 22 23
M  V30 23 2 23 24
M  V30 24 1 24 25
M  V30 25 2 25 26
M  V30 26 1 26 27
M  V30 27 1 26 28
M  V30 28 2 28 29
M  V30 29 1 12 30
M  V30 30 2 30 31
M  V30 31 1 31 32
M  V30 32 2 7 33
M  V30 33 1 33 34
M  V30 34 2 34 35
M  V30 35 1 35 5
M  V30 36 1 31 9
M  V30 37 2 22 16
M  V30 38 1 29 23
M  V30 39 1 1 36
M  V30 40 1 1 37
M  V30 41 1 1 38
M  V30 42 1 2 39
M  V30 43 1 6 40
M  V30 44 1 10 41
M  V30 45 1 11 42
M  V30 46 1 13 43
M  V30 47 1 20 44
M  V30 48 1 20 45
M  V30 49 1 20 46
M  V30 50 1 24 47
M  V30 51 1 25 48
M  V30 52 1 28 49
M  V30 53 1 29 50
M  V30 54 1 30 51
M  V30 55 1 33 52
M  V30 56 1 34 53
M  V30 END BOND
M  V30 END CTAB
M  END
>  <Dataset>  (240) 
ChEMBL_Kinases

>  <Ligand_Instance>  (240) 
nan

>  <PDB_ID>  (240) 
nan

>  <Standardized_SMILES>  (240) 
CNC(=O)c1cc(Oc2ccc(NC(=O)c3nc(SC)oc3-c3ccc(F)cc3)cc2F)ccn1

>  <Name>  (240) 
nan

>  <Pocket>  (240) 
nan

>  <ATP_Site>  (240) 
nan

>  <Peripheral>  (240) 
nan

>  <Num_H_Atoms_ProtBoundConf>  (240) 
nan

>  <Num_Resolved_Atoms>  (240) 
nan

>  <Num_Not_Resolved_Atoms>  (240) 
nan

$$$$
CHEMBL4855218
     RDKit          3D

  0  0  0  0  0  0  0  0  0  0999 V3000
M  V30 BEGIN CTAB
M  V30 COUNTS 41 44 0 0 0
M  V30 BEGIN ATOM
M  V30 1 O 4.097709 -3.744692 3.288351 0
M  V30 2 C 3.133185 -4.491376 2.909118 0
M  V30 3 O 3.156820 -5.828501 3.234127 0
M  V30 4 C 2.019991 -3.942613 2.142879 0
M  V30 5 C 0.969183 -4.765547 1.731930 0
M  V30 6 C -0.061040 -4.197345 1.008761 0
M  V30 7 C -0.080505 -2.872877 0.689099 0
M  V30 8 C 0.939173 -2.032714 1.078183 0
M  V30 9 C 1.972297 -2.607900 1.804642 0
M  V30 10 C 0.911702 -0.693709 0.750547 0
M  V30 11 C -0.105126 -0.116607 0.033137 0
M  V30 12 N -0.102618 1.264022 -0.282764 0
M  V30 13 C 0.996363 2.124228 0.169566 0
M  V30 14 C 0.793199 3.539338 -0.347675 0
M  V30 15 C 0.033631 4.200147 0.795394 0
M  V30 16 C 0.771280 3.671412 1.986932 0
M  V30 17 C 1.034427 2.231684 1.658616 0
M  V30 18 C -1.094292 -0.981361 -0.332798 0
M  V30 19 C -2.170663 -0.530194 -1.055090 0
M  V30 20 C -3.229091 -1.322108 -1.477631 0
M  V30 21 N -3.186087 -2.639857 -1.146122 0
M  V30 22 C -2.140362 -3.131089 -0.432068 0
M  V30 23 C -1.108849 -2.321641 -0.029042 0
M  V30 24 H 3.543795 -6.116119 4.144751 0
M  V30 25 H 1.027498 -5.813236 2.009403 0
M  V30 26 H -0.810792 -4.919158 0.746914 0
M  V30 27 H 2.786871 -1.963829 2.121770 0
M  V30 28 H 1.758160 -0.154112 1.106657 0
M  V30 29 H -0.830498 1.733637 -0.821206 0
M  V30 30 H 1.948732 1.758119 -0.259090 0
M  V30 31 H 1.742041 4.053568 -0.505071 0
M  V30 32 H 0.162437 3.495241 -1.253338 0
M  V30 33 H -1.012505 3.819531 0.799934 0
M  V30 34 H 0.096754 5.291602 0.684251 0
M  V30 35 H 0.176012 3.777619 2.921329 0
M  V30 36 H 1.742044 4.205684 2.108260 0
M  V30 37 H 0.258401 1.573747 2.116156 0
M  V30 38 H 2.018744 1.973752 2.115709 0
M  V30 39 H -2.269039 0.485136 -1.347866 0
M  V30 40 H -4.068695 -0.932368 -2.049848 0
M  V30 41 H -2.267453 -4.175565 -0.261728 0
M  V30 END ATOM
M  V30 BEGIN BOND
M  V30 1 2 1 2
M  V30 2 1 2 3
M  V30 3 1 2 4
M  V30 4 2 4 5
M  V30 5 1 5 6
M  V30 6 2 6 7
M  V30 7 1 7 8
M  V30 8 2 8 9
M  V30 9 1 8 10
M  V30 10 2 10 11
M  V30 11 1 11 12
M  V30 12 1 12 13
M  V30 13 1 13 14
M  V30 14 1 14 15
M  V30 15 1 15 16
M  V30 16 1 16 17
M  V30 17 1 11 18
M  V30 18 2 18 19
M  V30 19 1 19 20
M  V30 20 2 20 21
M  V30 21 1 21 22
M  V30 22 2 22 23
M  V30 23 1 9 4
M  V30 24 1 17 13
M  V30 25 1 23 18
M  V30 26 1 23 7
M  V30 27 1 3 24
M  V30 28 1 5 25
M  V30 29 1 6 26
M  V30 30 1 9 27
M  V30 31 1 10 28
M  V30 32 1 12 29
M  V30 33 1 13 30
M  V30 34 1 14 31
M  V30 35 1 14 32
M  V30 36 1 15 33
M  V30 37 1 15 34
M  V30 38 1 16 35
M  V30 39 1 16 36
M  V30 40 1 17 37
M  V30 41 1 17 38
M  V30 42 1 19 39
M  V30 43 1 20 40
M  V30 44 1 22 41
M  V30 END BOND
M  V30 END CTAB
M  END
>  <Dataset>  (241) 
ChEMBL_Kinases

>  <Ligand_Instance>  (241) 
nan

>  <PDB_ID>  (241) 
nan

>  <Standardized_SMILES>  (241) 
O=C(O)c1ccc2c(c1)cc(NC1CCCC1)c1ccncc12

>  <Name>  (241) 
nan

>  <Pocket>  (241) 
nan

>  <ATP_Site>  (241) 
nan

>  <Peripheral>  (241) 
nan

>  <Num_H_Atoms_ProtBoundConf>  (241) 
nan

>  <Num_Resolved_Atoms>  (241) 
nan

>  <Num_Not_Resolved_Atoms>  (241) 
nan

$$$$
CHEMBL4855343
     RDKit          3D

  0  0  0  0  0  0  0  0  0  0999 V3000
M  V30 BEGIN CTAB
M  V30 COUNTS 45 47 0 0 0
M  V30 BEGIN ATOM
M  V30 1 N 0.479816 -6.356473 4.276409 0
M  V30 2 C 0.342742 -5.734832 3.315069 0
M  V30 3 C 0.172624 -4.970438 2.121454 0
M  V30 4 C 0.391317 -5.564179 0.895654 0
M  V30 5 C 0.236590 -4.856711 -0.267676 0
M  V30 6 C -0.137346 -3.537833 -0.317046 0
M  V30 7 N -0.315453 -2.772498 -1.490957 0
M  V30 8 C -0.605200 -1.404959 -1.656048 0
M  V30 9 N -0.770706 -0.950686 -2.900523 0
M  V30 10 C -1.044665 0.321787 -3.210130 0
M  V30 11 C -1.159325 1.205083 -2.162120 0
M  V30 12 C -1.461318 2.629557 -2.443545 0
M  V30 13 F -0.472662 3.488568 -1.982347 0
M  V30 14 F -2.659576 3.035324 -1.895817 0
M  V30 15 F -1.571750 2.862788 -3.808478 0
M  V30 16 C -0.998564 0.793077 -0.858731 0
M  V30 17 N -1.127711 1.714409 0.184081 0
M  V30 18 C -0.958913 1.329569 1.570316 0
M  V30 19 C 0.434942 0.836504 1.855632 0
M  V30 20 C 0.518068 0.457951 3.306591 0
M  V30 21 C 1.677279 1.075878 4.019438 0
M  V30 22 C 2.958740 1.067378 3.250649 0
M  V30 23 C 2.751728 1.370843 1.806837 0
M  V30 24 N 1.413646 1.867214 1.548741 0
M  V30 25 N -0.727611 -0.504124 -0.681568 0
M  V30 26 C -0.340790 -3.002873 0.940853 0
M  V30 27 N -0.191939 -3.684980 2.073129 0
M  V30 28 H 0.688006 -6.594782 0.831401 0
M  V30 29 H 0.421614 -5.370891 -1.218263 0
M  V30 30 H -0.201046 -3.374896 -2.339727 0
M  V30 31 H -1.163051 0.601325 -4.254897 0
M  V30 32 H -1.351370 2.713778 -0.007922 0
M  V30 33 H -1.162835 2.173161 2.260641 0
M  V30 34 H -1.648117 0.495696 1.825809 0
M  V30 35 H 0.691333 -0.022749 1.212141 0
M  V30 36 H -0.400923 0.789131 3.873810 0
M  V30 37 H 0.580759 -0.653035 3.403449 0
M  V30 38 H 1.455828 2.099612 4.364133 0
M  V30 39 H 1.844181 0.467162 4.938537 0
M  V30 40 H 3.438721 0.064422 3.332876 0
M  V30 41 H 3.691902 1.784144 3.693552 0
M  V30 42 H 3.433730 2.196869 1.497854 0
M  V30 43 H 2.965920 0.482839 1.166948 0
M  V30 44 H 1.351215 2.052750 0.526509 0
M  V30 45 H -0.640995 -1.992885 1.123432 0
M  V30 END ATOM
M  V30 BEGIN BOND
M  V30 1 3 1 2
M  V30 2 1 2 3
M  V30 3 2 3 4
M  V30 4 1 4 5
M  V30 5 2 5 6
M  V30 6 1 6 7
M  V30 7 1 7 8
M  V30 8 2 8 9
M  V30 9 1 9 10
M  V30 10 2 10 11
M  V30 11 1 11 12
M  V30 12 1 12 13
M  V30 13 1 12 14
M  V30 14 1 12 15
M  V30 15 1 11 16
M  V30 16 1 16 17
M  V30 17 1 17 18
M  V30 18 1 18 19
M  V30 19 1 19 20
M  V30 20 1 20 21
M  V30 21 1 21 22
M  V30 22 1 22 23
M  V30 23 1 23 24
M  V30 24 2 16 25
M  V30 25 1 6 26
M  V30 26 2 26 27
M  V30 27 1 27 3
M  V30 28 1 25 8
M  V30 29 1 24 19
M  V30 30 1 4 28
M  V30 31 1 5 29
M  V30 32 1 7 30
M  V30 33 1 10 31
M  V30 34 1 17 32
M  V30 35 1 18 33
M  V30 36 1 18 34
M  V30 37 1 19 35
M  V30 38 1 20 36
M  V30 39 1 20 37
M  V30 40 1 21 38
M  V30 41 1 21 39
M  V30 42 1 22 40
M  V30 43 1 22 41
M  V30 44 1 23 42
M  V30 45 1 23 43
M  V30 46 1 24 44
M  V30 47 1 26 45
M  V30 END BOND
M  V30 END CTAB
M  END
>  <Dataset>  (242) 
ChEMBL_Kinases

>  <Ligand_Instance>  (242) 
nan

>  <PDB_ID>  (242) 
nan

>  <Standardized_SMILES>  (242) 
N#Cc1ccc(Nc2ncc(C(F)(F)F)c(NCC3CCCCN3)n2)cn1

>  <Name>  (242) 
nan

>  <Pocket>  (242) 
nan

>  <ATP_Site>  (242) 
nan

>  <Peripheral>  (242) 
nan

>  <Num_H_Atoms_ProtBoundConf>  (242) 
nan

>  <Num_Resolved_Atoms>  (242) 
nan

>  <Num_Not_Resolved_Atoms>  (242) 
nan

$$$$
CHEMBL4855351
     RDKit          3D

  0  0  0  0  0  0  0  0  0  0999 V3000
M  V30 BEGIN CTAB
M  V30 COUNTS 47 50 0 0 0
M  V30 BEGIN ATOM
M  V30 1 C -4.042330 -6.972001 -0.525161 0
M  V30 2 C -2.778093 -6.220713 -0.674262 0
M  V30 3 C -1.587250 -6.775274 -1.116414 0
M  V30 4 C -0.438470 -6.023988 -1.235494 0
M  V30 5 C -0.495139 -4.685632 -0.900855 0
M  V30 6 C 0.448537 -3.677676 -0.905265 0
M  V30 7 C -0.161351 -2.532077 -0.472879 0
M  V30 8 C 0.347538 -1.153995 -0.275796 0
M  V30 9 O -0.334858 -0.157512 0.139810 0
M  V30 10 N 1.697328 -0.769782 -0.534902 0
M  V30 11 C 1.818584 0.627649 -0.232412 0
M  V30 12 C 1.587877 1.583677 -1.200688 0
M  V30 13 C 1.694354 2.956850 -0.950932 0
M  V30 14 C 2.048231 3.269986 0.340941 0
M  V30 15 C 2.284883 2.336519 1.329040 0
M  V30 16 C 2.659797 2.676007 2.696856 0
M  V30 17 N 3.912652 2.499278 3.185345 0
M  V30 18 N 3.944116 2.897563 4.451499 0
M  V30 19 C 2.710325 3.334636 4.789399 0
M  V30 20 N 1.922740 3.192677 3.694424 0
M  V30 21 C 0.521830 3.535264 3.599560 0
M  V30 22 C 0.318455 4.872282 2.914270 0
M  V30 23 C -0.291679 2.490404 2.855365 0
M  V30 24 N 2.160077 1.041218 1.002146 0
M  V30 25 N -1.458349 -2.785317 -0.196214 0
M  V30 26 C -1.660977 -4.089772 -0.455333 0
M  V30 27 C -2.804983 -4.863349 -0.342822 0
M  V30 28 H -3.891193 -7.972701 -0.980740 0
M  V30 29 H -4.877569 -6.437786 -1.024894 0
M  V30 30 H -4.218295 -7.116725 0.573329 0
M  V30 31 H -1.576143 -7.826090 -1.370479 0
M  V30 32 H 0.502265 -6.418734 -1.574418 0
M  V30 33 H 1.479023 -3.715308 -1.182174 0
M  V30 34 H 2.367712 -1.515964 -0.887554 0
M  V30 35 H 1.312196 1.282739 -2.201005 0
M  V30 36 H 1.522148 3.719859 -1.679041 0
M  V30 37 H 2.158250 4.305273 0.640699 0
M  V30 38 H 2.398139 3.729313 5.759381 0
M  V30 39 H 0.080618 3.656697 4.632169 0
M  V30 40 H -0.457301 5.477380 3.415955 0
M  V30 41 H 0.027164 4.685408 1.864631 0
M  V30 42 H 1.268485 5.435708 2.995715 0
M  V30 43 H -1.323384 2.490447 3.307990 0
M  V30 44 H -0.416310 2.740869 1.775388 0
M  V30 45 H 0.160803 1.473664 2.914101 0
M  V30 46 H -2.212192 -2.137345 0.154655 0
M  V30 47 H -3.738173 -4.407896 0.008664 0
M  V30 END ATOM
M  V30 BEGIN BOND
M  V30 1 1 1 2
M  V30 2 2 2 3
M  V30 3 1 3 4
M  V30 4 2 4 5
M  V30 5 1 5 6
M  V30 6 2 6 7
M  V30 7 1 7 8
M  V30 8 2 8 9
M  V30 9 1 8 10
M  V30 10 1 10 11
M  V30 11 2 11 12
M  V30 12 1 12 13
M  V30 13 2 13 14
M  V30 14 1 14 15
M  V30 15 1 15 16
M  V30 16 2 16 17
M  V30 17 1 17 18
M  V30 18 2 18 19
M  V30 19 1 19 20
M  V30 20 1 20 21
M  V30 21 1 21 22
M  V30 22 1 21 23
M  V30 23 2 15 24
M  V30 24 1 7 25
M  V30 25 1 25 26
M  V30 26 2 26 27
M  V30 27 1 27 2
M  V30 28 1 26 5
M  V30 29 1 24 11
M  V30 30 1 20 16
M  V30 31 1 1 28
M  V30 32 1 1 29
M  V30 33 1 1 30
M  V30 34 1 3 31
M  V30 35 1 4 32
M  V30 36 1 6 33
M  V30 37 1 10 34
M  V30 38 1 12 35
M  V30 39 1 13 36
M  V30 40 1 14 37
M  V30 41 1 19 38
M  V30 42 1 21 39
M  V30 43 1 22 40
M  V30 44 1 22 41
M  V30 45 1 22 42
M  V30 46 1 23 43
M  V30 47 1 23 44
M  V30 48 1 23 45
M  V30 49 1 25 46
M  V30 50 1 27 47
M  V30 END BOND
M  V30 END CTAB
M  END
>  <Dataset>  (243) 
ChEMBL_Kinases

>  <Ligand_Instance>  (243) 
nan

>  <PDB_ID>  (243) 
nan

>  <Standardized_SMILES>  (243) 
Cc1ccc2cc(C(=O)Nc3cccc(-c4nncn4C(C)C)n3)[nH]c2c1

>  <Name>  (243) 
nan

>  <Pocket>  (243) 
nan

>  <ATP_Site>  (243) 
nan

>  <Peripheral>  (243) 
nan

>  <Num_H_Atoms_ProtBoundConf>  (243) 
nan

>  <Num_Resolved_Atoms>  (243) 
nan

>  <Num_Not_Resolved_Atoms>  (243) 
nan

$$$$
CHEMBL4079563
     RDKit          3D

  0  0  0  0  0  0  0  0  0  0999 V3000
M  V30 BEGIN CTAB
M  V30 COUNTS 53 58 0 0 0
M  V30 BEGIN ATOM
M  V30 1 Cl -2.843626 -2.064262 5.532398 0
M  V30 2 C -1.583667 -1.497625 4.458128 0
M  V30 3 C -0.289117 -1.380196 4.973797 0
M  V30 4 C 0.677703 -0.930461 4.100549 0
M  V30 5 C 0.352804 -0.621300 2.796862 0
M  V30 6 N 1.373817 -0.195322 2.063256 0
M  V30 7 C 1.205880 0.140076 0.794915 0
M  V30 8 N 2.110099 0.594845 -0.215830 0
M  V30 9 C 2.854186 1.788125 -0.392705 0
M  V30 10 C 3.548336 2.104990 -1.554497 0
M  V30 11 C 4.244264 3.282768 -1.573571 0
M  V30 12 C 4.322727 4.201009 -0.529424 0
M  V30 13 C 4.989341 5.425104 -0.417547 0
M  V30 14 N 4.647593 5.776800 0.833139 0
M  V30 15 N 3.885427 4.908759 1.417695 0
M  V30 16 C 3.601290 3.828635 0.621955 0
M  V30 17 C 2.890693 2.654654 0.678533 0
M  V30 18 N -0.016775 0.044839 0.254045 0
M  V30 19 C -1.090800 -0.378393 0.944198 0
M  V30 20 N -2.444523 -0.559582 0.561795 0
M  V30 21 C -3.769812 -0.733059 0.174356 0
M  V30 22 C -3.955417 -1.714523 -0.964375 0
M  V30 23 C -3.504783 -3.073823 -0.684144 0
M  V30 24 C -4.311607 -4.122616 -0.298162 0
M  V30 25 N -3.595064 -5.253257 -0.077447 0
M  V30 26 C -2.283366 -4.974767 -0.315497 0
M  V30 27 C -1.246051 -5.863128 -0.201234 0
M  V30 28 C -0.005416 -5.269554 -0.518838 0
M  V30 29 C 0.108063 -3.946929 -0.897832 0
M  V30 30 C -1.014397 -3.149309 -0.977222 0
M  V30 31 C -2.262629 -3.652127 -0.680745 0
M  V30 32 C -0.905502 -0.725787 2.264278 0
M  V30 33 C -1.869835 -1.176103 3.137998 0
M  V30 34 H -0.023593 -1.615887 5.987302 0
M  V30 35 H 1.693334 -0.838211 4.501676 0
M  V30 36 H 2.257470 -0.109004 -1.005211 0
M  V30 37 H 3.484525 1.390179 -2.360213 0
M  V30 38 H 4.761449 3.453225 -2.526306 0
M  V30 39 H 5.569941 5.809096 -1.237333 0
M  V30 40 H 3.474425 4.935901 2.395641 0
M  V30 41 H 2.406081 2.539481 1.635892 0
M  V30 42 H -2.275381 -0.223351 -0.453418 0
M  V30 43 H -4.281944 0.230784 -0.139950 0
M  V30 44 H -4.434456 -1.061098 1.047240 0
M  V30 45 H -5.010141 -1.761494 -1.299037 0
M  V30 46 H -3.311982 -1.337186 -1.819812 0
M  V30 47 H -5.405791 -4.078750 -0.173560 0
M  V30 48 H -4.021380 -6.161015 0.224347 0
M  V30 49 H -1.317056 -6.883303 0.088900 0
M  V30 50 H 0.912601 -5.835895 -0.473750 0
M  V30 51 H 1.093988 -3.537578 -1.135652 0
M  V30 52 H -0.938686 -2.116817 -1.284693 0
M  V30 53 H -2.867175 -1.281538 2.786717 0
M  V30 END ATOM
M  V30 BEGIN BOND
M  V30 1 1 1 2
M  V30 2 2 2 3
M  V30 3 1 3 4
M  V30 4 2 4 5
M  V30 5 1 5 6
M  V30 6 2 6 7
M  V30 7 1 7 8
M  V30 8 1 8 9
M  V30 9 2 9 10
M  V30 10 1 10 11
M  V30 11 2 11 12
M  V30 12 1 12 13
M  V30 13 2 13 14
M  V30 14 1 14 15
M  V30 15 1 15 16
M  V30 16 2 16 17
M  V30 17 1 7 18
M  V30 18 2 18 19
M  V30 19 1 19 20
M  V30 20 1 20 21
M  V30 21 1 21 22
M  V30 22 1 22 23
M  V30 23 2 23 24
M  V30 24 1 24 25
M  V30 25 1 25 26
M  V30 26 2 26 27
M  V30 27 1 27 28
M  V30 28 2 28 29
M  V30 29 1 29 30
M  V30 30 2 30 31
M  V30 31 1 19 32
M  V30 32 2 32 33
M  V30 33 1 33 2
M  V30 34 1 32 5
M  V30 35 1 17 9
M  V30 36 1 31 23
M  V30 37 1 16 12
M  V30 38 1 31 26
M  V30 39 1 3 34
M  V30 40 1 4 35
M  V30 41 1 8 36
M  V30 42 1 10 37
M  V30 43 1 11 38
M  V30 44 1 13 39
M  V30 45 1 15 40
M  V30 46 1 17 41
M  V30 47 1 20 42
M  V30 48 1 21 43
M  V30 49 1 21 44
M  V30 50 1 22 45
M  V30 51 1 22 46
M  V30 52 1 24 47
M  V30 53 1 25 48
M  V30 54 1 27 49
M  V30 55 1 28 50
M  V30 56 1 29 51
M  V30 57 1 30 52
M  V30 58 1 33 53
M  V30 END BOND
M  V30 END CTAB
M  END
>  <Dataset>  (244) 
ChEMBL_Kinases

>  <Ligand_Instance>  (244) 
nan

>  <PDB_ID>  (244) 
nan

>  <Standardized_SMILES>  (244) 
Clc1ccc2nc(Nc3ccc4cn[nH]c4c3)nc(NCCc3c[nH]c4ccccc34)c2c1

>  <Name>  (244) 
nan

>  <Pocket>  (244) 
nan

>  <ATP_Site>  (244) 
nan

>  <Peripheral>  (244) 
nan

>  <Num_H_Atoms_ProtBoundConf>  (244) 
nan

>  <Num_Resolved_Atoms>  (244) 
nan

>  <Num_Not_Resolved_Atoms>  (244) 
nan

$$$$
CHEMBL407956
     RDKit          3D

  0  0  0  0  0  0  0  0  0  0999 V3000
M  V30 BEGIN CTAB
M  V30 COUNTS 49 52 0 0 0
M  V30 BEGIN ATOM
M  V30 1 C 1.320751 -0.411123 -3.111103 0
M  V30 2 O 1.039966 -0.049407 -1.791271 0
M  V30 3 C -0.112690 -0.303798 -1.083472 0
M  V30 4 O -0.303646 -0.800344 -2.196667 0
M  V30 5 C -0.351952 0.098487 0.295808 0
M  V30 6 C 0.692527 0.786584 0.871563 0
M  V30 7 C 1.934133 1.063309 0.179762 0
M  V30 8 C 2.108112 2.203467 -0.558319 0
M  V30 9 C 3.330887 2.375788 -1.181255 0
M  V30 10 C 4.324089 1.425825 -1.052752 0
M  V30 11 C 4.145858 0.269382 -0.303378 0
M  V30 12 C 2.934285 0.094892 0.316036 0
M  V30 13 C 0.522865 1.214950 2.151554 0
M  V30 14 C 1.514515 1.911747 2.808283 0
M  V30 15 C 1.348157 2.349035 4.106234 0
M  V30 16 Br 2.678685 3.316688 5.070489 0
M  V30 17 C 0.159399 2.076905 4.749956 0
M  V30 18 C -0.807364 1.376912 4.057188 0
M  V30 19 C -0.679374 0.918257 2.748055 0
M  V30 20 C -1.683824 0.224423 2.113805 0
M  V30 21 O -2.700977 0.052173 2.816232 0
M  V30 22 N -1.535213 -0.207466 0.850638 0
M  V30 23 C -2.615244 -0.929593 0.218930 0
M  V30 24 C -2.562589 -2.381671 0.468417 0
M  V30 25 C -3.271037 -2.908229 1.556582 0
M  V30 26 C -3.287064 -4.241136 1.875604 0
M  V30 27 C -2.584985 -5.151722 1.116140 0
M  V30 28 N -2.571244 -6.540303 1.406853 0
M  V30 29 C -1.872207 -4.690020 0.036073 0
M  V30 30 C -1.891364 -3.353353 -0.235474 0
M  V30 31 H 1.387249 -1.499744 -3.297561 0
M  V30 32 H 2.352944 -0.008426 -3.331027 0
M  V30 33 H 0.677455 0.112407 -3.860085 0
M  V30 34 H 1.307259 2.920578 -0.633473 0
M  V30 35 H 3.498840 3.279961 -1.779372 0
M  V30 36 H 5.252874 1.644696 -1.577139 0
M  V30 37 H 4.993773 -0.385959 -0.284275 0
M  V30 38 H 2.836712 -0.817065 0.888609 0
M  V30 39 H 2.444701 2.125229 2.305961 0
M  V30 40 H -0.025555 2.396132 5.768813 0
M  V30 41 H -1.727383 1.179949 4.590030 0
M  V30 42 H -3.572280 -0.541980 0.673817 0
M  V30 43 H -2.593298 -0.691028 -0.870084 0
M  V30 44 H -3.870529 -2.329805 2.242055 0
M  V30 45 H -3.822320 -4.677509 2.706550 0
M  V30 46 H -2.506363 -7.279664 0.675429 0
M  V30 47 H -2.626319 -6.920760 2.392162 0
M  V30 48 H -1.312972 -5.374531 -0.578129 0
M  V30 49 H -1.325344 -3.030592 -1.087194 0
M  V30 END ATOM
M  V30 BEGIN BOND
M  V30 1 1 1 2
M  V30 2 1 2 3
M  V30 3 2 3 4
M  V30 4 1 3 5
M  V30 5 2 5 6
M  V30 6 1 6 7
M  V30 7 2 7 8
M  V30 8 1 8 9
M  V30 9 2 9 10
M  V30 10 1 10 11
M  V30 11 2 11 12
M  V30 12 1 6 13
M  V30 13 2 13 14
M  V30 14 1 14 15
M  V30 15 1 15 16
M  V30 16 2 15 17
M  V30 17 1 17 18
M  V30 18 2 18 19
M  V30 19 1 19 20
M  V30 20 2 20 21
M  V30 21 1 20 22
M  V30 22 1 22 23
M  V30 23 1 23 24
M  V30 24 2 24 25
M  V30 25 1 25 26
M  V30 26 2 26 27
M  V30 27 1 27 28
M  V30 28 1 27 29
M  V30 29 2 29 30
M  V30 30 1 22 5
M  V30 31 1 30 24
M  V30 32 1 12 7
M  V30 33 1 19 13
M  V30 34 1 1 31
M  V30 35 1 1 32
M  V30 36 1 1 33
M  V30 37 1 8 34
M  V30 38 1 9 35
M  V30 39 1 10 36
M  V30 40 1 11 37
M  V30 41 1 12 38
M  V30 42 1 14 39
M  V30 43 1 17 40
M  V30 44 1 18 41
M  V30 45 1 23 42
M  V30 46 1 23 43
M  V30 47 1 25 44
M  V30 48 1 26 45
M  V30 49 1 28 46
M  V30 50 1 28 47
M  V30 51 1 29 48
M  V30 52 1 30 49
M  V30 END BOND
M  V30 END CTAB
M  END
>  <Dataset>  (245) 
ChEMBL_Kinases

>  <Ligand_Instance>  (245) 
nan

>  <PDB_ID>  (245) 
nan

>  <Standardized_SMILES>  (245) 
COC(=O)c1c(-c2ccccc2)c2cc(Br)ccc2c(=O)n1Cc1ccc(N)cc1

>  <Name>  (245) 
nan

>  <Pocket>  (245) 
nan

>  <ATP_Site>  (245) 
nan

>  <Peripheral>  (245) 
nan

>  <Num_H_Atoms_ProtBoundConf>  (245) 
nan

>  <Num_Resolved_Atoms>  (245) 
nan

>  <Num_Not_Resolved_Atoms>  (245) 
nan

$$$$
CHEMBL4077554
     RDKit          3D

  0  0  0  0  0  0  0  0  0  0999 V3000
M  V30 BEGIN CTAB
M  V30 COUNTS 152 154 0 0 0
M  V30 BEGIN ATOM
M  V30 1 N 4.690750 -4.566988 0.803641 0
M  V30 2 C 3.927642 -4.678436 -0.455155 0
M  V30 3 C 3.416459 -6.069199 -0.609292 0
M  V30 4 C 2.631769 -6.343754 -1.858713 0
M  V30 5 C 1.385666 -5.543182 -2.026374 0
M  V30 6 C 0.662680 -5.902301 -3.326078 0 CFG=2
M  V30 7 N -0.552465 -5.144687 -3.480619 0
M  V30 8 C -0.995334 -4.176170 -4.444318 0
M  V30 9 O -0.205967 -3.861640 -5.385175 0
M  V30 10 C -2.338199 -3.616413 -4.265272 0 CFG=2
M  V30 11 C -3.352080 -4.691026 -4.728609 0
M  V30 12 C -3.219675 -5.912434 -3.965322 0
M  V30 13 O -2.537242 -6.760989 -4.587026 0
M  V30 14 O -3.784180 -6.118044 -2.690330 0
M  V30 15 N -2.602569 -2.517980 -5.178068 0
M  V30 16 C -3.457897 -1.550763 -4.600805 0
M  V30 17 O -4.012669 -1.483714 -3.450949 0
M  V30 18 C -4.144640 -0.235524 -4.889710 0 CFG=2
M  V30 19 C -3.230463 0.852890 -5.276923 0
M  V30 20 C -2.209761 1.162582 -4.239595 0
M  V30 21 O -2.119551 0.537214 -3.136940 0
M  V30 22 O -1.173165 2.008720 -4.009647 0
M  V30 23 N -4.872669 0.055273 -3.662899 0
M  V30 24 C -6.255626 -0.269364 -3.490064 0
M  V30 25 O -6.678388 -0.821892 -4.555265 0
M  V30 26 C -6.899818 0.073866 -2.168313 0 CFG=2
M  V30 27 C -8.285662 0.541920 -2.358142 0
M  V30 28 C -9.069539 -0.520671 -3.011473 0
M  V30 29 O -8.858430 -1.696403 -3.438871 0
M  V30 30 O -10.379464 -0.166174 -3.222571 0
M  V30 31 N -6.072183 0.926587 -1.387657 0
M  V30 32 C -5.041807 0.953081 -0.457976 0
M  V30 33 O -4.622833 -0.222534 -0.160145 0
M  V30 34 C -4.216474 1.834776 0.339316 0 CFG=2
M  V30 35 C -3.958328 3.213658 -0.117296 0
M  V30 36 C -5.208861 4.004240 -0.186888 0
M  V30 37 O -6.453858 3.933370 0.059671 0
M  V30 38 O -4.978001 5.285943 -0.699332 0
M  V30 39 N -3.004251 1.112477 0.758431 0
M  V30 40 C -2.565336 0.687678 2.031573 0
M  V30 41 O -3.280072 0.926849 3.034314 0
M  V30 42 C -1.302871 0.045618 1.766553 0 CFG=2
M  V30 43 C -1.530822 -1.237554 0.881402 0
M  V30 44 C -0.165076 -1.730788 0.585728 0
M  V30 45 O 0.704178 -0.835058 0.892156 0
M  V30 46 O 0.994454 -2.404541 0.231465 0
M  V30 47 N -0.680524 -0.447018 2.996072 0
M  V30 48 C -0.018233 -1.449041 3.721405 0
M  V30 49 O 0.208098 -2.545247 3.171646 0
M  V30 50 C 0.416798 -1.200788 5.149420 0 CFG=2
M  V30 51 C 0.064805 -2.339108 6.031194 0
M  V30 52 C 0.734616 -3.583638 5.558505 0
M  V30 53 O 0.530414 -4.703085 6.128895 0
M  V30 54 O 1.584643 -4.262184 4.702277 0
M  V30 55 N 0.031314 0.089469 5.590623 0
M  V30 56 C 0.553077 1.434106 5.731502 0
M  V30 57 O 1.609422 0.928814 5.178938 0
M  V30 58 C -0.272266 2.446043 6.315042 0
M  V30 59 C -0.431286 3.810967 5.856401 0
M  V30 60 C 0.711074 4.727159 5.579483 0
M  V30 61 C 1.407903 4.310088 4.333264 0
M  V30 62 C 2.563632 5.111067 3.880692 0
M  V30 63 C 3.778406 5.160156 4.718229 0
M  V30 64 C 4.406509 3.792838 4.928735 0
M  V30 65 C 4.736862 3.140572 3.608849 0
M  V30 66 O 5.620214 3.893386 2.806374 0
M  V30 67 C 6.000946 3.425494 1.539003 0
M  V30 68 N 5.599505 2.283288 0.979330 0
M  V30 69 C 6.015623 1.898115 -0.263881 0
M  V30 70 C 5.559073 0.703808 -0.790692 0
M  V30 71 C 6.015029 0.378952 -2.051365 0
M  V30 72 C 5.572899 -0.865722 -2.653604 0
M  V30 73 O 5.918479 -1.264332 -3.806991 0
M  V30 74 O 4.732444 -1.793274 -2.091319 0
M  V30 75 C 6.888918 1.170406 -2.805219 0
M  V30 76 C 7.310771 2.364493 -2.212901 0
M  V30 77 C 6.882904 2.729395 -0.957964 0
M  V30 78 C 7.315041 3.910437 -0.410273 0
M  V30 79 C 8.166881 4.725343 -1.091098 0
M  V30 80 N 8.602107 5.892257 -0.563292 0
M  V30 81 C 8.198056 6.287546 0.665906 0
M  V30 82 C 7.329336 5.455644 1.359410 0
M  V30 83 C 6.860083 4.241492 0.844751 0
M  V30 84 C 0.364363 -7.356898 -3.370816 0
M  V30 85 O 1.081151 -8.423493 -3.341301 0
M  V30 86 O -0.309033 -8.571531 -3.435258 0
M  V30 87 H 4.895079 -3.558074 0.941219 0
M  V30 88 H 5.596763 -5.098803 0.711710 0
M  V30 89 H 3.158377 -3.916130 -0.389231 0
M  V30 90 H 4.644933 -4.366110 -1.239410 0
M  V30 91 H 2.848285 -6.345489 0.320108 0
M  V30 92 H 4.294271 -6.777702 -0.591394 0
M  V30 93 H 2.430474 -7.441047 -1.841452 0
M  V30 94 H 3.330561 -6.176972 -2.713083 0
M  V30 95 H 1.703125 -4.466034 -2.147783 0
M  V30 96 H 0.709815 -5.550083 -1.165613 0
M  V30 97 H 1.383622 -5.725553 -4.180113 0
M  V30 98 H -1.126671 -5.451833 -2.669454 0
M  V30 99 H -2.643593 -3.405036 -3.239254 0
M  V30 100 H -3.343452 -4.783345 -5.814608 0
M  V30 101 H -4.344715 -4.228421 -4.436385 0
M  V30 102 H -3.658497 -7.042444 -2.260690 0
M  V30 103 H -2.439676 -2.102296 -6.115190 0
M  V30 104 H -4.866198 -0.431539 -5.723481 0
M  V30 105 H -3.841576 1.757399 -5.463086 0
M  V30 106 H -2.707386 0.622595 -6.233870 0
M  V30 107 H -1.241687 2.835114 -3.404180 0
M  V30 108 H -4.398154 0.526522 -2.845075 0
M  V30 109 H -6.926588 -0.964450 -1.673026 0
M  V30 110 H -8.265182 1.466217 -2.998851 0
M  V30 111 H -8.746472 0.838255 -1.382029 0
M  V30 112 H -10.982045 -0.603982 -3.904924 0
M  V30 113 H -6.318865 1.919491 -1.583638 0
M  V30 114 H -4.826106 1.999458 1.327802 0
M  V30 115 H -3.392456 3.276101 -1.078523 0
M  V30 116 H -3.304074 3.706186 0.636095 0
M  V30 117 H -5.531521 6.111376 -0.449516 0
M  V30 118 H -2.583272 1.032178 -0.214843 0
M  V30 119 H -0.587015 0.580386 1.169619 0
M  V30 120 H -2.086781 -1.975294 1.482641 0
M  V30 121 H -2.035526 -0.902168 -0.021531 0
M  V30 122 H 1.205171 -2.569451 -0.763993 0
M  V30 123 H -0.812244 0.424318 3.604052 0
M  V30 124 H 1.549668 -1.223675 5.044942 0
M  V30 125 H 0.473067 -2.111116 7.040016 0
M  V30 126 H -1.011179 -2.542543 6.116828 0
M  V30 127 H 2.584437 -4.026480 4.670657 0
M  V30 128 H -0.995562 -0.137580 5.880583 0
M  V30 129 H 0.082915 2.542172 7.430729 0
M  V30 130 H -1.308835 1.976387 6.517058 0
M  V30 131 H -1.084501 4.350926 6.620328 0
M  V30 132 H -1.099537 3.864082 4.925546 0
M  V30 133 H 0.253705 5.747515 5.407547 0
M  V30 134 H 1.396474 4.849643 6.447672 0
M  V30 135 H 1.569359 3.239769 4.343643 0
M  V30 136 H 0.613223 4.446158 3.507830 0
M  V30 137 H 2.193663 6.180108 3.796450 0
M  V30 138 H 2.862220 4.876197 2.823667 0
M  V30 139 H 3.676933 5.694667 5.676969 0
M  V30 140 H 4.549139 5.734535 4.121285 0
M  V30 141 H 3.814271 3.101278 5.516537 0
M  V30 142 H 5.361822 3.979505 5.458220 0
M  V30 143 H 5.295708 2.171751 3.803359 0
M  V30 144 H 3.832499 2.842098 3.042348 0
M  V30 145 H 4.880862 0.029316 -0.275460 0
M  V30 146 H 4.017671 -2.312264 -2.587804 0
M  V30 147 H 7.192899 0.839086 -3.780427 0
M  V30 148 H 7.976794 2.920104 -2.849592 0
M  V30 149 H 8.572650 4.560892 -2.063263 0
M  V30 150 H 8.545886 7.219166 1.074631 0
M  V30 151 H 6.996860 5.741314 2.320124 0
M  V30 152 H -1.276029 -8.679537 -3.153289 0
M  V30 END ATOM
M  V30 BEGIN BOND
M  V30 1 1 1 2
M  V30 2 1 2 3
M  V30 3 1 3 4
M  V30 4 1 4 5
M  V30 5 1 5 6
M  V30 6 1 6 7
M  V30 7 1 7 8
M  V30 8 2 8 9
M  V30 9 1 8 10
M  V30 10 1 10 11
M  V30 11 1 11 12
M  V30 12 2 12 13
M  V30 13 1 12 14
M  V30 14 1 10 15
M  V30 15 1 15 16
M  V30 16 2 16 17
M  V30 17 1 16 18
M  V30 18 1 18 19
M  V30 19 1 19 20
M  V30 20 2 20 21
M  V30 21 1 20 22
M  V30 22 1 18 23
M  V30 23 1 23 24
M  V30 24 2 24 25
M  V30 25 1 24 26
M  V30 26 1 26 27
M  V30 27 1 27 28
M  V30 28 2 28 29
M  V30 29 1 28 30
M  V30 30 1 26 31
M  V30 31 1 31 32
M  V30 32 2 32 33
M  V30 33 1 32 34
M  V30 34 1 34 35
M  V30 35 1 35 36
M  V30 36 2 36 37
M  V30 37 1 36 38
M  V30 38 1 34 39
M  V30 39 1 39 40
M  V30 40 2 40 41
M  V30 41 1 40 42
M  V30 42 1 42 43
M  V30 43 1 43 44
M  V30 44 2 44 45
M  V30 45 1 44 46
M  V30 46 1 42 47
M  V30 47 1 47 48
M  V30 48 2 48 49
M  V30 49 1 48 50
M  V30 50 1 50 51
M  V30 51 1 51 52
M  V30 52 2 52 53
M  V30 53 1 52 54
M  V30 54 1 50 55
M  V30 55 1 55 56
M  V30 56 2 56 57
M  V30 57 1 56 58
M  V30 58 1 58 59
M  V30 59 1 59 60
M  V30 60 1 60 61
M  V30 61 1 61 62
M  V30 62 1 62 63
M  V30 63 1 63 64
M  V30 64 1 64 65
M  V30 65 1 65 66
M  V30 66 1 66 67
M  V30 67 2 67 68
M  V30 68 1 68 69
M  V30 69 2 69 70
M  V30 70 1 70 71
M  V30 71 1 71 72
M  V30 72 2 72 73
M  V30 73 1 72 74
M  V30 74 2 71 75
M  V30 75 1 75 76
M  V30 76 2 76 77
M  V30 77 1 77 78
M  V30 78 2 78 79
M  V30 79 1 79 80
M  V30 80 2 80 81
M  V30 81 1 81 82
M  V30 82 2 82 83
M  V30 83 1 6 84
M  V30 84 2 84 85
M  V30 85 1 84 86
M  V30 86 1 83 67
M  V30 87 1 77 69
M  V30 88 1 83 78
M  V30 89 1 1 87
M  V30 90 1 1 88
M  V30 91 1 2 89
M  V30 92 1 2 90
M  V30 93 1 3 91
M  V30 94 1 3 92
M  V30 95 1 4 93
M  V30 96 1 4 94
M  V30 97 1 5 95
M  V30 98 1 5 96
M  V30 99 1 6 97 CFG=3
M  V30 100 1 7 98
M  V30 101 1 10 99 CFG=1
M  V30 102 1 11 100
M  V30 103 1 11 101
M  V30 104 1 14 102
M  V30 105 1 15 103
M  V30 106 1 18 104 CFG=3
M  V30 107 1 19 105
M  V30 108 1 19 106
M  V30 109 1 22 107
M  V30 110 1 23 108
M  V30 111 1 26 109 CFG=1
M  V30 112 1 27 110
M  V30 113 1 27 111
M  V30 114 1 30 112
M  V30 115 1 31 113
M  V30 116 1 34 114 CFG=1
M  V30 117 1 35 115
M  V30 118 1 35 116
M  V30 119 1 38 117
M  V30 120 1 39 118
M  V30 121 1 42 119 CFG=3
M  V30 122 1 43 120
M  V30 123 1 43 121
M  V30 124 1 46 122
M  V30 125 1 47 123
M  V30 126 1 50 124 CFG=3
M  V30 127 1 51 125
M  V30 128 1 51 126
M  V30 129 1 54 127
M  V30 130 1 55 128
M  V30 131 1 58 129
M  V30 132 1 58 130
M  V30 133 1 59 131
M  V30 134 1 59 132
M  V30 135 1 60 133
M  V30 136 1 60 134
M  V30 137 1 61 135
M  V30 138 1 61 136
M  V30 139 1 62 137
M  V30 140 1 62 138
M  V30 141 1 63 139
M  V30 142 1 63 140
M  V30 143 1 64 141
M  V30 144 1 64 142
M  V30 145 1 65 143
M  V30 146 1 65 144
M  V30 147 1 70 145
M  V30 148 1 74 146
M  V30 149 1 75 147
M  V30 150 1 76 148
M  V30 151 1 79 149
M  V30 152 1 81 150
M  V30 153 1 82 151
M  V30 154 1 86 152
M  V30 END BOND
M  V30 END CTAB
M  END
>  <Dataset>  (246) 
ChEMBL_Kinases

>  <Ligand_Instance>  (246) 
nan

>  <PDB_ID>  (246) 
nan

>  <Standardized_SMILES>  (246) 
NCCCC[C@H](NC(=O)[C@H](CC(=O)O)NC(=O)[C@H](CC(=O)O)NC(=O)[C@H](CC(=O)O)NC(=O)[C@H](CC(=O)O)NC(=O)[C@H](CC(=O)O)NC(=O)[C@H](CC(=O)O)NC(=O)CCCCCCCCOc1nc2cc(C(=O)O)ccc2c2cnccc12)C(=O)O

>  <Name>  (246) 
nan

>  <Pocket>  (246) 
nan

>  <ATP_Site>  (246) 
nan

>  <Peripheral>  (246) 
nan

>  <Num_H_Atoms_ProtBoundConf>  (246) 
nan

>  <Num_Resolved_Atoms>  (246) 
nan

>  <Num_Not_Resolved_Atoms>  (246) 
nan

$$$$
CHEMBL4079516
     RDKit          3D

  0  0  0  0  0  0  0  0  0  0999 V3000
M  V30 BEGIN CTAB
M  V30 COUNTS 41 45 0 0 0
M  V30 BEGIN ATOM
M  V30 1 N 6.618611 -1.128564 -1.883759 0
M  V30 2 C 5.556900 -1.267024 -1.446604 0
M  V30 3 C 4.242059 -1.463333 -0.908797 0
M  V30 4 C 3.388927 -0.478737 -0.485228 0
M  V30 5 C 3.903626 0.905372 -0.608039 0
M  V30 6 C 3.202549 2.089070 -0.234773 0
M  V30 7 C 3.869523 3.261186 -0.435612 0
M  V30 8 C 5.173790 3.259663 -0.982310 0
M  V30 9 S 5.427242 1.394236 -1.213741 0
M  V30 10 C 2.160514 -0.771245 0.009920 0
M  V30 11 C 1.663119 -2.050190 0.132547 0
M  V30 12 C 0.337987 -2.266358 0.673366 0
M  V30 13 C -0.485837 -1.241449 1.087388 0
M  V30 14 C -1.738374 -1.515009 1.593941 0
M  V30 15 C -2.241490 -2.793114 1.719016 0
M  V30 16 C -3.497940 -3.064577 2.227358 0
M  V30 17 C -4.327076 -2.045429 2.643228 0
M  V30 18 C -3.861192 -0.754834 2.534590 0
M  V30 19 C -4.691175 0.262966 2.950714 0
M  V30 20 C -4.294835 1.575639 2.872697 0
M  V30 21 C -3.026837 1.826515 2.358130 0
M  V30 22 C -2.223071 0.784625 1.951377 0
M  V30 23 C -2.601858 -0.533122 2.021704 0
M  V30 24 O -1.430092 -3.768837 1.313500 0
M  V30 25 C -0.241006 -3.504106 0.832947 0
M  V30 26 O 0.328835 -4.557725 0.523436 0
M  V30 27 N 2.529732 -2.968546 -0.292228 0
M  V30 28 C 3.756685 -2.748688 -0.791636 0
M  V30 29 O 4.494765 -3.698239 -1.164639 0
M  V30 30 H 2.208903 2.066251 0.180112 0
M  V30 31 H 3.478185 4.242162 -0.205767 0
M  V30 32 H 5.830827 4.017112 -1.206780 0
M  V30 33 H 1.634000 0.127889 0.290871 0
M  V30 34 H -0.132672 -0.239446 1.006644 0
M  V30 35 H -3.744647 -4.123166 2.259710 0
M  V30 36 H -5.284614 -2.352182 3.023926 0
M  V30 37 H -5.668686 0.023575 3.344322 0
M  V30 38 H -4.981196 2.338118 3.211497 0
M  V30 39 H -2.773402 2.882442 2.322756 0
M  V30 40 H -1.283656 1.155081 1.582543 0
M  V30 41 H 2.275712 -3.974030 -0.253245 0
M  V30 END ATOM
M  V30 BEGIN BOND
M  V30 1 3 1 2
M  V30 2 1 2 3
M  V30 3 2 3 4
M  V30 4 1 4 5
M  V30 5 2 5 6
M  V30 6 1 6 7
M  V30 7 2 7 8
M  V30 8 1 8 9
M  V30 9 1 4 10
M  V30 10 2 10 11
M  V30 11 1 11 12
M  V30 12 2 12 13
M  V30 13 1 13 14
M  V30 14 2 14 15
M  V30 15 1 15 16
M  V30 16 2 16 17
M  V30 17 1 17 18
M  V30 18 2 18 19
M  V30 19 1 19 20
M  V30 20 2 20 21
M  V30 21 1 21 22
M  V30 22 2 22 23
M  V30 23 1 15 24
M  V30 24 1 24 25
M  V30 25 2 25 26
M  V30 26 1 11 27
M  V30 27 1 27 28
M  V30 28 2 28 29
M  V30 29 1 28 3
M  V30 30 1 9 5
M  V30 31 1 25 12
M  V30 32 1 23 14
M  V30 33 1 23 18
M  V30 34 1 6 30
M  V30 35 1 7 31
M  V30 36 1 8 32
M  V30 37 1 10 33
M  V30 38 1 13 34
M  V30 39 1 16 35
M  V30 40 1 17 36
M  V30 41 1 19 37
M  V30 42 1 20 38
M  V30 43 1 21 39
M  V30 44 1 22 40
M  V30 45 1 27 41
M  V30 END BOND
M  V30 END CTAB
M  END
>  <Dataset>  (247) 
ChEMBL_Kinases

>  <Ligand_Instance>  (247) 
nan

>  <PDB_ID>  (247) 
nan

>  <Standardized_SMILES>  (247) 
N#Cc1c(-c2cccs2)cc(-c2cc3c(ccc4ccccc43)oc2=O)[nH]c1=O

>  <Name>  (247) 
nan

>  <Pocket>  (247) 
nan

>  <ATP_Site>  (247) 
nan

>  <Peripheral>  (247) 
nan

>  <Num_H_Atoms_ProtBoundConf>  (247) 
nan

>  <Num_Resolved_Atoms>  (247) 
nan

>  <Num_Not_Resolved_Atoms>  (247) 
nan

$$$$
CHEMBL4079515
     RDKit          3D

  0  0  0  0  0  0  0  0  0  0999 V3000
M  V30 BEGIN CTAB
M  V30 COUNTS 45 48 0 0 0
M  V30 BEGIN ATOM
M  V30 1 C -0.085578 -4.502506 1.749788 0
M  V30 2 N -0.716216 -3.254420 1.464365 0
M  V30 3 C -0.071393 -2.179442 0.995868 0
M  V30 4 C 1.303391 -1.889287 0.644288 0
M  V30 5 C 2.378352 -2.735717 0.716436 0
M  V30 6 C 3.674962 -2.429661 0.374337 0
M  V30 7 N 3.927396 -1.187718 -0.074612 0
M  V30 8 C 2.904808 -0.318101 -0.164077 0
M  V30 9 N 3.101418 1.021840 -0.636854 0
M  V30 10 C 2.123935 2.077529 -0.791395 0
M  V30 11 C 2.715785 3.357048 -1.349447 0
M  V30 12 C 1.817742 4.477334 -0.814931 0
M  V30 13 O 2.154111 4.652562 0.507000 0
M  V30 14 C 1.946034 3.519904 1.248558 0
M  V30 15 C 1.349608 2.363629 0.479436 0
M  V30 16 N 1.662144 -0.677528 0.185166 0
M  V30 17 C -1.027675 -1.192958 0.856135 0
M  V30 18 C -2.259214 -1.670245 1.241374 0
M  V30 19 C -2.044906 -2.975286 1.623152 0
M  V30 20 C -3.151709 -3.839959 2.108465 0
M  V30 21 C -4.251655 -2.984291 2.699529 0
M  V30 22 N -4.664169 -1.937828 1.782019 0
M  V30 23 C -3.603947 -1.112205 1.314569 0
M  V30 24 O -3.776517 0.101681 0.954050 0
M  V30 25 H 0.630590 -4.482407 2.606936 0
M  V30 26 H -0.884478 -5.214842 2.130999 0
M  V30 27 H 0.303341 -5.050715 0.858377 0
M  V30 28 H 2.233154 -3.741797 1.069002 0
M  V30 29 H 4.471180 -3.153371 0.459064 0
M  V30 30 H 4.089704 1.287283 -0.913209 0
M  V30 31 H 1.394663 1.706682 -1.540360 0
M  V30 32 H 3.776393 3.504058 -1.095504 0
M  V30 33 H 2.631293 3.415375 -2.465997 0
M  V30 34 H 0.782054 4.191931 -1.017355 0
M  V30 35 H 2.019597 5.427786 -1.355858 0
M  V30 36 H 2.890382 3.143587 1.721602 0
M  V30 37 H 1.271413 3.733425 2.102687 0
M  V30 38 H 0.311780 2.623975 0.199888 0
M  V30 39 H 1.321863 1.474340 1.113243 0
M  V30 40 H -0.955650 -0.152373 0.506119 0
M  V30 41 H -2.795397 -4.483578 2.950032 0
M  V30 42 H -3.520617 -4.467164 1.254701 0
M  V30 43 H -5.109753 -3.613121 3.012373 0
M  V30 44 H -3.804028 -2.500809 3.594528 0
M  V30 45 H -5.635359 -1.705646 1.415658 0
M  V30 END ATOM
M  V30 BEGIN BOND
M  V30 1 1 1 2
M  V30 2 1 2 3
M  V30 3 1 3 4
M  V30 4 2 4 5
M  V30 5 1 5 6
M  V30 6 2 6 7
M  V30 7 1 7 8
M  V30 8 1 8 9
M  V30 9 1 9 10
M  V30 10 1 10 11
M  V30 11 1 11 12
M  V30 12 1 12 13
M  V30 13 1 13 14
M  V30 14 1 14 15
M  V30 15 2 8 16
M  V30 16 2 3 17
M  V30 17 1 17 18
M  V30 18 2 18 19
M  V30 19 1 19 20
M  V30 20 1 20 21
M  V30 21 1 21 22
M  V30 22 1 22 23
M  V30 23 2 23 24
M  V30 24 1 19 2
M  V30 25 1 16 4
M  V30 26 1 23 18
M  V30 27 1 15 10
M  V30 28 1 1 25
M  V30 29 1 1 26
M  V30 30 1 1 27
M  V30 31 1 5 28
M  V30 32 1 6 29
M  V30 33 1 9 30
M  V30 34 1 10 31
M  V30 35 1 11 32
M  V30 36 1 11 33
M  V30 37 1 12 34
M  V30 38 1 12 35
M  V30 39 1 14 36
M  V30 40 1 14 37
M  V30 41 1 15 38
M  V30 42 1 15 39
M  V30 43 1 17 40
M  V30 44 1 20 41
M  V30 45 1 20 42
M  V30 46 1 21 43
M  V30 47 1 21 44
M  V30 48 1 22 45
M  V30 END BOND
M  V30 END CTAB
M  END
>  <Dataset>  (248) 
ChEMBL_Kinases

>  <Ligand_Instance>  (248) 
nan

>  <PDB_ID>  (248) 
nan

>  <Standardized_SMILES>  (248) 
Cn1c(-c2ccnc(NC3CCOCC3)n2)cc2c1CCNC2=O

>  <Name>  (248) 
nan

>  <Pocket>  (248) 
nan

>  <ATP_Site>  (248) 
nan

>  <Peripheral>  (248) 
nan

>  <Num_H_Atoms_ProtBoundConf>  (248) 
nan

>  <Num_Resolved_Atoms>  (248) 
nan

>  <Num_Not_Resolved_Atoms>  (248) 
nan

$$$$
CHEMBL4079417
     RDKit          3D

  0  0  0  0  0  0  0  0  0  0999 V3000
M  V30 BEGIN CTAB
M  V30 COUNTS 53 58 0 0 0
M  V30 BEGIN ATOM
M  V30 1 Br -3.404951 -1.985504 5.954311 0
M  V30 2 C -1.841862 -1.479218 5.002253 0
M  V30 3 C -0.730535 -0.962322 5.637349 0
M  V30 4 C 0.363461 -0.619138 4.874134 0
M  V30 5 C 0.389348 -0.771685 3.507945 0
M  V30 6 N 1.452458 -0.445805 2.720680 0
M  V30 7 C 1.433921 -0.616671 1.371159 0
M  V30 8 N 2.662978 -0.200686 0.821623 0
M  V30 9 C 3.584435 0.762460 0.405695 0
M  V30 10 C 3.273878 1.719207 -0.678631 0
M  V30 11 C 2.127272 2.598443 -0.415165 0
M  V30 12 C 2.327186 3.879865 0.135791 0
M  V30 13 N 1.157106 4.510452 0.327055 0
M  V30 14 C 0.148798 3.716323 -0.070576 0
M  V30 15 C -1.227490 3.804983 -0.135466 0
M  V30 16 C -2.022454 2.767884 -0.638503 0
M  V30 17 C -1.348762 1.625245 -1.076571 0
M  V30 18 C 0.022364 1.528171 -1.015119 0
M  V30 19 C 0.755263 2.563136 -0.516893 0
M  V30 20 N 0.350516 -1.116835 0.793394 0
M  V30 21 C -0.760508 -1.477247 1.454461 0
M  V30 22 N -1.899917 -2.020596 0.807935 0
M  V30 23 C -1.917091 -3.130208 -0.089009 0
M  V30 24 C -3.063121 -3.600589 -0.697742 0
M  V30 25 C -2.966325 -4.684656 -1.538250 0
M  V30 26 C -1.757941 -5.330754 -1.802170 0
M  V30 27 N -1.441666 -6.400642 -2.583226 0
M  V30 28 N -0.126088 -6.599502 -2.469974 0
M  V30 29 C 0.397586 -5.691223 -1.643458 0
M  V30 30 C -0.610563 -4.844907 -1.181598 0
M  V30 31 C -0.698843 -3.747420 -0.329176 0
M  V30 32 C -0.687120 -1.282495 2.813406 0
M  V30 33 C -1.772147 -1.615886 3.627621 0
M  V30 34 H -0.718241 -0.832399 6.698022 0
M  V30 35 H 1.286942 -0.201997 5.309049 0
M  V30 36 H 2.971208 -1.215142 0.690948 0
M  V30 37 H 3.892542 1.326790 1.362000 0
M  V30 38 H 4.541596 0.231867 0.084529 0
M  V30 39 H 4.168978 2.369023 -0.935716 0
M  V30 40 H 3.075885 1.205241 -1.656434 0
M  V30 41 H 3.276769 4.356239 0.395703 0
M  V30 42 H 1.009127 5.462017 0.718610 0
M  V30 43 H -1.680380 4.725019 0.223104 0
M  V30 44 H -3.110122 2.903000 -0.662726 0
M  V30 45 H -2.008744 0.864092 -1.453305 0
M  V30 46 H 0.492903 0.600293 -1.381625 0
M  V30 47 H -2.783946 -1.540208 1.034881 0
M  V30 48 H -3.987484 -3.105347 -0.494755 0
M  V30 49 H -3.884211 -5.024317 -1.995901 0
M  V30 50 H -2.144879 -6.936938 -3.151412 0
M  V30 51 H 1.444442 -5.557849 -1.322625 0
M  V30 52 H 0.245307 -3.465312 0.088742 0
M  V30 53 H -2.670813 -2.030236 3.143230 0
M  V30 END ATOM
M  V30 BEGIN BOND
M  V30 1 1 1 2
M  V30 2 2 2 3
M  V30 3 1 3 4
M  V30 4 2 4 5
M  V30 5 1 5 6
M  V30 6 2 6 7
M  V30 7 1 7 8
M  V30 8 1 8 9
M  V30 9 1 9 10
M  V30 10 1 10 11
M  V30 11 2 11 12
M  V30 12 1 12 13
M  V30 13 1 13 14
M  V30 14 2 14 15
M  V30 15 1 15 16
M  V30 16 2 16 17
M  V30 17 1 17 18
M  V30 18 2 18 19
M  V30 19 1 7 20
M  V30 20 2 20 21
M  V30 21 1 21 22
M  V30 22 1 22 23
M  V30 23 2 23 24
M  V30 24 1 24 25
M  V30 25 2 25 26
M  V30 26 1 26 27
M  V30 27 1 27 28
M  V30 28 2 28 29
M  V30 29 1 29 30
M  V30 30 2 30 31
M  V30 31 1 21 32
M  V30 32 2 32 33
M  V30 33 1 33 2
M  V30 34 1 32 5
M  V30 35 1 19 11
M  V30 36 1 31 23
M  V30 37 1 19 14
M  V30 38 1 30 26
M  V30 39 1 3 34
M  V30 40 1 4 35
M  V30 41 1 8 36
M  V30 42 1 9 37
M  V30 43 1 9 38
M  V30 44 1 10 39
M  V30 45 1 10 40
M  V30 46 1 12 41
M  V30 47 1 13 42
M  V30 48 1 15 43
M  V30 49 1 16 44
M  V30 50 1 17 45
M  V30 51 1 18 46
M  V30 52 1 22 47
M  V30 53 1 24 48
M  V30 54 1 25 49
M  V30 55 1 27 50
M  V30 56 1 29 51
M  V30 57 1 31 52
M  V30 58 1 33 53
M  V30 END BOND
M  V30 END CTAB
M  END
>  <Dataset>  (249) 
ChEMBL_Kinases

>  <Ligand_Instance>  (249) 
nan

>  <PDB_ID>  (249) 
nan

>  <Standardized_SMILES>  (249) 
Brc1ccc2nc(NCCc3c[nH]c4ccccc34)nc(Nc3ccc4[nH]ncc4c3)c2c1

>  <Name>  (249) 
nan

>  <Pocket>  (249) 
nan

>  <ATP_Site>  (249) 
nan

>  <Peripheral>  (249) 
nan

>  <Num_H_Atoms_ProtBoundConf>  (249) 
nan

>  <Num_Resolved_Atoms>  (249) 
nan

>  <Num_Not_Resolved_Atoms>  (249) 
nan

$$$$
CHEMBL4079391
     RDKit          3D

  0  0  0  0  0  0  0  0  0  0999 V3000
M  V30 BEGIN CTAB
M  V30 COUNTS 51 54 0 0 0
M  V30 BEGIN ATOM
M  V30 1 C 0.615774 -4.162461 1.847694 0
M  V30 2 C 0.234879 -2.693360 1.775115 0
M  V30 3 N 0.099079 -2.335198 0.365470 0
M  V30 4 C 1.087782 -1.425460 -0.160138 0
M  V30 5 N 1.869855 -1.784671 -1.157555 0
M  V30 6 C 2.821065 -1.098615 -1.765135 0
M  V30 7 C 3.036801 0.174760 -1.300342 0
M  V30 8 C 4.020211 1.112913 -1.804787 0
M  V30 9 N 4.144233 2.402918 -1.241887 0
M  V30 10 O 4.694673 0.658668 -2.737689 0
M  V30 11 C 2.212572 0.567244 -0.241695 0
M  V30 12 S 2.152795 2.204930 0.702753 0
M  V30 13 C 0.891308 1.723238 1.739670 0
M  V30 14 C 0.264737 2.576937 2.843414 0
M  V30 15 C 0.822933 3.832864 2.946960 0
M  V30 16 C 0.285337 4.657786 3.943806 0
M  V30 17 C -0.751946 4.154258 4.738088 0
M  V30 18 C -1.266942 2.883525 4.582148 0
M  V30 19 C -0.738274 2.068025 3.599366 0
M  V30 20 C 0.556585 0.484137 1.415593 0
M  V30 21 C 1.196751 -0.173119 0.403017 0
M  V30 22 C -1.019793 -2.969004 -0.246686 0 CFG=1
M  V30 23 C -2.352767 -2.652453 0.345560 0
M  V30 24 C -3.325897 -3.698694 -0.212328 0
M  V30 25 C -3.346309 -3.557105 -1.706973 0
M  V30 26 N -2.027021 -3.722117 -2.254213 0
M  V30 27 C -1.107790 -2.707784 -1.732764 0
M  V30 28 H 1.315904 -4.342300 0.980884 0
M  V30 29 H 1.139789 -4.338482 2.806162 0
M  V30 30 H -0.299002 -4.777423 1.749570 0
M  V30 31 H 1.086964 -2.152104 2.269918 0
M  V30 32 H -0.640456 -2.462261 2.381511 0
M  V30 33 H 3.461685 -1.389449 -2.580244 0
M  V30 34 H 4.585412 2.420252 -0.286715 0
M  V30 35 H 3.772444 3.150185 -1.872499 0
M  V30 36 H 1.621100 4.207501 2.328922 0
M  V30 37 H 0.691334 5.653622 4.063995 0
M  V30 38 H -1.138574 4.822846 5.495727 0
M  V30 39 H -2.070079 2.517011 5.210345 0
M  V30 40 H -1.123535 1.050765 3.447014 0
M  V30 41 H -0.240677 -0.028366 1.959671 0
M  V30 42 H -0.873780 -4.079642 -0.126847 0
M  V30 43 H -2.761277 -1.666923 0.005627 0
M  V30 44 H -2.422312 -2.775988 1.444184 0
M  V30 45 H -4.318881 -3.477284 0.219570 0
M  V30 46 H -3.027276 -4.720292 0.094964 0
M  V30 47 H -3.958478 -4.398412 -2.144535 0
M  V30 48 H -3.838740 -2.608033 -1.969627 0
M  V30 49 H -2.096702 -3.687564 -3.278399 0
M  V30 50 H -0.134677 -2.842473 -2.232129 0
M  V30 51 H -1.553116 -1.724050 -1.928872 0
M  V30 END ATOM
M  V30 BEGIN BOND
M  V30 1 1 1 2
M  V30 2 1 2 3
M  V30 3 1 3 4
M  V30 4 2 4 5
M  V30 5 1 5 6
M  V30 6 2 6 7
M  V30 7 1 7 8
M  V30 8 1 8 9
M  V30 9 2 8 10
M  V30 10 1 7 11
M  V30 11 1 11 12
M  V30 12 1 12 13
M  V30 13 1 13 14
M  V30 14 2 14 15
M  V30 15 1 15 16
M  V30 16 2 16 17
M  V30 17 1 17 18
M  V30 18 2 18 19
M  V30 19 2 13 20
M  V30 20 1 20 21
M  V30 21 1 3 22
M  V30 22 1 22 23
M  V30 23 1 23 24
M  V30 24 1 24 25
M  V30 25 1 25 26
M  V30 26 1 26 27
M  V30 27 1 21 4
M  V30 28 1 27 22
M  V30 29 2 21 11
M  V30 30 1 19 14
M  V30 31 1 1 28
M  V30 32 1 1 29
M  V30 33 1 1 30
M  V30 34 1 2 31
M  V30 35 1 2 32
M  V30 36 1 6 33
M  V30 37 1 9 34
M  V30 38 1 9 35
M  V30 39 1 15 36
M  V30 40 1 16 37
M  V30 41 1 17 38
M  V30 42 1 18 39
M  V30 43 1 19 40
M  V30 44 1 20 41
M  V30 45 1 22 42 CFG=3
M  V30 46 1 23 43
M  V30 47 1 23 44
M  V30 48 1 24 45
M  V30 49 1 24 46
M  V30 50 1 25 47
M  V30 51 1 25 48
M  V30 52 1 26 49
M  V30 53 1 27 50
M  V30 54 1 27 51
M  V30 END BOND
M  V30 END CTAB
M  END
>  <Dataset>  (250) 
ChEMBL_Kinases

>  <Ligand_Instance>  (250) 
nan

>  <PDB_ID>  (250) 
nan

>  <Standardized_SMILES>  (250) 
CCN(c1ncc(C(N)=O)c2sc(-c3ccccc3)cc12)[C@H]1CCCNC1

>  <Name>  (250) 
nan

>  <Pocket>  (250) 
nan

>  <ATP_Site>  (250) 
nan

>  <Peripheral>  (250) 
nan

>  <Num_H_Atoms_ProtBoundConf>  (250) 
nan

>  <Num_Resolved_Atoms>  (250) 
nan

>  <Num_Not_Resolved_Atoms>  (250) 
nan

$$$$
CHEMBL4079362
     RDKit          3D

  0  0  0  0  0  0  0  0  0  0999 V3000
M  V30 BEGIN CTAB
M  V30 COUNTS 61 65 0 0 0
M  V30 BEGIN ATOM
M  V30 1 C 7.492611 0.190548 1.130836 0
M  V30 2 N 6.281139 1.012242 1.156382 0
M  V30 3 C 5.405133 0.875840 2.174244 0
M  V30 4 C 4.405660 1.788645 1.872316 0
M  V30 5 C 4.690392 2.455668 0.689097 0
M  V30 6 C 3.894339 3.498166 0.015769 0
M  V30 7 N 2.948920 3.005243 -0.937166 0
M  V30 8 C 1.711996 2.392797 -0.617819 0
M  V30 9 O 1.574998 2.349442 0.647966 0
M  V30 10 C 0.710550 1.873461 -1.533895 0
M  V30 11 C -0.407800 1.297541 -0.927295 0
M  V30 12 C -1.449307 0.757414 -1.644293 0
M  V30 13 C -2.607658 0.156657 -0.916454 0 CFG=2
M  V30 14 C -3.302380 1.087652 -0.000535 0
M  V30 15 C -4.314863 0.345970 0.821295 0
M  V30 16 N -3.829016 -0.864696 1.406921 0
M  V30 17 C -2.394984 -0.967090 1.230925 0
M  V30 18 C -2.078798 -1.097008 -0.210115 0 CFG=1
M  V30 19 C -2.607066 -2.282238 -0.936351 0
M  V30 20 O -2.239639 -3.493099 -0.475518 0
M  V30 21 C -2.309390 -4.317440 0.555629 0
M  V30 22 C -1.577962 -5.471677 0.201433 0
M  V30 23 C -1.421845 -6.575904 1.037859 0
M  V30 24 C -2.034594 -6.500156 2.282399 0
M  V30 25 C -2.765308 -5.411347 2.704540 0
M  V30 26 C -2.856616 -4.383625 1.808008 0
M  V30 27 O -3.252569 -5.615197 3.976535 0
M  V30 28 C -2.593470 -6.754487 4.510195 0
M  V30 29 O -2.081902 -7.410133 3.352667 0
M  V30 30 C -1.404228 0.776818 -3.034432 0
M  V30 31 C -0.320837 1.334629 -3.676682 0
M  V30 32 C 0.691054 1.859441 -2.908878 0
M  V30 33 F 1.768306 2.413453 -3.504944 0
M  V30 34 N 5.873006 1.929352 0.288043 0
M  V30 35 H 8.101497 0.383482 2.026245 0
M  V30 36 H 7.156672 -0.887135 1.183046 0
M  V30 37 H 8.020583 0.349480 0.182520 0
M  V30 38 H 5.458416 0.212145 3.033333 0
M  V30 39 H 3.539224 1.923246 2.511807 0
M  V30 40 H 3.285650 4.075091 0.774233 0
M  V30 41 H 4.605959 4.217010 -0.451375 0
M  V30 42 H 3.188520 3.103367 -1.942978 0
M  V30 43 H -0.487138 1.260676 0.149567 0
M  V30 44 H -3.352270 -0.148231 -1.709706 0
M  V30 45 H -2.682665 1.704549 0.656959 0
M  V30 46 H -3.891593 1.813267 -0.622401 0
M  V30 47 H -4.770615 0.957722 1.611821 0
M  V30 48 H -5.140207 0.044222 0.116186 0
M  V30 49 H -4.122833 -1.023257 2.381508 0
M  V30 50 H -1.975447 0.037461 1.553395 0
M  V30 51 H -1.933227 -1.678147 1.910321 0
M  V30 52 H -0.951494 -1.156982 -0.300724 0
M  V30 53 H -2.187541 -2.187956 -2.003715 0
M  V30 54 H -3.722377 -2.178516 -1.129366 0
M  V30 55 H -1.036346 -5.696415 -0.730229 0
M  V30 56 H -0.890114 -7.480505 0.848804 0
M  V30 57 H -3.412394 -3.512839 2.047172 0
M  V30 58 H -3.282540 -7.380511 5.076445 0
M  V30 59 H -1.722029 -6.416456 5.102880 0
M  V30 60 H -2.215194 0.356606 -3.627395 0
M  V30 61 H -0.206182 1.391127 -4.751603 0
M  V30 END ATOM
M  V30 BEGIN BOND
M  V30 1 1 1 2
M  V30 2 1 2 3
M  V30 3 2 3 4
M  V30 4 1 4 5
M  V30 5 1 5 6
M  V30 6 1 6 7
M  V30 7 1 7 8
M  V30 8 2 8 9
M  V30 9 1 8 10
M  V30 10 2 10 11
M  V30 11 1 11 12
M  V30 12 1 12 13
M  V30 13 1 13 14
M  V30 14 1 14 15
M  V30 15 1 15 16
M  V30 16 1 16 17
M  V30 17 1 17 18
M  V30 18 1 18 19
M  V30 19 1 19 20
M  V30 20 1 20 21
M  V30 21 2 21 22
M  V30 22 1 22 23
M  V30 23 2 23 24
M  V30 24 1 24 25
M  V30 25 2 25 26
M  V30 26 1 25 27
M  V30 27 1 27 28
M  V30 28 1 28 29
M  V30 29 2 12 30
M  V30 30 1 30 31
M  V30 31 2 31 32
M  V30 32 1 32 33
M  V30 33 2 5 34
M  V30 34 1 34 2
M  V30 35 1 32 10
M  V30 36 1 18 13
M  V30 37 1 26 21
M  V30 38 1 29 24
M  V30 39 1 1 35
M  V30 40 1 1 36
M  V30 41 1 1 37
M  V30 42 1 3 38
M  V30 43 1 4 39
M  V30 44 1 6 40
M  V30 45 1 6 41
M  V30 46 1 7 42
M  V30 47 1 11 43
M  V30 48 1 13 44 CFG=3
M  V30 49 1 14 45
M  V30 50 1 14 46
M  V30 51 1 15 47
M  V30 52 1 15 48
M  V30 53 1 16 49
M  V30 54 1 17 50
M  V30 55 1 17 51
M  V30 56 1 18 52 CFG=1
M  V30 57 1 19 53
M  V30 58 1 19 54
M  V30 59 1 22 55
M  V30 60 1 23 56
M  V30 61 1 26 57
M  V30 62 1 28 58
M  V30 63 1 28 59
M  V30 64 1 30 60
M  V30 65 1 31 61
M  V30 END BOND
M  V30 END CTAB
M  END
>  <Dataset>  (251) 
ChEMBL_Kinases

>  <Ligand_Instance>  (251) 
nan

>  <PDB_ID>  (251) 
nan

>  <Standardized_SMILES>  (251) 
Cn1ccc(CNC(=O)c2cc([C@@H]3CCNC[C@H]3COc3ccc4c(c3)OCO4)ccc2F)n1

>  <Name>  (251) 
nan

>  <Pocket>  (251) 
nan

>  <ATP_Site>  (251) 
nan

>  <Peripheral>  (251) 
nan

>  <Num_H_Atoms_ProtBoundConf>  (251) 
nan

>  <Num_Resolved_Atoms>  (251) 
nan

>  <Num_Not_Resolved_Atoms>  (251) 
nan

$$$$
CHEMBL4079354
     RDKit          3D

  0  0  0  0  0  0  0  0  0  0999 V3000
M  V30 BEGIN CTAB
M  V30 COUNTS 34 36 0 0 0
M  V30 BEGIN ATOM
M  V30 1 O 0.121721 -3.675920 5.729267 0
M  V30 2 C 0.667440 -3.899836 4.469407 0
M  V30 3 C 0.974627 -5.168377 3.992018 0
M  V30 4 C 1.513907 -5.347241 2.738852 0
M  V30 5 C 1.744997 -4.215338 1.956912 0
M  V30 6 C 1.433865 -2.940839 2.442567 0
M  V30 7 C 1.758896 -1.914575 1.457829 0
M  V30 8 N 2.878654 -1.496445 0.847046 0
M  V30 9 N 2.597540 -0.500282 0.018293 0
M  V30 10 C 1.267688 -0.253933 0.080849 0
M  V30 11 N 0.545284 0.732718 -0.646421 0
M  V30 12 C -0.901969 0.858235 -0.452057 0
M  V30 13 C -1.458136 1.941474 -1.306565 0
M  V30 14 C -1.264291 3.257286 -0.941126 0
M  V30 15 F -0.587810 3.634123 0.168122 0
M  V30 16 C -1.784124 4.277141 -1.741440 0
M  V30 17 C -2.479482 3.925077 -2.879852 0
M  V30 18 C -2.697679 2.624386 -3.284094 0
M  V30 19 C -2.162185 1.636379 -2.456940 0
M  V30 20 Cl -2.379148 -0.050997 -2.874459 0
M  V30 21 N 0.768975 -1.130209 0.968326 0
M  V30 22 C 0.893276 -2.776297 3.701564 0
M  V30 23 H -0.815364 -3.267354 5.736179 0
M  V30 24 H 0.750528 -5.973741 4.690118 0
M  V30 25 H 1.735086 -6.356535 2.413595 0
M  V30 26 H 2.169068 -4.447807 0.991238 0
M  V30 27 H 3.313739 -0.014991 -0.565846 0
M  V30 28 H 1.064977 1.352161 -1.309354 0
M  V30 29 H -1.392683 -0.090339 -0.749342 0
M  V30 30 H -1.119393 1.130884 0.614332 0
M  V30 31 H -1.699106 5.336434 -1.561480 0
M  V30 32 H -2.918765 4.663364 -3.560402 0
M  V30 33 H -3.243940 2.356187 -4.178115 0
M  V30 34 H 0.702202 -1.748278 3.949217 0
M  V30 END ATOM
M  V30 BEGIN BOND
M  V30 1 1 1 2
M  V30 2 2 2 3
M  V30 3 1 3 4
M  V30 4 2 4 5
M  V30 5 1 5 6
M  V30 6 1 6 7
M  V30 7 2 7 8
M  V30 8 1 8 9
M  V30 9 1 9 10
M  V30 10 1 10 11
M  V30 11 1 11 12
M  V30 12 1 12 13
M  V30 13 2 13 14
M  V30 14 1 14 15
M  V30 15 1 14 16
M  V30 16 2 16 17
M  V30 17 1 17 18
M  V30 18 2 18 19
M  V30 19 1 19 20
M  V30 20 2 10 21
M  V30 21 2 6 22
M  V30 22 1 22 2
M  V30 23 1 21 7
M  V30 24 1 19 13
M  V30 25 1 1 23
M  V30 26 1 3 24
M  V30 27 1 4 25
M  V30 28 1 5 26
M  V30 29 1 9 27
M  V30 30 1 11 28
M  V30 31 1 12 29
M  V30 32 1 12 30
M  V30 33 1 16 31
M  V30 34 1 17 32
M  V30 35 1 18 33
M  V30 36 1 22 34
M  V30 END BOND
M  V30 END CTAB
M  END
>  <Dataset>  (252) 
ChEMBL_Kinases

>  <Ligand_Instance>  (252) 
nan

>  <PDB_ID>  (252) 
nan

>  <Standardized_SMILES>  (252) 
Oc1cccc(-c2n[nH]c(NCc3c(F)cccc3Cl)n2)c1

>  <Name>  (252) 
nan

>  <Pocket>  (252) 
nan

>  <ATP_Site>  (252) 
nan

>  <Peripheral>  (252) 
nan

>  <Num_H_Atoms_ProtBoundConf>  (252) 
nan

>  <Num_Resolved_Atoms>  (252) 
nan

>  <Num_Not_Resolved_Atoms>  (252) 
nan

$$$$
CHEMBL4855363
     RDKit          3D

  0  0  0  0  0  0  0  0  0  0999 V3000
M  V30 BEGIN CTAB
M  V30 COUNTS 51 54 0 0 0
M  V30 BEGIN ATOM
M  V30 1 C 4.291565 -2.993219 4.406043 0
M  V30 2 N 5.418004 -2.375096 3.703696 0
M  V30 3 N 6.686976 -2.549531 4.055276 0
M  V30 4 C 7.442470 -1.835341 3.190990 0
M  V30 5 C 6.620863 -1.197983 2.275105 0
M  V30 6 C 5.338091 -1.552728 2.616691 0
M  V30 7 C 4.089858 -1.156279 1.975736 0
M  V30 8 C 3.024334 -0.759560 2.754056 0
M  V30 9 C 1.850692 -0.387196 2.142176 0
M  V30 10 F 0.794924 0.004658 2.885087 0
M  V30 11 C 1.640398 -0.375414 0.783316 0
M  V30 12 C 0.459372 -0.007094 0.022712 0
M  V30 13 O 0.429800 -0.052942 -1.254332 0
M  V30 14 N -0.772644 0.433377 0.514211 0
M  V30 15 C -1.927084 0.791391 -0.275620 0 CFG=2
M  V30 16 C -2.234184 2.237571 -0.075645 0
M  V30 17 N -3.099626 2.561284 0.988189 0
M  V30 18 C -3.835796 1.496929 1.589728 0
M  V30 19 C -4.322323 0.593799 0.473754 0
M  V30 20 C -3.079038 -0.133547 -0.017597 0 CFG=1
M  V30 21 C -3.398935 -1.000367 -1.189844 0
M  V30 22 C -3.798420 -0.324076 -2.347024 0
M  V30 23 C -4.133374 -0.987980 -3.531911 0
M  V30 24 C -4.047206 -2.378166 -3.499266 0
M  V30 25 F -4.373304 -3.042823 -4.656005 0
M  V30 26 C -3.652014 -3.083160 -2.360795 0
M  V30 27 F -3.580828 -4.436035 -2.369457 0
M  V30 28 C -3.334394 -2.377611 -1.223977 0
M  V30 29 C 2.742398 -0.783780 0.022328 0
M  V30 30 C 3.930371 -1.162205 0.607229 0
M  V30 31 F 4.954049 -1.544995 -0.177907 0
M  V30 32 H 4.591442 -3.976898 4.782106 0
M  V30 33 H 3.417199 -3.143608 3.737312 0
M  V30 34 H 3.983562 -2.383588 5.289848 0
M  V30 35 H 8.528435 -1.733752 3.162626 0
M  V30 36 H 6.921373 -0.544208 1.446132 0
M  V30 37 H 3.045731 -0.719237 3.836243 0
M  V30 38 H -0.904322 0.522965 1.538158 0
M  V30 39 H -1.656559 0.652752 -1.343103 0
M  V30 40 H -2.630475 2.687182 -1.018825 0
M  V30 41 H -1.272678 2.770460 0.101719 0
M  V30 42 H -2.857016 3.351408 1.592089 0
M  V30 43 H -3.160407 0.927926 2.250352 0
M  V30 44 H -4.676581 1.949291 2.151577 0
M  V30 45 H -4.747958 1.234397 -0.316413 0
M  V30 46 H -5.035362 -0.159585 0.847196 0
M  V30 47 H -2.786148 -0.829204 0.796223 0
M  V30 48 H -3.864479 0.763472 -2.368233 0
M  V30 49 H -4.437730 -0.448371 -4.409289 0
M  V30 50 H -3.020222 -2.857591 -0.304887 0
M  V30 51 H 2.684906 -0.812400 -1.073119 0
M  V30 END ATOM
M  V30 BEGIN BOND
M  V30 1 1 1 2
M  V30 2 1 2 3
M  V30 3 2 3 4
M  V30 4 1 4 5
M  V30 5 2 5 6
M  V30 6 1 6 7
M  V30 7 2 7 8
M  V30 8 1 8 9
M  V30 9 1 9 10
M  V30 10 2 9 11
M  V30 11 1 11 12
M  V30 12 2 12 13
M  V30 13 1 12 14
M  V30 14 1 14 15
M  V30 15 1 15 16
M  V30 16 1 16 17
M  V30 17 1 17 18
M  V30 18 1 18 19
M  V30 19 1 19 20
M  V30 20 1 20 21
M  V30 21 2 21 22
M  V30 22 1 22 23
M  V30 23 2 23 24
M  V30 24 1 24 25
M  V30 25 1 24 26
M  V30 26 1 26 27
M  V30 27 2 26 28
M  V30 28 1 11 29
M  V30 29 2 29 30
M  V30 30 1 30 31
M  V30 31 1 6 2
M  V30 32 1 30 7
M  V30 33 1 20 15
M  V30 34 1 28 21
M  V30 35 1 1 32
M  V30 36 1 1 33
M  V30 37 1 1 34
M  V30 38 1 4 35
M  V30 39 1 5 36
M  V30 40 1 8 37
M  V30 41 1 14 38
M  V30 42 1 15 39 CFG=3
M  V30 43 1 16 40
M  V30 44 1 16 41
M  V30 45 1 17 42
M  V30 46 1 18 43
M  V30 47 1 18 44
M  V30 48 1 19 45
M  V30 49 1 19 46
M  V30 50 1 20 47 CFG=1
M  V30 51 1 22 48
M  V30 52 1 23 49
M  V30 53 1 28 50
M  V30 54 1 29 51
M  V30 END BOND
M  V30 END CTAB
M  END
>  <Dataset>  (253) 
ChEMBL_Kinases

>  <Ligand_Instance>  (253) 
nan

>  <PDB_ID>  (253) 
nan

>  <Standardized_SMILES>  (253) 
Cn1nccc1-c1cc(F)c(C(=O)N[C@@H]2CNCC[C@H]2c2ccc(F)c(F)c2)cc1F

>  <Name>  (253) 
nan

>  <Pocket>  (253) 
nan

>  <ATP_Site>  (253) 
nan

>  <Peripheral>  (253) 
nan

>  <Num_H_Atoms_ProtBoundConf>  (253) 
nan

>  <Num_Resolved_Atoms>  (253) 
nan

>  <Num_Not_Resolved_Atoms>  (253) 
nan

$$$$
CHEMBL485539
     RDKit          3D

  0  0  0  0  0  0  0  0  0  0999 V3000
M  V30 BEGIN CTAB
M  V30 COUNTS 57 60 0 0 0
M  V30 BEGIN ATOM
M  V30 1 C 2.202672 -3.086709 1.666172 0
M  V30 2 C 3.474485 -3.208432 0.843387 0
M  V30 3 S 3.063878 -2.816235 -0.855745 0
M  V30 4 O 4.209901 -3.051087 -1.765843 0
M  V30 5 O 1.907629 -3.725351 -1.225962 0
M  V30 6 N 2.456159 -1.211001 -0.880711 0
M  V30 7 C 3.436592 -0.243382 -0.424736 0
M  V30 8 C 2.651456 0.942038 0.093433 0
M  V30 9 C 1.450237 1.163191 -0.786983 0
M  V30 10 O 0.272958 0.635198 -0.264531 0
M  V30 11 C -0.879627 1.295122 0.063240 0
M  V30 12 C -1.202910 2.632315 -0.029522 0
M  V30 13 C -2.399077 3.167969 0.335041 0
M  V30 14 C -2.584876 4.545865 0.184130 0
M  V30 15 N -3.782592 5.078188 0.550043 0
M  V30 16 C -4.766232 4.285293 1.047753 0
M  V30 17 C -4.566610 2.916143 1.192021 0
M  V30 18 C -3.374976 2.334366 0.836351 0
M  V30 19 C -3.102722 0.986659 0.949944 0
M  V30 20 C -1.868981 0.444285 0.572268 0
M  V30 21 C -1.835896 -1.003599 0.789897 0
M  V30 22 C -1.356836 -1.903446 -0.136603 0
M  V30 23 C -1.324195 -3.267320 0.069209 0
M  V30 24 C -1.798412 -3.772369 1.274425 0
M  V30 25 S -1.723372 -5.497032 1.456241 0
M  V30 26 N -0.235151 -6.030752 2.153243 0
M  V30 27 O -1.971113 -6.149900 0.142038 0
M  V30 28 O -2.825011 -5.900857 2.423287 0
M  V30 29 C -2.288583 -2.882219 2.228551 0
M  V30 30 C -2.311553 -1.522270 2.001102 0
M  V30 31 C 1.650111 0.648444 -2.181542 0
M  V30 32 C 1.937637 -0.830917 -2.171707 0
M  V30 33 H 1.344280 -3.573829 1.159717 0
M  V30 34 H 1.971235 -2.023699 1.892172 0
M  V30 35 H 2.314115 -3.659060 2.631098 0
M  V30 36 H 3.813902 -4.280119 0.903828 0
M  V30 37 H 4.227280 -2.517541 1.235395 0
M  V30 38 H 4.003419 -0.666832 0.410048 0
M  V30 39 H 4.143242 0.054463 -1.224295 0
M  V30 40 H 2.296008 0.623893 1.117303 0
M  V30 41 H 3.314754 1.820871 0.158638 0
M  V30 42 H 1.265725 2.274613 -0.898904 0
M  V30 43 H -0.433713 3.249596 -0.418442 0
M  V30 44 H -1.784226 5.177532 -0.218861 0
M  V30 45 H -5.697195 4.762370 1.322025 0
M  V30 46 H -5.346778 2.281211 1.587673 0
M  V30 47 H -3.940066 0.426798 1.355088 0
M  V30 48 H -1.013759 -1.423964 -1.034520 0
M  V30 49 H -0.918874 -3.852845 -0.751287 0
M  V30 50 H 0.085444 -5.242769 2.776224 0
M  V30 51 H 0.484363 -6.226636 1.407308 0
M  V30 52 H -2.639336 -3.351448 3.139685 0
M  V30 53 H -2.706153 -0.873974 2.783245 0
M  V30 54 H 2.438885 1.227278 -2.704071 0
M  V30 55 H 0.713812 0.811782 -2.753951 0
M  V30 56 H 2.616268 -1.119216 -2.999471 0
M  V30 57 H 0.994392 -1.384425 -2.332442 0
M  V30 END ATOM
M  V30 BEGIN BOND
M  V30 1 1 1 2
M  V30 2 1 2 3
M  V30 3 2 3 4
M  V30 4 2 3 5
M  V30 5 1 3 6
M  V30 6 1 6 7
M  V30 7 1 7 8
M  V30 8 1 8 9
M  V30 9 1 9 10
M  V30 10 1 10 11
M  V30 11 2 11 12
M  V30 12 1 12 13
M  V30 13 2 13 14
M  V30 14 1 14 15
M  V30 15 2 15 16
M  V30 16 1 16 17
M  V30 17 2 17 18
M  V30 18 1 18 19
M  V30 19 2 19 20
M  V30 20 1 20 21
M  V30 21 2 21 22
M  V30 22 1 22 23
M  V30 23 2 23 24
M  V30 24 1 24 25
M  V30 25 1 25 26
M  V30 26 2 25 27
M  V30 27 2 25 28
M  V30 28 1 24 29
M  V30 29 2 29 30
M  V30 30 1 9 31
M  V30 31 1 31 32
M  V30 32 1 32 6
M  V30 33 1 20 11
M  V30 34 1 30 21
M  V30 35 1 18 13
M  V30 36 1 1 33
M  V30 37 1 1 34
M  V30 38 1 1 35
M  V30 39 1 2 36
M  V30 40 1 2 37
M  V30 41 1 7 38
M  V30 42 1 7 39
M  V30 43 1 8 40
M  V30 44 1 8 41
M  V30 45 1 9 42
M  V30 46 1 12 43
M  V30 47 1 14 44
M  V30 48 1 16 45
M  V30 49 1 17 46
M  V30 50 1 19 47
M  V30 51 1 22 48
M  V30 52 1 23 49
M  V30 53 1 26 50
M  V30 54 1 26 51
M  V30 55 1 29 52
M  V30 56 1 30 53
M  V30 57 1 31 54
M  V30 58 1 31 55
M  V30 59 1 32 56
M  V30 60 1 32 57
M  V30 END BOND
M  V30 END CTAB
M  END
>  <Dataset>  (254) 
ChEMBL_Kinases

>  <Ligand_Instance>  (254) 
nan

>  <PDB_ID>  (254) 
nan

>  <Standardized_SMILES>  (254) 
CCS(=O)(=O)N1CCC(Oc2cc3cnccc3cc2-c2ccc(S(N)(=O)=O)cc2)CC1

>  <Name>  (254) 
nan

>  <Pocket>  (254) 
nan

>  <ATP_Site>  (254) 
nan

>  <Peripheral>  (254) 
nan

>  <Num_H_Atoms_ProtBoundConf>  (254) 
nan

>  <Num_Resolved_Atoms>  (254) 
nan

>  <Num_Not_Resolved_Atoms>  (254) 
nan

$$$$
CHEMBL4079336
     RDKit          3D

  0  0  0  0  0  0  0  0  0  0999 V3000
M  V30 BEGIN CTAB
M  V30 COUNTS 56 59 0 0 0
M  V30 BEGIN ATOM
M  V30 1 N 4.523959 -1.842486 4.543660 0
M  V30 2 C 5.716294 -1.099860 4.336463 0
M  V30 3 O 6.735856 -1.344482 5.026103 0
M  V30 4 C 5.807006 -0.050444 3.342315 0
M  V30 5 C 6.777465 0.783507 2.948340 0
M  V30 6 C 6.534812 1.684067 1.953528 0
M  V30 7 C 5.247053 1.696250 1.373385 0
M  V30 8 C 4.856100 2.591914 0.317786 0
M  V30 9 C 5.781357 3.492079 -0.161398 0
M  V30 10 C 5.486445 4.375893 -1.163397 0
M  V30 11 N 4.228861 4.326456 -1.670072 0
M  V30 12 C 3.327011 3.445855 -1.199876 0
M  V30 13 C 3.588591 2.543898 -0.194684 0
M  V30 14 C 2.534073 1.643335 0.228162 0
M  V30 15 C 1.333837 1.629629 -0.289547 0
M  V30 16 C 0.253855 0.735222 0.115879 0
M  V30 17 O 0.490615 -0.074383 1.020317 0
M  V30 18 N -1.028112 0.749077 -0.465245 0
M  V30 19 C -2.135668 -0.046998 -0.169460 0
M  V30 20 C -2.239606 -1.043878 0.768976 0
M  V30 21 C -3.371980 -1.794469 1.008378 0
M  V30 22 C -4.520011 -1.564206 0.272148 0
M  V30 23 C -5.692877 -2.400371 0.587853 0
M  V30 24 N -5.774286 -3.636126 -0.114226 0
M  V30 25 C -5.849335 -3.571418 -1.532098 0
M  V30 26 C -4.705615 -4.365917 -2.168689 0
M  V30 27 O -4.757011 -5.706435 -1.788102 0
M  V30 28 C -5.027443 -5.891199 -0.440337 0
M  V30 29 C -4.822222 -4.623907 0.357321 0
M  V30 30 C -4.455509 -0.578253 -0.672625 0
M  V30 31 C -3.306214 0.141043 -0.873780 0
M  V30 32 S 4.442608 0.377195 2.318858 0
M  V30 33 H 3.771105 -2.053857 5.233942 0
M  V30 34 H 3.968050 -2.496747 3.971182 0
M  V30 35 H 7.708263 0.647639 3.492959 0
M  V30 36 H 7.378380 2.341758 1.677349 0
M  V30 37 H 6.779427 3.546757 0.225703 0
M  V30 38 H 6.250595 5.059079 -1.499730 0
M  V30 39 H 2.423215 3.583069 -1.734443 0
M  V30 40 H 2.566305 0.894508 0.982396 0
M  V30 41 H 1.066439 2.328899 -1.098718 0
M  V30 42 H -1.130632 1.468908 -1.221324 0
M  V30 43 H -1.387476 -1.274027 1.373947 0
M  V30 44 H -3.362815 -2.566615 1.775122 0
M  V30 45 H -6.652148 -1.832120 0.402046 0
M  V30 46 H -5.696517 -2.616527 1.684602 0
M  V30 47 H -6.782845 -4.081994 -1.903702 0
M  V30 48 H -5.808743 -2.584262 -1.985377 0
M  V30 49 H -4.870913 -4.345285 -3.268363 0
M  V30 50 H -3.765474 -3.858888 -1.877938 0
M  V30 51 H -4.254108 -6.609408 -0.064448 0
M  V30 52 H -6.031399 -6.305289 -0.340437 0
M  V30 53 H -3.785312 -4.305743 0.176924 0
M  V30 54 H -5.041631 -4.857862 1.416598 0
M  V30 55 H -5.338052 -0.376914 -1.255895 0
M  V30 56 H -3.360120 0.908470 -1.655485 0
M  V30 END ATOM
M  V30 BEGIN BOND
M  V30 1 1 1 2
M  V30 2 2 2 3
M  V30 3 1 2 4
M  V30 4 2 4 5
M  V30 5 1 5 6
M  V30 6 2 6 7
M  V30 7 1 7 8
M  V30 8 2 8 9
M  V30 9 1 9 10
M  V30 10 2 10 11
M  V30 11 1 11 12
M  V30 12 2 12 13
M  V30 13 1 13 14
M  V30 14 2 14 15
M  V30 15 1 15 16
M  V30 16 2 16 17
M  V30 17 1 16 18
M  V30 18 1 18 19
M  V30 19 2 19 20
M  V30 20 1 20 21
M  V30 21 2 21 22
M  V30 22 1 22 23
M  V30 23 1 23 24
M  V30 24 1 24 25
M  V30 25 1 25 26
M  V30 26 1 26 27
M  V30 27 1 27 28
M  V30 28 1 28 29
M  V30 29 1 22 30
M  V30 30 2 30 31
M  V30 31 1 7 32
M  V30 32 1 32 4
M  V30 33 1 13 8
M  V30 34 1 31 19
M  V30 35 1 29 24
M  V30 36 1 1 33
M  V30 37 1 1 34
M  V30 38 1 5 35
M  V30 39 1 6 36
M  V30 40 1 9 37
M  V30 41 1 10 38
M  V30 42 1 12 39
M  V30 43 1 14 40
M  V30 44 1 15 41
M  V30 45 1 18 42
M  V30 46 1 20 43
M  V30 47 1 21 44
M  V30 48 1 23 45
M  V30 49 1 23 46
M  V30 50 1 25 47
M  V30 51 1 25 48
M  V30 52 1 26 49
M  V30 53 1 26 50
M  V30 54 1 28 51
M  V30 55 1 28 52
M  V30 56 1 29 53
M  V30 57 1 29 54
M  V30 58 1 30 55
M  V30 59 1 31 56
M  V30 END BOND
M  V30 END CTAB
M  END
>  <Dataset>  (255) 
ChEMBL_Kinases

>  <Ligand_Instance>  (255) 
nan

>  <PDB_ID>  (255) 
nan

>  <Standardized_SMILES>  (255) 
NC(=O)c1ccc(-c2ccncc2/C=C/C(=O)Nc2ccc(CN3CCOCC3)cc2)s1

>  <Name>  (255) 
nan

>  <Pocket>  (255) 
nan

>  <ATP_Site>  (255) 
nan

>  <Peripheral>  (255) 
nan

>  <Num_H_Atoms_ProtBoundConf>  (255) 
nan

>  <Num_Resolved_Atoms>  (255) 
nan

>  <Num_Not_Resolved_Atoms>  (255) 
nan

$$$$
CHEMBL4079228
     RDKit          3D

  0  0  0  0  0  0  0  0  0  0999 V3000
M  V30 BEGIN CTAB
M  V30 COUNTS 61 65 0 0 0
M  V30 BEGIN ATOM
M  V30 1 C 7.953576 0.943783 5.575744 0
M  V30 2 N 6.729359 0.887871 4.805720 0
M  V30 3 C 6.638752 0.082935 3.639279 0
M  V30 4 O 7.673988 -0.564715 3.328789 0
M  V30 5 C 5.460629 -0.055231 2.780397 0
M  V30 6 C 5.597461 -0.893232 1.691677 0
M  V30 7 C 4.519936 -1.083780 0.818381 0
M  V30 8 C 3.318872 -0.439774 1.035734 0
M  V30 9 C 3.239066 0.395805 2.153869 0
M  V30 10 C 4.279132 0.607640 3.036128 0
M  V30 11 C 2.060865 1.183043 2.587925 0
M  V30 12 O 2.151067 1.958793 3.572679 0
M  V30 13 C 0.740285 1.143993 1.950463 0
M  V30 14 C -0.278622 1.558827 2.794025 0
M  V30 15 C -1.578151 1.575517 2.340492 0
M  V30 16 C -1.925950 1.192934 1.064832 0
M  V30 17 N -3.265322 1.227356 0.600841 0
M  V30 18 C -3.934331 0.531518 -0.416355 0
M  V30 19 C -5.090326 1.024838 -1.004945 0
M  V30 20 C -5.747721 0.327524 -1.990255 0
M  V30 21 C -5.305129 -0.888493 -2.448541 0
M  V30 22 C -6.012885 -1.647910 -3.515156 0
M  V30 23 C -4.156366 -1.436975 -1.902577 0
M  V30 24 N -3.652221 -2.693319 -2.343029 0
M  V30 25 C -4.240876 -3.731115 -1.572670 0
M  V30 26 O -5.071966 -3.784237 -0.631444 0
M  V30 27 C -3.962045 -5.190022 -1.733398 0
M  V30 28 C -2.437605 -5.538044 -1.737210 0
M  V30 29 C -3.311035 -5.738092 -2.925564 0
M  V30 30 C -3.514783 -0.700833 -0.903179 0
M  V30 31 C -0.870003 0.784042 0.252642 0
M  V30 32 C 0.467814 0.746765 0.658819 0
M  V30 33 C 1.380958 0.280065 -0.390271 0
M  V30 34 C 2.340146 -0.782591 0.004335 0
M  V30 35 H 8.335034 1.967101 5.649507 0
M  V30 36 H 7.757168 0.557783 6.614609 0
M  V30 37 H 8.677335 0.225993 5.140130 0
M  V30 38 H 5.877032 1.427240 5.071880 0
M  V30 39 H 6.487308 -1.453497 1.416038 0
M  V30 40 H 4.600653 -1.734147 -0.042187 0
M  V30 41 H 4.179536 1.253263 3.879384 0
M  V30 42 H -0.003380 1.853904 3.779210 0
M  V30 43 H -2.370307 1.903423 3.010914 0
M  V30 44 H -3.877955 1.920263 1.132509 0
M  V30 45 H -5.489285 1.993951 -0.673378 0
M  V30 46 H -6.636534 0.753030 -2.412964 0
M  V30 47 H -5.271622 -2.211807 -4.117218 0
M  V30 48 H -6.459994 -0.901180 -4.204128 0
M  V30 49 H -6.809955 -2.289095 -3.109786 0
M  V30 50 H -2.972768 -2.990668 -3.077659 0
M  V30 51 H -4.533964 -5.818679 -1.041135 0
M  V30 52 H -1.749803 -4.683965 -1.657187 0
M  V30 53 H -2.126607 -6.404845 -1.122735 0
M  V30 54 H -3.548632 -6.800151 -3.182151 0
M  V30 55 H -3.075770 -5.108737 -3.785140 0
M  V30 56 H -2.645026 -1.183702 -0.516505 0
M  V30 57 H -1.018666 0.475422 -0.764703 0
M  V30 58 H 0.806090 -0.130284 -1.265749 0
M  V30 59 H 1.946890 1.183623 -0.739451 0
M  V30 60 H 1.775895 -1.724609 0.210014 0
M  V30 61 H 2.922940 -1.025131 -0.934865 0
M  V30 END ATOM
M  V30 BEGIN BOND
M  V30 1 1 1 2
M  V30 2 1 2 3
M  V30 3 2 3 4
M  V30 4 1 3 5
M  V30 5 2 5 6
M  V30 6 1 6 7
M  V30 7 2 7 8
M  V30 8 1 8 9
M  V30 9 2 9 10
M  V30 10 1 9 11
M  V30 11 2 11 12
M  V30 12 1 11 13
M  V30 13 2 13 14
M  V30 14 1 14 15
M  V30 15 2 15 16
M  V30 16 1 16 17
M  V30 17 1 17 18
M  V30 18 2 18 19
M  V30 19 1 19 20
M  V30 20 2 20 21
M  V30 21 1 21 22
M  V30 22 1 21 23
M  V30 23 1 23 24
M  V30 24 1 24 25
M  V30 25 2 25 26
M  V30 26 1 25 27
M  V30 27 1 27 28
M  V30 28 1 28 29
M  V30 29 2 23 30
M  V30 30 1 16 31
M  V30 31 2 31 32
M  V30 32 1 32 33
M  V30 33 1 33 34
M  V30 34 1 10 5
M  V30 35 1 32 13
M  V30 36 1 34 8
M  V30 37 1 30 18
M  V30 38 1 29 27
M  V30 39 1 1 35
M  V30 40 1 1 36
M  V30 41 1 1 37
M  V30 42 1 2 38
M  V30 43 1 6 39
M  V30 44 1 7 40
M  V30 45 1 10 41
M  V30 46 1 14 42
M  V30 47 1 15 43
M  V30 48 1 17 44
M  V30 49 1 19 45
M  V30 50 1 20 46
M  V30 51 1 22 47
M  V30 52 1 22 48
M  V30 53 1 22 49
M  V30 54 1 24 50
M  V30 55 1 27 51
M  V30 56 1 28 52
M  V30 57 1 28 53
M  V30 58 1 29 54
M  V30 59 1 29 55
M  V30 60 1 30 56
M  V30 61 1 31 57
M  V30 62 1 33 58
M  V30 63 1 33 59
M  V30 64 1 34 60
M  V30 65 1 34 61
M  V30 END BOND
M  V30 END CTAB
M  END
>  <Dataset>  (256) 
ChEMBL_Kinases

>  <Ligand_Instance>  (256) 
nan

>  <PDB_ID>  (256) 
nan

>  <Standardized_SMILES>  (256) 
CNC(=O)c1ccc2c(c1)C(=O)c1ccc(Nc3ccc(C)c(NC(=O)C4CC4)c3)cc1CC2

>  <Name>  (256) 
nan

>  <Pocket>  (256) 
nan

>  <ATP_Site>  (256) 
nan

>  <Peripheral>  (256) 
nan

>  <Num_H_Atoms_ProtBoundConf>  (256) 
nan

>  <Num_Resolved_Atoms>  (256) 
nan

>  <Num_Not_Resolved_Atoms>  (256) 
nan

$$$$
CHEMBL4079223
     RDKit          3D

  0  0  0  0  0  0  0  0  0  0999 V3000
M  V30 BEGIN CTAB
M  V30 COUNTS 425 431 0 0 0
M  V30 BEGIN ATOM
M  V30 1 C -1.739732 -8.345384 0.350272 0
M  V30 2 C -2.552489 -8.001913 1.604978 0
M  V30 3 C -3.255100 -6.691349 1.454086 0 CFG=2
M  V30 4 C -2.198669 -5.638175 1.259140 0
M  V30 5 C -4.215053 -6.346593 2.575555 0 CFG=2
M  V30 6 N -5.338501 -7.242172 2.695820 0
M  V30 7 C -6.058489 -8.315070 2.129416 0
M  V30 8 O -5.457083 -8.623942 1.050449 0
M  V30 9 C -7.299761 -8.806774 2.894821 0 CFG=2
M  V30 10 C -6.916964 -9.243435 4.256807 0
M  V30 11 O -8.065354 -9.622646 4.963650 0
M  V30 12 N -7.957764 -9.765169 2.100375 0
M  V30 13 C -7.885663 -10.397272 0.877704 0
M  V30 14 O -7.014998 -10.282286 0.012313 0
M  V30 15 C -8.576389 -11.354274 0.010422 0 CFG=2
M  V30 16 C -9.297706 -12.462212 0.660425 0
M  V30 17 O -8.455126 -13.417596 1.241034 0
M  V30 18 N -7.708375 -11.783816 -1.086963 0
M  V30 19 C -7.558576 -10.942614 -2.192047 0
M  V30 20 O -8.232846 -9.847413 -2.123916 0
M  V30 21 C -6.841151 -10.894190 -3.464871 0 CFG=2
M  V30 22 C -5.463044 -11.544527 -3.407138 0
M  V30 23 C -4.497653 -10.949638 -2.431613 0
M  V30 24 C -3.239376 -11.742608 -2.579368 0
M  V30 25 O -3.618713 -12.575363 -3.471237 0
M  V30 26 O -2.058819 -12.443466 -2.680131 0
M  V30 27 N -6.824913 -9.532476 -3.949654 0
M  V30 28 C -5.946583 -8.696890 -4.730818 0
M  V30 29 O -4.935671 -9.339556 -5.055700 0
M  V30 30 C -6.456925 -7.305093 -4.933164 0 CFG=1
M  V30 31 N -5.369928 -6.346175 -4.944974 0
M  V30 32 C -5.456951 -5.258554 -4.005645 0
M  V30 33 O -6.528864 -5.282979 -3.274841 0
M  V30 34 C -4.851003 -4.052409 -3.454803 0 CFG=2
M  V30 35 C -5.720646 -2.813968 -3.658336 0
M  V30 36 C -5.156698 -2.224364 -4.931660 0
M  V30 37 C -3.965646 -3.110058 -5.275080 0
M  V30 38 N -3.551277 -3.690388 -4.006981 0
M  V30 39 C -2.401746 -3.982709 -3.180623 0
M  V30 40 O -2.214622 -4.503627 -2.054043 0
M  V30 41 C -1.021556 -3.616393 -3.687316 0 CFG=2
M  V30 42 C -0.747540 -4.366287 -4.978227 0
M  V30 43 C -0.785915 -5.835802 -4.808377 0
M  V30 44 C -0.489704 -6.577948 -6.063136 0
M  V30 45 C -1.399021 -6.381922 -7.216168 0
M  V30 46 N -1.470508 -5.064048 -7.748543 0
M  V30 47 N -0.104893 -3.956651 -2.621666 0
M  V30 48 C 0.515727 -2.965746 -1.854952 0
M  V30 49 O 0.526145 -1.717255 -1.790936 0
M  V30 50 C 1.496387 -2.877112 -0.702591 0 CFG=2
M  V30 51 C 0.882386 -3.700476 0.387901 0
M  V30 52 C 1.642938 -3.821960 1.648677 0
M  V30 53 C 3.009399 -4.458817 1.452837 0
M  V30 54 C 1.841353 -2.522069 2.387602 0
M  V30 55 N 1.523165 -1.465835 -0.326866 0
M  V30 56 C 2.702688 -0.653742 -0.179298 0
M  V30 57 O 3.655726 -1.421304 -0.422403 0
M  V30 58 C 2.713396 0.763818 0.177498 0 CFG=2
M  V30 59 C 2.149441 1.553820 -1.043880 0
M  V30 60 C 2.172119 3.020003 -0.687105 0
M  V30 61 C 1.731012 3.829480 -1.833953 0
M  V30 62 N 1.532209 5.184781 -1.452714 0
M  V30 63 O 1.475878 3.616606 -3.074105 0
M  V30 64 N 4.032731 1.354660 0.412504 0
M  V30 65 C 4.939543 1.029541 -0.611199 0
M  V30 66 O 4.925491 0.338401 -1.652401 0
M  V30 67 C 6.300138 1.546521 -0.649520 0 CFG=2
M  V30 68 C 6.155288 2.921161 -1.407103 0
M  V30 69 N 7.226632 0.744103 -1.404512 0
M  V30 70 C 8.592442 0.882373 -1.714505 0
M  V30 71 O 9.092721 1.952715 -1.296061 0
M  V30 72 C 9.294046 -0.255914 -2.496558 0 CFG=1
M  V30 73 N 8.396021 -1.410473 -2.333158 0
M  V30 74 C 8.261997 -1.622237 -0.923977 0
M  V30 75 O 8.830235 -0.913920 -0.011911 0
M  V30 76 C 7.660900 -2.412081 0.183020 0
M  V30 77 N 8.065234 -1.754817 1.430897 0
M  V30 78 C 7.469046 -2.438253 2.508644 0
M  V30 79 O 6.730186 -3.461583 2.339784 0
M  V30 80 C 7.439339 -2.299238 3.975145 0
M  V30 81 N 6.661771 -3.334402 4.604118 0
M  V30 82 C 7.049887 -0.918970 4.449508 0
M  V30 83 C 5.704081 -0.470846 3.987388 0
M  V30 84 C 4.557414 -1.306784 4.412210 0
M  V30 85 C 4.283035 -1.398454 5.870448 0
M  V30 86 N 3.878864 -0.105985 6.428651 0
M  V30 87 C 2.545042 0.217525 6.422365 0
M  V30 88 C 2.268309 1.476944 6.977053 0
M  V30 89 C 0.830548 1.931161 7.019551 0
M  V30 90 C 0.456086 2.655024 5.757456 0
M  V30 91 C -1.012411 3.079851 5.805847 0
M  V30 92 C -1.886127 1.833163 5.957573 0
M  V30 93 N -1.675476 0.938882 4.841537 0
M  V30 94 C -1.971046 1.164633 3.435947 0
M  V30 95 O -2.477231 2.312885 3.453509 0
M  V30 96 C -1.555747 -0.017609 2.688255 0
M  V30 97 C -2.011458 -0.030704 1.282091 0
M  V30 98 C -1.555988 1.163884 0.467243 0
M  V30 99 C -1.938824 0.959637 -0.967486 0
M  V30 100 C -1.649958 2.058314 -1.936266 0
M  V30 101 N -1.953987 1.583459 -3.308194 0
M  V30 102 N -2.978942 1.516838 -4.134839 0
M  V30 103 C -2.623113 0.896797 -5.265066 0
M  V30 104 N -3.437787 0.635644 -6.383576 0
M  V30 105 C -1.290946 0.518162 -5.212959 0
M  V30 106 C -0.347621 -0.115535 -5.988716 0
M  V30 107 C 0.992555 -0.350596 -5.631221 0
M  V30 108 C 1.816262 -1.034984 -6.588139 0
M  V30 109 C 2.645684 -2.065683 -6.282516 0
M  V30 110 C 3.165899 -2.861403 -5.199507 0
M  V30 111 C 3.902410 -2.259191 -4.199011 0
M  V30 112 C 4.452939 -3.001794 -3.163451 0
M  V30 113 C 4.274103 -4.368305 -3.113380 0
M  V30 114 C 3.550774 -5.020132 -4.083850 0
M  V30 115 C 3.027520 -4.237290 -5.086050 0
M  V30 116 N 3.220633 -2.471564 -7.451676 0
M  V30 117 N 2.776278 -1.728907 -8.453570 0
M  V30 118 C 2.959904 -1.642071 -9.777442 0
M  V30 119 C 2.391498 -0.773685 -10.664285 0
M  V30 120 C 1.493021 0.153936 -10.128681 0
M  V30 121 C 1.275294 0.096818 -8.773269 0
M  V30 122 C 1.894578 -0.817424 -7.943206 0
M  V30 123 N 1.239568 0.133790 -4.412975 0
M  V30 124 N 0.372691 0.734716 -3.655318 0
M  V30 125 C -0.904040 0.975374 -3.955517 0
M  V30 126 N 3.512489 1.841513 7.294107 0
M  V30 127 N 4.408112 0.958264 6.986609 0
M  V30 128 C 9.256419 0.148497 -3.903474 0 CFG=1
M  V30 129 C 9.952703 1.439752 -4.247043 0
M  V30 130 O 9.696319 -0.899922 -4.734814 0
M  V30 131 C -7.164027 -7.283484 -6.299754 0 CFG=1
M  V30 132 C -8.281218 -8.294514 -6.251401 0
M  V30 133 C -7.820399 -5.918776 -6.532526 0
M  V30 134 C -8.496145 -6.021552 -7.910579 0
M  V30 135 C -4.564307 -4.946456 2.694784 0
M  V30 136 O -5.807287 -5.281109 2.829689 0
M  V30 137 N -4.421348 -3.553848 2.750549 0
M  V30 138 C -5.455063 -2.538107 2.943646 0 CFG=1
M  V30 139 C -5.102295 -1.878967 4.247027 0
M  V30 140 C -5.997328 -0.783164 4.706076 0
M  V30 141 C -7.428256 -1.234754 4.898344 0
M  V30 142 C -5.532312 -0.409867 6.144392 0
M  V30 143 C -5.434786 -1.579195 1.854267 0
M  V30 144 O -4.497215 -2.251545 1.368518 0
M  V30 145 N -6.085173 -0.415975 1.414059 0
M  V30 146 C -5.947415 0.443159 0.273448 0 CFG=1
M  V30 147 C -7.188340 0.177530 -0.613201 0
M  V30 148 C -5.782140 1.870837 0.517524 0
M  V30 149 O -5.794268 2.322088 -0.700465 0
M  V30 150 N -5.619823 2.992646 1.393353 0
M  V30 151 C -5.516760 4.408394 1.034828 0 CFG=1
M  V30 152 C -6.598389 5.258838 1.544324 0
M  V30 153 C -6.841815 5.332389 3.012183 0
M  V30 154 C -5.693025 5.858383 3.747677 0
M  V30 155 N -6.255938 5.870065 5.095613 0
M  V30 156 O -4.819548 6.294467 4.536920 0
M  V30 157 C -4.142773 4.898283 1.133432 0
M  V30 158 O -2.994660 4.470138 1.360845 0
M  V30 159 N -3.786322 6.304779 0.929420 0
M  V30 160 C -2.433283 6.799898 0.955257 0 CFG=1
M  V30 161 C -2.263323 8.090598 0.242113 0
M  V30 162 C -2.650182 8.049100 -1.171588 0
M  V30 163 C -1.963700 7.070611 -2.066018 0
M  V30 164 N -2.495398 7.324230 -3.429740 0
M  V30 165 C -3.844657 7.092772 -3.812269 0
M  V30 166 N -4.428584 6.077835 -3.247025 0
M  V30 167 N -4.356172 8.023313 -4.782270 0
M  V30 168 C -1.917078 6.983089 2.387603 0
M  V30 169 O -2.131343 7.001382 3.626552 0
M  V30 170 N -0.488728 7.278176 2.391484 0
M  V30 171 C 0.345511 7.528508 3.500603 0 CFG=1
M  V30 172 C 1.288675 6.503453 3.981182 0
M  V30 173 C 2.370475 6.043349 3.067468 0
M  V30 174 C 3.281131 5.072334 3.828355 0
M  V30 175 N 4.375759 4.662954 2.986453 0
M  V30 176 C 5.257982 3.832931 3.766556 0
M  V30 177 N 5.006632 3.335576 4.955025 0
M  V30 178 N 6.519781 3.580813 3.096514 0
M  V30 179 C 1.094424 8.816465 3.211451 0
M  V30 180 O 0.815065 9.766460 2.406745 0
M  V30 181 N 2.287595 9.161617 3.828754 0
M  V30 182 C 3.408110 9.991985 4.104780 0 CFG=2
M  V30 183 C 4.616197 9.711965 3.285014 0
M  V30 184 O 5.599214 10.344641 3.839493 0
M  V30 185 N 5.073503 9.030030 2.151123 0
M  V30 186 C 6.464138 9.056250 1.733001 0 CFG=1
M  V30 187 C 6.865258 7.735038 1.153215 0
M  V30 188 C 8.303726 7.761293 0.703802 0
M  V30 189 C 9.303024 8.020039 1.780742 0
M  V30 190 N 9.338291 6.949943 2.785878 0
M  V30 191 C 9.885970 5.752369 2.189092 0
M  V30 192 N 10.523067 5.747566 1.087800 0
M  V30 193 N 9.719797 4.485018 2.856965 0
M  V30 194 C 6.714784 10.162586 0.746525 0
M  V30 195 O 7.772446 10.626913 0.258521 0
M  V30 196 N 5.596043 10.893693 0.194667 0
M  V30 197 C 5.866677 11.945040 -0.726759 0 CFG=1
M  V30 198 C 6.242206 11.535322 -2.117965 0
M  V30 199 C 5.264427 10.725366 -2.887390 0
M  V30 200 C 4.941240 9.367787 -2.376686 0
M  V30 201 C 3.937793 8.646766 -3.271287 0
M  V30 202 N 4.534352 8.530394 -4.582643 0
M  V30 203 C 4.838794 12.984978 -0.764578 0
M  V30 204 O 3.997999 12.510097 0.019566 0
M  V30 205 O 4.137786 14.131755 -1.057370 0
M  V30 206 C 3.697959 10.099486 5.583985 0
M  V30 207 C 4.019050 8.751800 6.178005 0
M  V30 208 C 4.698383 11.150579 5.930275 0
M  V30 209 H -0.715531 -7.920059 0.373772 0
M  V30 210 H -2.331404 -8.119742 -0.532092 0
M  V30 211 H -1.595704 -9.443466 0.380694 0
M  V30 212 H -3.128458 -8.863863 1.878205 0
M  V30 213 H -1.734114 -7.804245 2.380472 0
M  V30 214 H -3.911199 -6.714678 0.519280 0
M  V30 215 H -2.656637 -4.799528 0.698704 0
M  V30 216 H -1.892420 -5.282360 2.251739 0
M  V30 217 H -1.325281 -6.055126 0.695948 0
M  V30 218 H -3.539290 -6.631985 3.488118 0
M  V30 219 H -5.765181 -6.909617 3.626114 0
M  V30 220 H -7.868579 -7.831055 2.938643 0
M  V30 221 H -6.461765 -8.402346 4.784881 0
M  V30 222 H -6.157776 -10.059089 4.274426 0
M  V30 223 H -7.878495 -10.448737 5.503036 0
M  V30 224 H -8.806277 -10.153566 2.560861 0
M  V30 225 H -9.393742 -10.701045 -0.491253 0
M  V30 226 H -10.015517 -12.097264 1.448428 0
M  V30 227 H -9.893522 -13.047286 -0.098366 0
M  V30 228 H -9.061513 -14.122564 1.617255 0
M  V30 229 H -7.107123 -12.624936 -1.301111 0
M  V30 230 H -7.316764 -11.475950 -4.307973 0
M  V30 231 H -5.025102 -11.617042 -4.437147 0
M  V30 232 H -5.576214 -12.624137 -3.107574 0
M  V30 233 H -4.845472 -11.172110 -1.375855 0
M  V30 234 H -4.331068 -9.882744 -2.486034 0
M  V30 235 H -1.230990 -12.028135 -3.138262 0
M  V30 236 H -7.730895 -9.052582 -3.648574 0
M  V30 237 H -7.193881 -7.017279 -4.203284 0
M  V30 238 H -4.456256 -6.097796 -5.401924 0
M  V30 239 H -4.787007 -4.136304 -2.326953 0
M  V30 240 H -5.609767 -2.096523 -2.825145 0
M  V30 241 H -6.806272 -3.068056 -3.734048 0
M  V30 242 H -4.884759 -1.172568 -4.741362 0
M  V30 243 H -5.857586 -2.218851 -5.779526 0
M  V30 244 H -3.200636 -2.409346 -5.707187 0
M  V30 245 H -4.223961 -3.837209 -6.047610 0
M  V30 246 H -1.094094 -2.551076 -3.914244 0
M  V30 247 H -1.503160 -4.073959 -5.747313 0
M  V30 248 H 0.216976 -4.043171 -5.362961 0
M  V30 249 H -0.108623 -6.200581 -3.996629 0
M  V30 250 H -1.824805 -6.169297 -4.482704 0
M  V30 251 H 0.552142 -6.346430 -6.444673 0
M  V30 252 H -0.438955 -7.680404 -5.853639 0
M  V30 253 H -2.419043 -6.774668 -6.974744 0
M  V30 254 H -0.995597 -7.036890 -8.045274 0
M  V30 255 H -0.959995 -4.969139 -8.654351 0
M  V30 256 H -2.483500 -4.860953 -7.991562 0
M  V30 257 H 0.243804 -4.848614 -2.249028 0
M  V30 258 H 2.498769 -3.193780 -0.973243 0
M  V30 259 H -0.142526 -3.282081 0.658410 0
M  V30 260 H 0.626021 -4.740343 0.040604 0
M  V30 261 H 1.109069 -4.521118 2.357407 0
M  V30 262 H 3.007061 -5.310616 0.767474 0
M  V30 263 H 3.324853 -4.841375 2.459743 0
M  V30 264 H 3.788144 -3.680494 1.196112 0
M  V30 265 H 1.144588 -1.723703 2.059199 0
M  V30 266 H 1.772882 -2.742878 3.477440 0
M  V30 267 H 2.873977 -2.138723 2.205566 0
M  V30 268 H 0.588267 -0.977275 -0.130853 0
M  V30 269 H 2.018888 0.952682 1.002269 0
M  V30 270 H 1.119020 1.205248 -1.087266 0
M  V30 271 H 2.806156 1.321356 -1.875375 0
M  V30 272 H 1.461338 3.220699 0.173455 0
M  V30 273 H 3.158127 3.346281 -0.278624 0
M  V30 274 H 1.478142 6.187721 -1.161405 0
M  V30 275 H 0.535515 5.424884 -1.497322 0
M  V30 276 H 4.342790 1.954362 1.204264 0
M  V30 277 H 6.764047 1.845203 0.265139 0
M  V30 278 H 7.152318 3.373952 -1.543402 0
M  V30 279 H 5.585902 2.726131 -2.326835 0
M  V30 280 H 5.572233 3.579322 -0.742255 0
M  V30 281 H 6.734677 -0.109501 -1.811093 0
M  V30 282 H 10.226918 -0.391328 -1.973237 0
M  V30 283 H 7.782144 -2.193933 -2.640030 0
M  V30 284 H 8.007598 -3.458486 0.185160 0
M  V30 285 H 6.571345 -2.386410 0.136529 0
M  V30 286 H 8.624875 -0.978781 1.864082 0
M  V30 287 H 8.496807 -2.451040 4.337531 0
M  V30 288 H 6.733151 -4.253521 4.163727 0
M  V30 289 H 6.928066 -3.442618 5.620716 0
M  V30 290 H 7.120589 -0.947165 5.562400 0
M  V30 291 H 7.815075 -0.199368 4.083067 0
M  V30 292 H 5.528013 0.602226 4.307182 0
M  V30 293 H 5.716897 -0.432859 2.876453 0
M  V30 294 H 3.644016 -0.827914 3.964732 0
M  V30 295 H 4.641900 -2.319677 3.973999 0
M  V30 296 H 3.473651 -2.120278 6.054814 0
M  V30 297 H 5.172923 -1.746023 6.456054 0
M  V30 298 H 1.754208 -0.445857 6.018382 0
M  V30 299 H 0.168794 1.109983 7.302690 0
M  V30 300 H 0.726002 2.690330 7.843950 0
M  V30 301 H 1.032667 3.580649 5.727382 0
M  V30 302 H 0.621335 2.030916 4.852346 0
M  V30 303 H -1.261392 3.653038 4.917585 0
M  V30 304 H -1.142908 3.717438 6.699186 0
M  V30 305 H -1.758356 1.426970 6.936709 0
M  V30 306 H -2.954775 2.197477 5.881086 0
M  V30 307 H -1.243741 0.040929 5.234024 0
M  V30 308 H -1.900859 -0.966341 3.226060 0
M  V30 309 H -0.432802 -0.056662 2.763037 0
M  V30 310 H -3.142964 0.032332 1.251305 0
M  V30 311 H -1.756635 -0.997458 0.803188 0
M  V30 312 H -0.490495 1.275813 0.568790 0
M  V30 313 H -2.042331 2.033550 0.922246 0
M  V30 314 H -1.579141 -0.033980 -1.342225 0
M  V30 315 H -3.067321 0.843731 -0.976602 0
M  V30 316 H -0.654322 2.408713 -1.883788 0
M  V30 317 H -2.382781 2.906506 -1.813647 0
M  V30 318 H -4.478008 0.661658 -6.449952 0
M  V30 319 H -3.055979 0.372791 -7.323038 0
M  V30 320 H -0.821720 -0.416686 -6.934731 0
M  V30 321 H 4.098467 -1.221837 -4.121931 0
M  V30 322 H 5.058089 -2.635654 -2.336439 0
M  V30 323 H 4.672860 -5.010697 -2.341013 0
M  V30 324 H 3.381083 -6.104403 -4.086690 0
M  V30 325 H 2.460169 -4.750035 -5.851579 0
M  V30 326 H 3.668981 -2.392476 -10.132965 0
M  V30 327 H 2.676758 -0.864190 -11.723950 0
M  V30 328 H 1.034380 0.844032 -10.818176 0
M  V30 329 H 0.582676 0.816760 -8.367526 0
M  V30 330 H 8.153585 0.285251 -4.166599 0
M  V30 331 H 9.214012 2.220433 -4.593747 0
M  V30 332 H 10.597019 1.269992 -5.160661 0
M  V30 333 H 10.600918 1.800248 -3.454309 0
M  V30 334 H 9.136659 -0.915366 -5.528799 0
M  V30 335 H -6.468958 -7.501493 -7.120358 0
M  V30 336 H -9.028634 -7.982067 -5.469830 0
M  V30 337 H -7.929524 -9.291307 -6.008820 0
M  V30 338 H -8.839381 -8.318579 -7.227978 0
M  V30 339 H -8.660596 -5.829120 -5.800222 0
M  V30 340 H -7.131518 -5.084951 -6.483250 0
M  V30 341 H -9.568118 -6.265692 -7.797275 0
M  V30 342 H -8.024082 -6.837581 -8.513005 0
M  V30 343 H -8.426603 -5.026539 -8.382311 0
M  V30 344 H -3.399472 -3.590945 2.622716 0
M  V30 345 H -6.448885 -3.029534 2.989723 0
M  V30 346 H -4.039220 -1.488216 4.237819 0
M  V30 347 H -5.073090 -2.655338 5.056841 0
M  V30 348 H -5.916325 0.166904 4.167424 0
M  V30 349 H -7.976752 -1.249391 3.927783 0
M  V30 350 H -7.939129 -0.527505 5.574498 0
M  V30 351 H -7.426133 -2.220323 5.397144 0
M  V30 352 H -5.608887 -1.260197 6.815912 0
M  V30 353 H -4.491329 -0.038330 6.032831 0
M  V30 354 H -6.146712 0.444933 6.500161 0
M  V30 355 H -6.836638 -0.207687 2.102208 0
M  V30 356 H -5.121444 0.004629 -0.345982 0
M  V30 357 H -8.036375 0.670618 -0.073336 0
M  V30 358 H -7.065024 0.727529 -1.573347 0
M  V30 359 H -7.381143 -0.886599 -0.703286 0
M  V30 360 H -5.605817 2.457383 2.315191 0
M  V30 361 H -5.727035 4.415577 -0.141677 0
M  V30 362 H -7.549914 4.954571 0.999186 0
M  V30 363 H -6.416093 6.303875 1.122414 0
M  V30 364 H -7.689800 6.078010 3.127564 0
M  V30 365 H -7.237301 4.364104 3.411717 0
M  V30 366 H -6.994987 6.290521 5.723366 0
M  V30 367 H -6.978061 6.264883 5.770558 0
M  V30 368 H -4.572344 7.007292 0.740958 0
M  V30 369 H -1.752731 6.034588 0.555072 0
M  V30 370 H -1.200049 8.406662 0.374896 0
M  V30 371 H -2.840077 8.927879 0.730477 0
M  V30 372 H -2.496292 9.086580 -1.619848 0
M  V30 373 H -3.748408 7.885365 -1.311630 0
M  V30 374 H -2.225907 6.021730 -1.836182 0
M  V30 375 H -0.862368 7.218418 -2.157581 0
M  V30 376 H -1.850074 7.703408 -4.185160 0
M  V30 377 H -5.417285 5.832439 -3.463078 0
M  V30 378 H -4.813026 8.842572 -4.302007 0
M  V30 379 H -4.441516 8.184052 -5.812241 0
M  V30 380 H 0.088682 7.336178 1.494701 0
M  V30 381 H -0.345033 7.835852 4.363988 0
M  V30 382 H 0.678338 5.571317 4.321422 0
M  V30 383 H 1.731402 6.808555 4.949033 0
M  V30 384 H 3.001413 6.855351 2.728440 0
M  V30 385 H 1.992024 5.492673 2.178830 0
M  V30 386 H 2.732171 4.179406 4.190198 0
M  V30 387 H 3.684800 5.691771 4.677391 0
M  V30 388 H 4.552334 4.888626 2.002335 0
M  V30 389 H 5.794795 2.759739 5.339631 0
M  V30 390 H 7.158053 4.058778 3.827297 0
M  V30 391 H 6.635858 3.083804 2.202480 0
M  V30 392 H 2.608443 8.397202 4.477357 0
M  V30 393 H 3.065701 11.041270 3.786170 0
M  V30 394 H 4.219337 8.567909 1.748042 0
M  V30 395 H 7.068795 9.256311 2.636496 0
M  V30 396 H 6.762072 6.977889 1.965156 0
M  V30 397 H 6.198346 7.488932 0.274032 0
M  V30 398 H 8.564796 6.748904 0.238421 0
M  V30 399 H 8.487797 8.518498 -0.114700 0
M  V30 400 H 10.325708 8.144103 1.359466 0
M  V30 401 H 9.062231 8.992287 2.249592 0
M  V30 402 H 9.071461 6.815202 3.798818 0
M  V30 403 H 10.895462 4.865778 0.696963 0
M  V30 404 H 9.669696 3.629773 3.464400 0
M  V30 405 H 9.253910 3.705316 2.300789 0
M  V30 406 H 4.614309 10.627831 0.515652 0
M  V30 407 H 6.843267 12.469334 -0.380716 0
M  V30 408 H 7.254241 11.051792 -2.110451 0
M  V30 409 H 6.429366 12.468445 -2.746541 0
M  V30 410 H 5.667048 10.640613 -3.932513 0
M  V30 411 H 4.322155 11.330786 -3.012754 0
M  V30 412 H 5.880130 8.739101 -2.472215 0
M  V30 413 H 4.677130 9.331078 -1.336747 0
M  V30 414 H 2.981312 9.180930 -3.368738 0
M  V30 415 H 3.745826 7.678145 -2.789045 0
M  V30 416 H 4.219333 9.355629 -5.166043 0
M  V30 417 H 4.154567 7.643450 -4.991578 0
M  V30 418 H 3.617526 14.227845 -1.917147 0
M  V30 419 H 2.741272 10.412202 6.115734 0
M  V30 420 H 4.420602 8.053581 5.436108 0
M  V30 421 H 4.736396 8.823593 7.022465 0
M  V30 422 H 3.095302 8.257307 6.596441 0
M  V30 423 H 4.453640 11.673398 6.908306 0
M  V30 424 H 5.737169 10.770754 6.095231 0
M  V30 425 H 4.690005 11.982597 5.182289 0
M  V30 END ATOM
M  V30 BEGIN BOND
M  V30 1 1 1 2
M  V30 2 1 2 3
M  V30 3 1 3 4
M  V30 4 1 3 5
M  V30 5 1 5 6
M  V30 6 1 6 7
M  V30 7 2 7 8
M  V30 8 1 7 9
M  V30 9 1 9 10
M  V30 10 1 10 11
M  V30 11 1 9 12
M  V30 12 1 12 13
M  V30 13 2 13 14
M  V30 14 1 13 15
M  V30 15 1 15 16
M  V30 16 1 16 17
M  V30 17 1 15 18
M  V30 18 1 18 19
M  V30 19 2 19 20
M  V30 20 1 19 21
M  V30 21 1 21 22
M  V30 22 1 22 23
M  V30 23 1 23 24
M  V30 24 2 24 25
M  V30 25 1 24 26
M  V30 26 1 21 27
M  V30 27 1 27 28
M  V30 28 2 28 29
M  V30 29 1 28 30
M  V30 30 1 30 31
M  V30 31 1 31 32
M  V30 32 2 32 33
M  V30 33 1 32 34
M  V30 34 1 34 35
M  V30 35 1 35 36
M  V30 36 1 36 37
M  V30 37 1 37 38
M  V30 38 1 38 39
M  V30 39 2 39 40
M  V30 40 1 39 41
M  V30 41 1 41 42
M  V30 42 1 42 43
M  V30 43 1 43 44
M  V30 44 1 44 45
M  V30 45 1 45 46
M  V30 46 1 41 47
M  V30 47 1 47 48
M  V30 48 2 48 49
M  V30 49 1 48 50
M  V30 50 1 50 51
M  V30 51 1 51 52
M  V30 52 1 52 53
M  V30 53 1 52 54
M  V30 54 1 50 55
M  V30 55 1 55 56
M  V30 56 2 56 57
M  V30 57 1 56 58
M  V30 58 1 58 59
M  V30 59 1 59 60
M  V30 60 1 60 61
M  V30 61 1 61 62
M  V30 62 2 61 63
M  V30 63 1 58 64
M  V30 64 1 64 65
M  V30 65 2 65 66
M  V30 66 1 65 67
M  V30 67 1 67 68
M  V30 68 1 67 69
M  V30 69 1 69 70
M  V30 70 2 70 71
M  V30 71 1 70 72
M  V30 72 1 72 73
M  V30 73 1 73 74
M  V30 74 2 74 75
M  V30 75 1 74 76
M  V30 76 1 76 77
M  V30 77 1 77 78
M  V30 78 2 78 79
M  V30 79 1 78 80
M  V30 80 1 80 81
M  V30 81 1 80 82
M  V30 82 1 82 83
M  V30 83 1 83 84
M  V30 84 1 84 85
M  V30 85 1 85 86
M  V30 86 1 86 87
M  V30 87 2 87 88
M  V30 88 1 88 89
M  V30 89 1 89 90
M  V30 90 1 90 91
M  V30 91 1 91 92
M  V30 92 1 92 93
M  V30 93 1 93 94
M  V30 94 2 94 95
M  V30 95 1 94 96
M  V30 96 1 96 97
M  V30 97 1 97 98
M  V30 98 1 98 99
M  V30 99 1 99 100
M  V30 100 1 100 101
M  V30 101 1 101 102
M  V30 102 2 102 103
M  V30 103 1 103 104
M  V30 104 1 103 105
M  V30 105 2 105 106
M  V30 106 1 106 107
M  V30 107 1 107 108
M  V30 108 1 108 109
M  V30 109 1 109 110
M  V30 110 2 110 111
M  V30 111 1 111 112
M  V30 112 2 112 113
M  V30 113 1 113 114
M  V30 114 2 114 115
M  V30 115 2 109 116
M  V30 116 1 116 117
M  V30 117 1 117 118
M  V30 118 2 118 119
M  V30 119 1 119 120
M  V30 120 2 120 121
M  V30 121 1 121 122
M  V30 122 2 107 123
M  V30 123 1 123 124
M  V30 124 2 124 125
M  V30 125 1 88 126
M  V30 126 2 126 127
M  V30 127 1 72 128
M  V30 128 1 128 129
M  V30 129 1 128 130
M  V30 130 1 30 131
M  V30 131 1 131 132
M  V30 132 1 131 133
M  V30 133 1 133 134
M  V30 134 1 5 135
M  V30 135 2 135 136
M  V30 136 1 135 137
M  V30 137 1 137 138
M  V30 138 1 138 139
M  V30 139 1 139 140
M  V30 140 1 140 141
M  V30 141 1 140 142
M  V30 142 1 138 143
M  V30 143 2 143 144
M  V30 144 1 143 145
M  V30 145 1 145 146
M  V30 146 1 146 147
M  V30 147 1 146 148
M  V30 148 2 148 149
M  V30 149 1 148 150
M  V30 150 1 150 151
M  V30 151 1 151 152
M  V30 152 1 152 153
M  V30 153 1 153 154
M  V30 154 1 154 155
M  V30 155 2 154 156
M  V30 156 1 151 157
M  V30 157 2 157 158
M  V30 158 1 157 159
M  V30 159 1 159 160
M  V30 160 1 160 161
M  V30 161 1 161 162
M  V30 162 1 162 163
M  V30 163 1 163 164
M  V30 164 1 164 165
M  V30 165 2 165 166 CFG=2
M  V30 166 1 165 167
M  V30 167 1 160 168
M  V30 168 2 168 169
M  V30 169 1 168 170
M  V30 170 1 170 171
M  V30 171 1 171 172
M  V30 172 1 172 173
M  V30 173 1 173 174
M  V30 174 1 174 175
M  V30 175 1 175 176
M  V30 176 2 176 177 CFG=2
M  V30 177 1 176 178
M  V30 178 1 171 179
M  V30 179 2 179 180
M  V30 180 1 179 181
M  V30 181 1 181 182
M  V30 182 1 182 183
M  V30 183 2 183 184
M  V30 184 1 183 185
M  V30 185 1 185 186
M  V30 186 1 186 187
M  V30 187 1 187 188
M  V30 188 1 188 189
M  V30 189 1 189 190
M  V30 190 1 190 191
M  V30 191 2 191 192 CFG=2
M  V30 192 1 191 193
M  V30 193 1 186 194
M  V30 194 2 194 195
M  V30 195 1 194 196
M  V30 196 1 196 197
M  V30 197 1 197 198
M  V30 198 1 198 199
M  V30 199 1 199 200
M  V30 200 1 200 201
M  V30 201 1 201 202
M  V30 202 1 197 203
M  V30 203 2 203 204
M  V30 204 1 203 205
M  V30 205 1 182 206
M  V30 206 1 206 207
M  V30 207 1 206 208
M  V30 208 1 38 34
M  V30 209 1 127 86
M  V30 210 1 125 101
M  V30 211 1 125 105
M  V30 212 2 122 108
M  V30 213 1 115 110
M  V30 214 1 122 117
M  V30 215 1 1 209
M  V30 216 1 1 210
M  V30 217 1 1 211
M  V30 218 1 2 212
M  V30 219 1 2 213
M  V30 220 1 3 214 CFG=3
M  V30 221 1 4 215
M  V30 222 1 4 216
M  V30 223 1 4 217
M  V30 224 1 5 218 CFG=1
M  V30 225 1 6 219
M  V30 226 1 9 220 CFG=1
M  V30 227 1 10 221
M  V30 228 1 10 222
M  V30 229 1 11 223
M  V30 230 1 12 224
M  V30 231 1 15 225 CFG=3
M  V30 232 1 16 226
M  V30 233 1 16 227
M  V30 234 1 17 228
M  V30 235 1 18 229
M  V30 236 1 21 230 CFG=3
M  V30 237 1 22 231
M  V30 238 1 22 232
M  V30 239 1 23 233
M  V30 240 1 23 234
M  V30 241 1 26 235
M  V30 242 1 27 236
M  V30 243 1 30 237 CFG=1
M  V30 244 1 31 238
M  V30 245 1 34 239 CFG=1
M  V30 246 1 35 240
M  V30 247 1 35 241
M  V30 248 1 36 242
M  V30 249 1 36 243
M  V30 250 1 37 244
M  V30 251 1 37 245
M  V30 252 1 41 246 CFG=3
M  V30 253 1 42 247
M  V30 254 1 42 248
M  V30 255 1 43 249
M  V30 256 1 43 250
M  V30 257 1 44 251
M  V30 258 1 44 252
M  V30 259 1 45 253
M  V30 260 1 45 254
M  V30 261 1 46 255
M  V30 262 1 46 256
M  V30 263 1 47 257
M  V30 264 1 50 258 CFG=3
M  V30 265 1 51 259
M  V30 266 1 51 260
M  V30 267 1 52 261
M  V30 268 1 53 262
M  V30 269 1 53 263
M  V30 270 1 53 264
M  V30 271 1 54 265
M  V30 272 1 54 266
M  V30 273 1 54 267
M  V30 274 1 55 268
M  V30 275 1 58 269 CFG=1
M  V30 276 1 59 270
M  V30 277 1 59 271
M  V30 278 1 60 272
M  V30 279 1 60 273
M  V30 280 1 62 274
M  V30 281 1 62 275
M  V30 282 1 64 276
M  V30 283 1 67 277 CFG=1
M  V30 284 1 68 278
M  V30 285 1 68 279
M  V30 286 1 68 280
M  V30 287 1 69 281
M  V30 288 1 72 282 CFG=1
M  V30 289 1 73 283
M  V30 290 1 76 284
M  V30 291 1 76 285
M  V30 292 1 77 286
M  V30 293 1 80 287
M  V30 294 1 81 288
M  V30 295 1 81 289
M  V30 296 1 82 290
M  V30 297 1 82 291
M  V30 298 1 83 292
M  V30 299 1 83 293
M  V30 300 1 84 294
M  V30 301 1 84 295
M  V30 302 1 85 296
M  V30 303 1 85 297
M  V30 304 1 87 298
M  V30 305 1 89 299
M  V30 306 1 89 300
M  V30 307 1 90 301
M  V30 308 1 90 302
M  V30 309 1 91 303
M  V30 310 1 91 304
M  V30 311 1 92 305
M  V30 312 1 92 306
M  V30 313 1 93 307
M  V30 314 1 96 308
M  V30 315 1 96 309
M  V30 316 1 97 310
M  V30 317 1 97 311
M  V30 318 1 98 312
M  V30 319 1 98 313
M  V30 320 1 99 314
M  V30 321 1 99 315
M  V30 322 1 100 316
M  V30 323 1 100 317
M  V30 324 1 104 318
M  V30 325 1 104 319
M  V30 326 1 106 320
M  V30 327 1 111 321
M  V30 328 1 112 322
M  V30 329 1 113 323
M  V30 330 1 114 324
M  V30 331 1 115 325
M  V30 332 1 118 326
M  V30 333 1 119 327
M  V30 334 1 120 328
M  V30 335 1 121 329
M  V30 336 1 128 330 CFG=3
M  V30 337 1 129 331
M  V30 338 1 129 332
M  V30 339 1 129 333
M  V30 340 1 130 334
M  V30 341 1 131 335 CFG=3
M  V30 342 1 132 336
M  V30 343 1 132 337
M  V30 344 1 132 338
M  V30 345 1 133 339
M  V30 346 1 133 340
M  V30 347 1 134 341
M  V30 348 1 134 342
M  V30 349 1 134 343
M  V30 350 1 137 344
M  V30 351 1 138 345 CFG=1
M  V30 352 1 139 346
M  V30 353 1 139 347
M  V30 354 1 140 348
M  V30 355 1 141 349
M  V30 356 1 141 350
M  V30 357 1 141 351
M  V30 358 1 142 352
M  V30 359 1 142 353
M  V30 360 1 142 354
M  V30 361 1 145 355
M  V30 362 1 146 356 CFG=3
M  V30 363 1 147 357
M  V30 364 1 147 358
M  V30 365 1 147 359
M  V30 366 1 150 360
M  V30 367 1 151 361 CFG=3
M  V30 368 1 152 362
M  V30 369 1 152 363
M  V30 370 1 153 364
M  V30 371 1 153 365
M  V30 372 1 155 366
M  V30 373 1 155 367
M  V30 374 1 159 368
M  V30 375 1 160 369 CFG=3
M  V30 376 1 161 370
M  V30 377 1 161 371
M  V30 378 1 162 372
M  V30 379 1 162 373
M  V30 380 1 163 374
M  V30 381 1 163 375
M  V30 382 1 164 376
M  V30 383 1 166 377
M  V30 384 1 167 378
M  V30 385 1 167 379
M  V30 386 1 170 380
M  V30 387 1 171 381 CFG=1
M  V30 388 1 172 382
M  V30 389 1 172 383
M  V30 390 1 173 384
M  V30 391 1 173 385
M  V30 392 1 174 386
M  V30 393 1 174 387
M  V30 394 1 175 388
M  V30 395 1 177 389
M  V30 396 1 178 390
M  V30 397 1 178 391
M  V30 398 1 181 392
M  V30 399 1 182 393 CFG=3
M  V30 400 1 185 394
M  V30 401 1 186 395 CFG=1
M  V30 402 1 187 396
M  V30 403 1 187 397
M  V30 404 1 188 398
M  V30 405 1 188 399
M  V30 406 1 189 400
M  V30 407 1 189 401
M  V30 408 1 190 402
M  V30 409 1 192 403
M  V30 410 1 193 404
M  V30 411 1 193 405
M  V30 412 1 196 406
M  V30 413 1 197 407 CFG=1
M  V30 414 1 198 408
M  V30 415 1 198 409
M  V30 416 1 199 410
M  V30 417 1 199 411
M  V30 418 1 200 412
M  V30 419 1 200 413
M  V30 420 1 201 414
M  V30 421 1 201 415
M  V30 422 1 202 416
M  V30 423 1 202 417
M  V30 424 1 205 418
M  V30 425 1 206 419
M  V30 426 1 207 420
M  V30 427 1 207 421
M  V30 428 1 207 422
M  V30 429 1 208 423
M  V30 430 1 208 424
M  V30 431 1 208 425
M  V30 END BOND
M  V30 END CTAB
M  END
>  <Dataset>  (257) 
ChEMBL_Kinases

>  <Ligand_Instance>  (257) 
nan

>  <PDB_ID>  (257) 
nan

>  <Standardized_SMILES>  (257) 
CC[C@H](C)[C@H](NC(=O)[C@H](CO)NC(=O)[C@H](CO)NC(=O)[C@H](CCC(=O)O)NC(=O)[C@@H](NC(=O)[C@@H]1CCCN1C(=O)[C@H](CCCCN)NC(=O)[C@H](CC(C)C)NC(=O)[C@H](CCC(N)=O)NC(=O)[C@H](C)NC(=O)[C@@H](NC(=O)CNC(=O)C(N)CCCCn1cc(CCCCNC(=O)CCCCCn2nc(N)c3cc(-c4c(-c5ccccc5)nn5ccccc45)nnc32)nn1)[C@@H](C)O)[C@@H](C)CC)C(=O)N[C@@H](CC(C)C)C(=O)N[C@@H](C)C(=O)N[C@@H](CCC(N)=O)C(=O)N[C@@H](CCCNC(=N)N)C(=O)N[C@@H](CCCNC(=N)N)C(=O)N[C@H](C(=O)N[C@@H](CCCNC(=N)N)C(=O)N[C@@H](CCCCN)C(=O)O)C(C)C

>  <Name>  (257) 
nan

>  <Pocket>  (257) 
nan

>  <ATP_Site>  (257) 
nan

>  <Peripheral>  (257) 
nan

>  <Num_H_Atoms_ProtBoundConf>  (257) 
nan

>  <Num_Resolved_Atoms>  (257) 
nan

>  <Num_Not_Resolved_Atoms>  (257) 
nan

$$$$
CHEMBL4079527
     RDKit          3D

  0  0  0  0  0  0  0  0  0  0999 V3000
M  V30 BEGIN CTAB
M  V30 COUNTS 65 69 0 0 0
M  V30 BEGIN ATOM
M  V30 1 O 5.956754 3.948724 4.535862 0
M  V30 2 C 5.425848 2.992719 3.925546 0
M  V30 3 N 6.092385 1.750558 3.916227 0
M  V30 4 C 7.363644 1.503794 4.572430 0
M  V30 5 C 7.773324 0.042271 4.345981 0
M  V30 6 O 8.973220 -0.245561 4.948272 0
M  V30 7 C 4.149592 3.240295 3.266903 0
M  V30 8 C 3.596341 4.501281 3.352799 0
M  V30 9 C 2.395205 4.856191 2.771922 0
M  V30 10 C 1.689690 3.893543 2.053524 0
M  V30 11 C 2.243988 2.631534 1.967712 0
M  V30 12 C 3.450328 2.287185 2.555085 0
M  V30 13 C 1.734795 1.432014 1.285581 0
M  V30 14 O 2.499672 0.427163 1.185041 0
M  V30 15 C 0.389907 1.322493 0.710317 0
M  V30 16 C 0.312376 0.211713 -0.106607 0
M  V30 17 C -0.890262 -0.070279 -0.751509 0
M  V30 18 C -1.999360 0.736836 -0.588932 0
M  V30 19 N -3.192873 0.420678 -1.258500 0
M  V30 20 C -3.293175 -0.644766 -2.161918 0
M  V30 21 C -4.109223 -1.754372 -2.092411 0
M  V30 22 C -4.093380 -2.732336 -3.082588 0
M  V30 23 N -4.977090 -3.862351 -2.937467 0
M  V30 24 C -4.342728 -4.905733 -2.220342 0
M  V30 25 O -3.168996 -4.705857 -1.836618 0
M  V30 26 C -5.029295 -6.166642 -1.938219 0
M  V30 27 C -6.313846 -6.484520 -2.326948 0
M  V30 28 C -6.888216 -7.700307 -2.017166 0
M  V30 29 C -6.178286 -8.645928 -1.297276 0
M  V30 30 C -4.890225 -8.369596 -0.888324 0
M  V30 31 C -4.358057 -7.139723 -1.221985 0
M  V30 32 C -3.235670 -2.578750 -4.157342 0
M  V30 33 F -3.270823 -3.574260 -5.091582 0
M  V30 34 C -2.408329 -1.477959 -4.251753 0
M  V30 35 C -2.436231 -0.505081 -3.249539 0
M  V30 36 F -1.559335 0.513103 -3.503060 0
M  V30 37 C -1.924265 1.854053 0.231792 0
M  V30 38 C -0.732780 2.136433 0.872760 0
M  V30 39 C -0.739218 3.350717 1.730639 0
M  V30 40 C 0.399194 4.291198 1.434492 0
M  V30 41 H 5.625606 0.973525 3.399677 0
M  V30 42 H 7.326710 1.623449 5.670199 0
M  V30 43 H 8.192679 2.134460 4.175237 0
M  V30 44 H 6.929690 -0.610072 4.715799 0
M  V30 45 H 7.817543 -0.139204 3.255209 0
M  V30 46 H 8.880083 -1.184917 5.304690 0
M  V30 47 H 4.073064 5.329831 3.895702 0
M  V30 48 H 1.930398 5.815222 2.812025 0
M  V30 49 H 3.849467 1.297497 2.467449 0
M  V30 50 H 1.212059 -0.405653 -0.211929 0
M  V30 51 H -0.853720 -0.945859 -1.357077 0
M  V30 52 H -4.067243 0.992380 -1.093914 0
M  V30 53 H -4.743907 -1.795924 -1.225917 0
M  V30 54 H -5.955315 -3.951033 -3.291601 0
M  V30 55 H -6.855874 -5.736286 -2.888424 0
M  V30 56 H -7.907987 -7.891022 -2.353712 0
M  V30 57 H -6.687792 -9.593662 -1.081167 0
M  V30 58 H -4.349088 -9.116363 -0.327842 0
M  V30 59 H -3.342552 -6.920046 -0.900451 0
M  V30 60 H -1.766117 -1.435345 -5.128152 0
M  V30 61 H -2.763631 2.520674 0.394808 0
M  V30 62 H -0.609816 2.987978 2.780540 0
M  V30 63 H -1.691213 3.901486 1.666704 0
M  V30 64 H 0.128726 5.279898 1.885001 0
M  V30 65 H 0.532567 4.480706 0.359137 0
M  V30 END ATOM
M  V30 BEGIN BOND
M  V30 1 2 1 2
M  V30 2 1 2 3
M  V30 3 1 3 4
M  V30 4 1 4 5
M  V30 5 1 5 6
M  V30 6 1 2 7
M  V30 7 2 7 8
M  V30 8 1 8 9
M  V30 9 2 9 10
M  V30 10 1 10 11
M  V30 11 2 11 12
M  V30 12 1 11 13
M  V30 13 2 13 14
M  V30 14 1 13 15
M  V30 15 2 15 16
M  V30 16 1 16 17
M  V30 17 2 17 18
M  V30 18 1 18 19
M  V30 19 1 19 20
M  V30 20 2 20 21
M  V30 21 1 21 22
M  V30 22 1 22 23
M  V30 23 1 23 24
M  V30 24 2 24 25
M  V30 25 1 24 26
M  V30 26 2 26 27
M  V30 27 1 27 28
M  V30 28 2 28 29
M  V30 29 1 29 30
M  V30 30 2 30 31
M  V30 31 2 22 32
M  V30 32 1 32 33
M  V30 33 1 32 34
M  V30 34 2 34 35
M  V30 35 1 35 36
M  V30 36 1 18 37
M  V30 37 2 37 38
M  V30 38 1 38 39
M  V30 39 1 39 40
M  V30 40 1 12 7
M  V30 41 1 38 15
M  V30 42 1 40 10
M  V30 43 1 35 20
M  V30 44 1 31 26
M  V30 45 1 3 41
M  V30 46 1 4 42
M  V30 47 1 4 43
M  V30 48 1 5 44
M  V30 49 1 5 45
M  V30 50 1 6 46
M  V30 51 1 8 47
M  V30 52 1 9 48
M  V30 53 1 12 49
M  V30 54 1 16 50
M  V30 55 1 17 51
M  V30 56 1 19 52
M  V30 57 1 21 53
M  V30 58 1 23 54
M  V30 59 1 27 55
M  V30 60 1 28 56
M  V30 61 1 29 57
M  V30 62 1 30 58
M  V30 63 1 31 59
M  V30 64 1 34 60
M  V30 65 1 37 61
M  V30 66 1 39 62
M  V30 67 1 39 63
M  V30 68 1 40 64
M  V30 69 1 40 65
M  V30 END BOND
M  V30 END CTAB
M  END
>  <Dataset>  (258) 
ChEMBL_Kinases

>  <Ligand_Instance>  (258) 
nan

>  <PDB_ID>  (258) 
nan

>  <Standardized_SMILES>  (258) 
O=C(NCCO)c1ccc2c(c1)C(=O)c1ccc(Nc3cc(NC(=O)c4ccccc4)c(F)cc3F)cc1CC2

>  <Name>  (258) 
nan

>  <Pocket>  (258) 
nan

>  <ATP_Site>  (258) 
nan

>  <Peripheral>  (258) 
nan

>  <Num_H_Atoms_ProtBoundConf>  (258) 
nan

>  <Num_Resolved_Atoms>  (258) 
nan

>  <Num_Not_Resolved_Atoms>  (258) 
nan

$$$$
CHEMBL4080127
     RDKit          3D

  0  0  0  0  0  0  0  0  0  0999 V3000
M  V30 BEGIN CTAB
M  V30 COUNTS 68 70 0 0 0
M  V30 BEGIN ATOM
M  V30 1 C 4.705040 -0.561046 0.115874 0
M  V30 2 C 3.590574 -1.556789 0.059524 0
M  V30 3 N 3.274477 -2.052514 -1.248779 0
M  V30 4 C 4.286018 -2.887155 -1.820689 0
M  V30 5 C 5.560190 -2.217203 -2.194134 0
M  V30 6 C 2.054031 -2.820096 -1.184183 0
M  V30 7 C 0.822419 -1.973185 -0.897675 0
M  V30 8 C 0.691101 -0.960947 -1.985127 0
M  V30 9 C -0.455461 -0.018407 -1.920160 0
M  V30 10 C -1.794775 -0.778951 -1.930006 0
M  V30 11 N -0.502085 0.929695 -0.879060 0
M  V30 12 C -0.657138 1.154041 0.513845 0
M  V30 13 N -0.867726 0.133488 1.349998 0
M  V30 14 C -1.031551 0.207314 2.651154 0
M  V30 15 C -1.267265 -0.693533 3.769467 0
M  V30 16 C -1.386321 -2.140435 3.507652 0
M  V30 17 C -2.477312 -2.572259 2.629167 0
M  V30 18 C -3.731370 -2.829909 3.204028 0
M  V30 19 C -4.852716 -3.247564 2.542601 0
M  V30 20 C -4.715288 -3.426024 1.184250 0
M  V30 21 C -5.878814 -3.880583 0.372637 0
M  V30 22 F -6.022559 -3.139592 -0.782345 0
M  V30 23 F -7.030336 -3.884396 1.150222 0
M  V30 24 F -5.656096 -5.192417 -0.007643 0
M  V30 25 C -3.520445 -3.194161 0.553169 0
M  V30 26 C -2.421834 -2.773067 1.275980 0
M  V30 27 N -0.976623 1.467440 3.172680 0
M  V30 28 C -0.772479 2.571367 2.443389 0
M  V30 29 C -0.716013 3.849205 2.958849 0
M  V30 30 C -0.507513 4.985964 2.213231 0
M  V30 31 C -0.343323 4.805639 0.833465 0
M  V30 32 N -0.129377 5.996839 0.085568 0
M  V30 33 C -0.401873 3.522099 0.329849 0
M  V30 34 C -0.611639 2.402614 1.096085 0
M  V30 35 H 4.591786 0.295531 -0.582457 0
M  V30 36 H 5.722992 -0.997603 0.114978 0
M  V30 37 H 4.624650 -0.083626 1.141081 0
M  V30 38 H 2.685351 -1.169976 0.572286 0
M  V30 39 H 3.946859 -2.444254 0.668055 0
M  V30 40 H 3.893589 -3.441045 -2.726053 0
M  V30 41 H 4.498989 -3.729794 -1.100173 0
M  V30 42 H 6.372285 -2.592607 -1.525087 0
M  V30 43 H 5.521558 -1.115467 -2.271652 0
M  V30 44 H 5.858758 -2.550700 -3.233425 0
M  V30 45 H 2.111707 -3.613712 -0.388870 0
M  V30 46 H 1.850285 -3.393754 -2.117953 0
M  V30 47 H 0.781149 -1.623021 0.123061 0
M  V30 48 H -0.030838 -2.705515 -1.023413 0
M  V30 49 H 0.540514 -1.561704 -2.937271 0
M  V30 50 H 1.663482 -0.438551 -2.186213 0
M  V30 51 H -0.504065 0.529387 -2.928159 0
M  V30 52 H -2.547335 -0.062638 -1.547838 0
M  V30 53 H -1.735078 -1.642367 -1.272079 0
M  V30 54 H -2.119278 -1.025973 -2.961967 0
M  V30 55 H -0.349077 1.835491 -1.367011 0
M  V30 56 H -0.435545 -0.571219 4.513672 0
M  V30 57 H -2.187253 -0.387926 4.362923 0
M  V30 58 H -1.565996 -2.626263 4.514498 0
M  V30 59 H -0.401836 -2.611197 3.197928 0
M  V30 60 H -3.853536 -2.691086 4.287032 0
M  V30 61 H -5.778916 -3.422973 3.059593 0
M  V30 62 H -3.338220 -3.311571 -0.503711 0
M  V30 63 H -1.409187 -2.555986 0.906231 0
M  V30 64 H -0.854633 3.881067 4.041514 0
M  V30 65 H -0.482184 5.939636 2.720067 0
M  V30 66 H -0.765276 6.760209 -0.269198 0
M  V30 67 H 0.882219 6.175983 -0.185481 0
M  V30 68 H -0.261058 3.546887 -0.723021 0
M  V30 END ATOM
M  V30 BEGIN BOND
M  V30 1 1 1 2
M  V30 2 1 2 3
M  V30 3 1 3 4
M  V30 4 1 4 5
M  V30 5 1 3 6
M  V30 6 1 6 7
M  V30 7 1 7 8
M  V30 8 1 8 9
M  V30 9 1 9 10
M  V30 10 1 9 11
M  V30 11 1 11 12
M  V30 12 2 12 13
M  V30 13 1 13 14
M  V30 14 1 14 15
M  V30 15 1 15 16
M  V30 16 1 16 17
M  V30 17 2 17 18
M  V30 18 1 18 19
M  V30 19 2 19 20
M  V30 20 1 20 21
M  V30 21 1 21 22
M  V30 22 1 21 23
M  V30 23 1 21 24
M  V30 24 1 20 25
M  V30 25 2 25 26
M  V30 26 2 14 27
M  V30 27 1 27 28
M  V30 28 2 28 29
M  V30 29 1 29 30
M  V30 30 2 30 31
M  V30 31 1 31 32
M  V30 32 1 31 33
M  V30 33 2 33 34
M  V30 34 1 34 12
M  V30 35 1 26 17
M  V30 36 1 34 28
M  V30 37 1 1 35
M  V30 38 1 1 36
M  V30 39 1 1 37
M  V30 40 1 2 38
M  V30 41 1 2 39
M  V30 42 1 4 40
M  V30 43 1 4 41
M  V30 44 1 5 42
M  V30 45 1 5 43
M  V30 46 1 5 44
M  V30 47 1 6 45
M  V30 48 1 6 46
M  V30 49 1 7 47
M  V30 50 1 7 48
M  V30 51 1 8 49
M  V30 52 1 8 50
M  V30 53 1 9 51
M  V30 54 1 10 52
M  V30 55 1 10 53
M  V30 56 1 10 54
M  V30 57 1 11 55
M  V30 58 1 15 56
M  V30 59 1 15 57
M  V30 60 1 16 58
M  V30 61 1 16 59
M  V30 62 1 18 60
M  V30 63 1 19 61
M  V30 64 1 25 62
M  V30 65 1 26 63
M  V30 66 1 29 64
M  V30 67 1 30 65
M  V30 68 1 32 66
M  V30 69 1 32 67
M  V30 70 1 33 68
M  V30 END BOND
M  V30 END CTAB
M  END
>  <Dataset>  (259) 
ChEMBL_Kinases

>  <Ligand_Instance>  (259) 
nan

>  <PDB_ID>  (259) 
nan

>  <Standardized_SMILES>  (259) 
CCN(CC)CCCC(C)Nc1nc(CCc2ccc(C(F)(F)F)cc2)nc2ccc(N)cc12

>  <Name>  (259) 
nan

>  <Pocket>  (259) 
nan

>  <ATP_Site>  (259) 
nan

>  <Peripheral>  (259) 
nan

>  <Num_H_Atoms_ProtBoundConf>  (259) 
nan

>  <Num_Resolved_Atoms>  (259) 
nan

>  <Num_Not_Resolved_Atoms>  (259) 
nan

$$$$
CHEMBL4854529
     RDKit          3D

  0  0  0  0  0  0  0  0  0  0999 V3000
M  V30 BEGIN CTAB
M  V30 COUNTS 31 33 0 0 0
M  V30 BEGIN ATOM
M  V30 1 O 0.098572 -2.235621 2.540417 0
M  V30 2 C 1.401959 -2.515981 2.195095 0
M  V30 3 C 2.376364 -2.759863 3.150755 0
M  V30 4 C 3.665996 -3.036495 2.770165 0
M  V30 5 F 4.539404 -3.262457 3.783716 0
M  V30 6 C 4.024206 -3.078792 1.442652 0
M  V30 7 C 3.069113 -2.839015 0.470437 0
M  V30 8 C 1.766737 -2.559596 0.864546 0
M  V30 9 C 0.700586 -2.275282 -0.171996 0
M  V30 10 N 0.376747 -0.921139 -0.335855 0
M  V30 11 C 0.053884 0.431609 -0.499710 0
M  V30 12 N 0.585521 1.598167 -0.843495 0
M  V30 13 N -0.310149 2.557718 -0.784961 0
M  V30 14 C -1.482591 2.038162 -0.391864 0
M  V30 15 C -2.639781 2.772428 -0.228442 0
M  V30 16 C -3.737805 2.041933 0.180225 0
M  V30 17 F -4.939808 2.631136 0.377872 0
M  V30 18 C -3.661089 0.687104 0.400307 0
M  V30 19 C -2.451210 0.009122 0.213971 0
M  V30 20 C -1.297200 0.688766 -0.200159 0
M  V30 21 H -0.157906 -1.404289 3.046461 0
M  V30 22 H 2.089632 -2.725565 4.213470 0
M  V30 23 H 5.039980 -3.296302 1.189543 0
M  V30 24 H 3.315839 -2.863485 -0.585876 0
M  V30 25 H -0.210446 -2.824144 0.233057 0
M  V30 26 H 0.908103 -2.852241 -1.115039 0
M  V30 27 H 1.407231 -0.805975 -0.633721 0
M  V30 28 H 0.123425 3.460076 -1.056172 0
M  V30 29 H -2.687230 3.835202 -0.405050 0
M  V30 30 H -4.465986 0.035346 0.719102 0
M  V30 31 H -2.347459 -1.054842 0.376012 0
M  V30 END ATOM
M  V30 BEGIN BOND
M  V30 1 1 1 2
M  V30 2 2 2 3
M  V30 3 1 3 4
M  V30 4 1 4 5
M  V30 5 2 4 6
M  V30 6 1 6 7
M  V30 7 2 7 8
M  V30 8 1 8 9
M  V30 9 1 9 10
M  V30 10 1 10 11
M  V30 11 2 11 12
M  V30 12 1 12 13
M  V30 13 1 13 14
M  V30 14 2 14 15
M  V30 15 1 15 16
M  V30 16 1 16 17
M  V30 17 2 16 18
M  V30 18 1 18 19
M  V30 19 2 19 20
M  V30 20 1 8 2
M  V30 21 1 20 11
M  V30 22 1 20 14
M  V30 23 1 1 21
M  V30 24 1 3 22
M  V30 25 1 6 23
M  V30 26 1 7 24
M  V30 27 1 9 25
M  V30 28 1 9 26
M  V30 29 1 10 27
M  V30 30 1 13 28
M  V30 31 1 15 29
M  V30 32 1 18 30
M  V30 33 1 19 31
M  V30 END BOND
M  V30 END CTAB
M  END
>  <Dataset>  (260) 
ChEMBL_Kinases

>  <Ligand_Instance>  (260) 
nan

>  <PDB_ID>  (260) 
nan

>  <Standardized_SMILES>  (260) 
Oc1cc(F)ccc1CNc1n[nH]c2cc(F)ccc12

>  <Name>  (260) 
nan

>  <Pocket>  (260) 
nan

>  <ATP_Site>  (260) 
nan

>  <Peripheral>  (260) 
nan

>  <Num_H_Atoms_ProtBoundConf>  (260) 
nan

>  <Num_Resolved_Atoms>  (260) 
nan

>  <Num_Not_Resolved_Atoms>  (260) 
nan

$$$$
CHEMBL4080101
     RDKit          3D

  0  0  0  0  0  0  0  0  0  0999 V3000
M  V30 BEGIN CTAB
M  V30 COUNTS 66 67 0 0 0
M  V30 BEGIN ATOM
M  V30 1 C 4.890131 -3.053640 -2.164559 0
M  V30 2 C 4.507574 -2.644005 -0.764499 0
M  V30 3 C 4.042970 -1.198860 -0.692690 0
M  V30 4 C 5.116409 -0.260949 -1.146621 0
M  V30 5 C 4.634700 1.158506 -1.052708 0
M  V30 6 C 3.385769 1.375823 -1.942057 0
M  V30 7 C 2.969534 2.784934 -1.820489 0
M  V30 8 C 1.872969 3.342118 -2.603732 0
M  V30 9 C 0.505669 2.808438 -2.571115 0
M  V30 10 C 0.371172 1.449282 -3.132105 0
M  V30 11 C -1.063963 0.926390 -3.068699 0
M  V30 12 C -1.548260 0.866760 -1.670801 0
M  V30 13 O -1.074531 1.134519 -0.531896 0
M  V30 14 N -2.880444 0.396999 -1.485449 0
M  V30 15 N -3.336379 0.341389 -0.159096 0
M  V30 16 C -3.033269 -0.922098 0.372773 0
M  V30 17 O -2.436649 -1.673086 -0.467887 0
M  V30 18 C -3.290513 -1.477678 1.691335 0
M  V30 19 C -2.860270 -2.782060 1.904293 0
M  V30 20 O -2.209280 -3.572167 0.943851 0
M  V30 21 C -3.081476 -3.363081 3.151261 0
M  V30 22 C -2.653797 -4.666953 3.372381 0
M  V30 23 C -2.833824 -5.313593 4.577212 0
M  V30 24 Cl -2.294874 -6.957060 4.856317 0
M  V30 25 C -3.467154 -4.649730 5.625323 0
M  V30 26 C -3.875386 -3.366475 5.372274 0
M  V30 27 C -3.708937 -2.703842 4.187827 0
M  V30 28 N -4.112043 -1.443461 3.946584 0
M  V30 29 C -4.776236 -0.717747 5.009781 0
M  V30 30 C -3.723369 0.007246 5.812390 0
M  V30 31 C -3.899058 -0.888877 2.751303 0
M  V30 32 O -4.301313 0.280309 2.606671 0
M  V30 33 H 5.121675 -4.135568 -2.120566 0
M  V30 34 H 4.065074 -2.948135 -2.892093 0
M  V30 35 H 5.810058 -2.554811 -2.522129 0
M  V30 36 H 5.339080 -2.867803 -0.096019 0
M  V30 37 H 3.619755 -3.273613 -0.495676 0
M  V30 38 H 3.196955 -1.135708 -1.410865 0
M  V30 39 H 3.658085 -1.012353 0.311955 0
M  V30 40 H 5.321903 -0.475715 -2.219534 0
M  V30 41 H 5.995615 -0.440082 -0.508105 0
M  V30 42 H 5.454275 1.822881 -1.379937 0
M  V30 43 H 4.405134 1.393825 -0.004371 0
M  V30 44 H 3.577022 0.957596 -2.908123 0
M  V30 45 H 2.615075 0.778886 -1.339241 0
M  V30 46 H 2.828334 3.035965 -0.706923 0
M  V30 47 H 3.907850 3.409915 -2.035938 0
M  V30 48 H 1.844852 4.464729 -2.336862 0
M  V30 49 H 2.229005 3.436149 -3.698480 0
M  V30 50 H -0.140181 3.476976 -3.235283 0
M  V30 51 H -0.000128 2.929329 -1.576182 0
M  V30 52 H 0.529402 1.576177 -4.262904 0
M  V30 53 H 1.087439 0.680908 -2.864610 0
M  V30 54 H -1.032497 -0.099923 -3.489826 0
M  V30 55 H -1.749113 1.512103 -3.716152 0
M  V30 56 H -3.560738 0.086227 -2.241130 0
M  V30 57 H -3.824929 0.998901 0.482621 0
M  V30 58 H -1.226643 -3.658578 0.841048 0
M  V30 59 H -2.152944 -5.237100 2.592436 0
M  V30 60 H -3.635352 -5.110951 6.595997 0
M  V30 61 H -4.365041 -2.853721 6.185104 0
M  V30 62 H -5.503288 -1.282159 5.582626 0
M  V30 63 H -5.369451 0.100486 4.502504 0
M  V30 64 H -4.089436 1.004448 6.133500 0
M  V30 65 H -3.387589 -0.567979 6.693564 0
M  V30 66 H -2.848345 0.197044 5.149656 0
M  V30 END ATOM
M  V30 BEGIN BOND
M  V30 1 1 1 2
M  V30 2 1 2 3
M  V30 3 1 3 4
M  V30 4 1 4 5
M  V30 5 1 5 6
M  V30 6 1 6 7
M  V30 7 1 7 8
M  V30 8 1 8 9
M  V30 9 1 9 10
M  V30 10 1 10 11
M  V30 11 1 11 12
M  V30 12 2 12 13
M  V30 13 1 12 14
M  V30 14 1 14 15
M  V30 15 1 15 16
M  V30 16 2 16 17
M  V30 17 1 16 18
M  V30 18 2 18 19
M  V30 19 1 19 20
M  V30 20 1 19 21
M  V30 21 2 21 22
M  V30 22 1 22 23
M  V30 23 1 23 24
M  V30 24 2 23 25
M  V30 25 1 25 26
M  V30 26 2 26 27
M  V30 27 1 27 28
M  V30 28 1 28 29
M  V30 29 1 29 30
M  V30 30 1 28 31
M  V30 31 2 31 32
M  V30 32 1 31 18
M  V30 33 1 27 21
M  V30 34 1 1 33
M  V30 35 1 1 34
M  V30 36 1 1 35
M  V30 37 1 2 36
M  V30 38 1 2 37
M  V30 39 1 3 38
M  V30 40 1 3 39
M  V30 41 1 4 40
M  V30 42 1 4 41
M  V30 43 1 5 42
M  V30 44 1 5 43
M  V30 45 1 6 44
M  V30 46 1 6 45
M  V30 47 1 7 46
M  V30 48 1 7 47
M  V30 49 1 8 48
M  V30 50 1 8 49
M  V30 51 1 9 50
M  V30 52 1 9 51
M  V30 53 1 10 52
M  V30 54 1 10 53
M  V30 55 1 11 54
M  V30 56 1 11 55
M  V30 57 1 14 56
M  V30 58 1 15 57
M  V30 59 1 20 58
M  V30 60 1 22 59
M  V30 61 1 25 60
M  V30 62 1 26 61
M  V30 63 1 29 62
M  V30 64 1 29 63
M  V30 65 1 30 64
M  V30 66 1 30 65
M  V30 67 1 30 66
M  V30 END BOND
M  V30 END CTAB
M  END
>  <Dataset>  (261) 
ChEMBL_Kinases

>  <Ligand_Instance>  (261) 
nan

>  <PDB_ID>  (261) 
nan

>  <Standardized_SMILES>  (261) 
CCCCCCCCCCCC(=O)NNC(=O)c1c(O)c2cc(Cl)ccc2n(CC)c1=O

>  <Name>  (261) 
nan

>  <Pocket>  (261) 
nan

>  <ATP_Site>  (261) 
nan

>  <Peripheral>  (261) 
nan

>  <Num_H_Atoms_ProtBoundConf>  (261) 
nan

>  <Num_Resolved_Atoms>  (261) 
nan

>  <Num_Not_Resolved_Atoms>  (261) 
nan

$$$$
CHEMBL4079977
     RDKit          3D

  0  0  0  0  0  0  0  0  0  0999 V3000
M  V30 BEGIN CTAB
M  V30 COUNTS 60 65 0 0 0
M  V30 BEGIN ATOM
M  V30 1 O -1.379687 -3.270122 3.413787 0
M  V30 2 C -0.807160 -2.180233 3.154957 0
M  V30 3 C -0.214661 -1.296380 4.150566 0
M  V30 4 C 0.391206 -0.155948 3.943835 0
M  V30 5 C 0.966681 0.689540 4.977771 0
M  V30 6 C 0.942328 0.367176 6.314258 0
M  V30 7 N 1.474229 1.131688 7.296866 0
M  V30 8 C 2.075063 2.292917 6.975743 0
M  V30 9 C 2.109169 2.634834 5.632512 0
M  V30 10 C 1.568458 1.866015 4.595603 0
M  V30 11 C 1.684965 2.380080 3.257828 0
M  V30 12 C 0.855909 2.567680 2.174052 0
M  V30 13 N 1.546310 3.099181 1.158171 0
M  V30 14 N 2.813320 3.271466 1.534814 0
M  V30 15 C 3.758018 3.836669 0.597407 0
M  V30 16 C 5.057193 4.343786 1.067910 0
M  V30 17 C 4.004939 5.334146 0.700829 0
M  V30 18 C 2.925178 2.844323 2.802034 0
M  V30 19 N -0.795097 -1.889873 1.764325 0
M  V30 20 C -1.354197 -2.707723 0.742428 0
M  V30 21 C -0.676992 -3.704750 0.071676 0
M  V30 22 C -1.299409 -4.447702 -0.905487 0
M  V30 23 C -2.635744 -4.235156 -1.267344 0
M  V30 24 C -3.176120 -5.094270 -2.315259 0
M  V30 25 N -3.018106 -4.655127 -3.655295 0
M  V30 26 C -3.606017 -3.417152 -4.016077 0
M  V30 27 C -2.618549 -2.472947 -4.664450 0
M  V30 28 C -2.076747 -3.149010 -5.904204 0
M  V30 29 C -1.142120 -3.704392 -4.874098 0
M  V30 30 C -1.766117 -4.941278 -4.280331 0
M  V30 31 O -1.382884 -2.605720 -4.038654 0
M  V30 32 C -3.268664 -3.228959 -0.568859 0
M  V30 33 C -2.674748 -2.466353 0.415043 0
M  V30 34 H -0.307032 -1.664482 5.185846 0
M  V30 35 H 0.427088 0.101984 2.909649 0
M  V30 36 H 0.488056 -0.532884 6.662322 0
M  V30 37 H 2.510219 2.931102 7.715947 0
M  V30 38 H 2.595474 3.569162 5.399006 0
M  V30 39 H -0.184305 2.295808 2.239066 0
M  V30 40 H 3.712714 3.430165 -0.443597 0
M  V30 41 H 5.922176 4.235614 0.362127 0
M  V30 42 H 5.330324 4.219582 2.151244 0
M  V30 43 H 4.120533 5.884358 -0.248762 0
M  V30 44 H 3.472722 5.858238 1.535899 0
M  V30 45 H 3.889080 2.900960 3.296550 0
M  V30 46 H -0.352538 -1.016587 1.402321 0
M  V30 47 H 0.342149 -3.829209 0.383670 0
M  V30 48 H -0.645016 -5.183696 -1.335369 0
M  V30 49 H -4.277100 -5.299924 -2.171802 0
M  V30 50 H -2.700523 -6.103180 -2.238758 0
M  V30 51 H -4.166101 -2.933477 -3.208906 0
M  V30 52 H -4.367947 -3.634570 -4.822390 0
M  V30 53 H -3.007858 -1.458698 -4.777546 0
M  V30 54 H -1.669956 -2.509263 -6.688583 0
M  V30 55 H -2.744250 -3.948886 -6.316442 0
M  V30 56 H -0.101159 -3.854238 -5.186558 0
M  V30 57 H -1.985532 -5.609144 -5.160629 0
M  V30 58 H -1.028919 -5.475130 -3.685669 0
M  V30 59 H -4.299816 -3.055127 -0.834284 0
M  V30 60 H -3.295756 -1.699846 0.888164 0
M  V30 END ATOM
M  V30 BEGIN BOND
M  V30 1 2 1 2
M  V30 2 1 2 3
M  V30 3 2 3 4
M  V30 4 1 4 5
M  V30 5 2 5 6
M  V30 6 1 6 7
M  V30 7 2 7 8
M  V30 8 1 8 9
M  V30 9 2 9 10
M  V30 10 1 10 11
M  V30 11 1 11 12
M  V30 12 2 12 13
M  V30 13 1 13 14
M  V30 14 1 14 15
M  V30 15 1 15 16
M  V30 16 1 16 17
M  V30 17 1 14 18
M  V30 18 1 2 19
M  V30 19 1 19 20
M  V30 20 2 20 21
M  V30 21 1 21 22
M  V30 22 2 22 23
M  V30 23 1 23 24
M  V30 24 1 24 25
M  V30 25 1 25 26
M  V30 26 1 26 27
M  V30 27 1 27 28
M  V30 28 1 28 29
M  V30 29 1 29 30
M  V30 30 1 29 31
M  V30 31 1 23 32
M  V30 32 2 32 33
M  V30 33 1 10 5
M  V30 34 2 18 11
M  V30 35 1 33 20
M  V30 36 1 17 15
M  V30 37 1 30 25
M  V30 38 1 31 27
M  V30 39 1 3 34
M  V30 40 1 4 35
M  V30 41 1 6 36
M  V30 42 1 8 37
M  V30 43 1 9 38
M  V30 44 1 12 39
M  V30 45 1 15 40
M  V30 46 1 16 41
M  V30 47 1 16 42
M  V30 48 1 17 43
M  V30 49 1 17 44
M  V30 50 1 18 45
M  V30 51 1 19 46
M  V30 52 1 21 47
M  V30 53 1 22 48
M  V30 54 1 24 49
M  V30 55 1 24 50
M  V30 56 1 26 51
M  V30 57 1 26 52
M  V30 58 1 27 53
M  V30 59 1 28 54
M  V30 60 1 28 55
M  V30 61 1 29 56
M  V30 62 1 30 57
M  V30 63 1 30 58
M  V30 64 1 32 59
M  V30 65 1 33 60
M  V30 END BOND
M  V30 END CTAB
M  END
>  <Dataset>  (262) 
ChEMBL_Kinases

>  <Ligand_Instance>  (262) 
nan

>  <PDB_ID>  (262) 
nan

>  <Standardized_SMILES>  (262) 
O=C(/C=C/c1cnccc1-c1cnn(C2CC2)c1)Nc1ccc(CN2CC3CC(C2)O3)cc1

>  <Name>  (262) 
nan

>  <Pocket>  (262) 
nan

>  <ATP_Site>  (262) 
nan

>  <Peripheral>  (262) 
nan

>  <Num_H_Atoms_ProtBoundConf>  (262) 
nan

>  <Num_Resolved_Atoms>  (262) 
nan

>  <Num_Not_Resolved_Atoms>  (262) 
nan

$$$$
CHEMBL4079975
     RDKit          3D

  0  0  0  0  0  0  0  0  0  0999 V3000
M  V30 BEGIN CTAB
M  V30 COUNTS 40 42 0 0 0
M  V30 BEGIN ATOM
M  V30 1 C 1.076823 -3.323935 1.598179 0
M  V30 2 N 0.750686 -3.832517 0.303468 0
M  V30 3 C -0.461856 -3.267618 -0.176781 0
M  V30 4 S 2.063268 -3.779959 -0.790277 0
M  V30 5 O 1.834204 -4.914690 -1.780222 0
M  V30 6 O 3.339167 -4.040573 -0.021932 0
M  V30 7 N 2.172269 -2.326275 -1.699152 0
M  V30 8 C 2.358928 -0.960013 -1.356689 0
M  V30 9 C 3.351108 -0.238083 -2.037234 0
M  V30 10 C 3.659991 1.080969 -1.803747 0
M  V30 11 C 2.940833 1.726196 -0.834704 0
M  V30 12 C 1.972306 1.026113 -0.168818 0
M  V30 13 C 1.109513 1.679637 0.942650 0
M  V30 14 N 0.278527 1.428031 1.650377 0
M  V30 15 C -0.318800 2.188563 2.544097 0
M  V30 16 C -1.412087 1.863150 3.463468 0
M  V30 17 C -2.387669 1.085746 3.018642 0
M  V30 18 S -2.475011 0.388417 1.345701 0
M  V30 19 C -4.283980 0.256774 1.355778 0
M  V30 20 S -5.229084 0.269357 0.055030 0
M  V30 21 N -4.588169 0.150652 2.744134 0
M  V30 22 C -3.609045 0.579938 3.654198 0
M  V30 23 O -3.741115 0.545042 4.906833 0
M  V30 24 C 0.152182 3.493667 2.619019 0
M  V30 25 S 1.515215 3.483181 1.285388 0
M  V30 26 C 1.664278 -0.281517 -0.398451 0
M  V30 27 H 1.799493 -2.493795 1.505649 0
M  V30 28 H 1.579226 -4.155161 2.156077 0
M  V30 29 H 0.155348 -3.019938 2.157774 0
M  V30 30 H -0.243542 -2.579720 -1.008419 0
M  V30 31 H -1.178803 -4.016871 -0.587388 0
M  V30 32 H -0.934798 -2.671349 0.630991 0
M  V30 33 H 2.083897 -2.384089 -2.749919 0
M  V30 34 H 3.929436 -0.748090 -2.813413 0
M  V30 35 H 4.414597 1.632452 -2.321398 0
M  V30 36 H 3.135265 2.751763 -0.608828 0
M  V30 37 H -1.493356 2.202740 4.485994 0
M  V30 38 H -5.535212 -0.244342 3.030163 0
M  V30 39 H -0.142680 4.369318 3.263670 0
M  V30 40 H 0.902124 -0.771615 0.145919 0
M  V30 END ATOM
M  V30 BEGIN BOND
M  V30 1 1 1 2
M  V30 2 1 2 3
M  V30 3 1 2 4
M  V30 4 2 4 5
M  V30 5 2 4 6
M  V30 6 1 4 7
M  V30 7 1 7 8
M  V30 8 2 8 9
M  V30 9 1 9 10
M  V30 10 2 10 11
M  V30 11 1 11 12
M  V30 12 1 12 13
M  V30 13 2 13 14
M  V30 14 1 14 15
M  V30 15 1 15 16
M  V30 16 2 16 17
M  V30 17 1 17 18
M  V30 18 1 18 19
M  V30 19 2 19 20
M  V30 20 1 19 21
M  V30 21 1 21 22
M  V30 22 2 22 23
M  V30 23 2 15 24
M  V30 24 1 24 25
M  V30 25 2 12 26
M  V30 26 1 26 8
M  V30 27 1 25 13
M  V30 28 1 22 17
M  V30 29 1 1 27
M  V30 30 1 1 28
M  V30 31 1 1 29
M  V30 32 1 3 30
M  V30 33 1 3 31
M  V30 34 1 3 32
M  V30 35 1 7 33
M  V30 36 1 9 34
M  V30 37 1 10 35
M  V30 38 1 11 36
M  V30 39 1 16 37
M  V30 40 1 21 38
M  V30 41 1 24 39
M  V30 42 1 26 40
M  V30 END BOND
M  V30 END CTAB
M  END
>  <Dataset>  (263) 
ChEMBL_Kinases

>  <Ligand_Instance>  (263) 
nan

>  <PDB_ID>  (263) 
nan

>  <Standardized_SMILES>  (263) 
CN(C)S(=O)(=O)Nc1cccc(-c2nc(/C=C3\SC(=S)NC3=O)cs2)c1

>  <Name>  (263) 
nan

>  <Pocket>  (263) 
nan

>  <ATP_Site>  (263) 
nan

>  <Peripheral>  (263) 
nan

>  <Num_H_Atoms_ProtBoundConf>  (263) 
nan

>  <Num_Resolved_Atoms>  (263) 
nan

>  <Num_Not_Resolved_Atoms>  (263) 
nan

$$$$
CHEMBL4854572
     RDKit          3D

  0  0  0  0  0  0  0  0  0  0999 V3000
M  V30 BEGIN CTAB
M  V30 COUNTS 59 63 0 0 0
M  V30 BEGIN ATOM
M  V30 1 O -1.912646 -1.778966 4.297985 0
M  V30 2 C -1.816336 -1.610026 3.035912 0
M  V30 3 N -0.487947 -1.236529 2.744430 0
M  V30 4 C 0.259240 -1.194177 3.959079 0
M  V30 5 C 1.687194 -0.807718 3.818960 0
M  V30 6 C 1.915775 0.572311 3.230743 0
M  V30 7 C 3.421722 0.697977 2.928792 0
M  V30 8 N 3.799277 -0.106769 1.833866 0
M  V30 9 C 4.002198 0.472161 0.562237 0
M  V30 10 C 2.846319 1.094306 -0.099446 0
M  V30 11 C 2.159191 0.324489 -1.051338 0
M  V30 12 C 1.042950 0.775756 -1.734702 0
M  V30 13 C 0.538572 2.036788 -1.506679 0
M  V30 14 C 1.181304 2.823979 -0.582386 0
M  V30 15 C 2.284587 2.334686 0.069870 0
M  V30 16 F 2.861093 3.183469 0.932972 0
M  V30 17 C 2.912604 -1.260378 1.734108 0
M  V30 18 C 2.567915 -1.761598 3.093338 0
M  V30 19 C -2.999202 -1.819872 2.235531 0
M  V30 20 N -4.153120 -1.964663 2.917984 0
M  V30 21 N -5.148154 -2.157746 2.033820 0
M  V30 22 C -4.706787 -2.149733 0.764187 0
M  V30 23 C -5.212574 -2.293040 -0.487759 0
M  V30 24 C -4.358314 -2.223239 -1.581262 0
M  V30 25 C -2.989469 -2.010044 -1.437421 0
M  V30 26 C -2.074974 -1.940057 -2.571367 0
M  V30 27 C -2.293965 -1.475723 -3.850440 0
M  V30 28 C -1.274803 -1.515680 -4.779939 0
M  V30 29 C -0.011505 -2.013980 -4.475669 0
M  V30 30 N 0.225012 -2.477149 -3.218354 0
M  V30 31 C -0.788293 -2.431819 -2.311944 0
M  V30 32 C -2.526935 -1.870595 -0.156516 0
M  V30 33 C -3.374438 -1.939345 0.921735 0
M  V30 34 H -0.303909 -1.060465 1.741130 0
M  V30 35 H -0.203682 -0.459359 4.662811 0
M  V30 36 H 0.244207 -2.174443 4.487420 0
M  V30 37 H 2.079709 -0.719847 4.880722 0
M  V30 38 H 1.643899 1.359972 3.926267 0
M  V30 39 H 1.394714 0.673974 2.283947 0
M  V30 40 H 3.690037 1.752752 2.889091 0
M  V30 41 H 3.898338 0.252021 3.871796 0
M  V30 42 H 4.386485 -0.338931 -0.119369 0
M  V30 43 H 4.859972 1.224326 0.626471 0
M  V30 44 H 2.439610 -0.680378 -1.332849 0
M  V30 45 H 0.509877 0.189090 -2.467307 0
M  V30 46 H -0.329535 2.400922 -2.031024 0
M  V30 47 H 0.795993 3.803618 -0.400469 0
M  V30 48 H 3.406120 -2.023335 1.094315 0
M  V30 49 H 2.001151 -0.939615 1.200671 0
M  V30 50 H 3.549157 -1.848680 3.648230 0
M  V30 51 H 2.184064 -2.804357 3.083184 0
M  V30 52 H -6.149736 -2.296970 2.314881 0
M  V30 53 H -6.272209 -2.457646 -0.579497 0
M  V30 54 H -4.764399 -2.338230 -2.590548 0
M  V30 55 H -3.293049 -1.107840 -4.004981 0
M  V30 56 H -1.515842 -1.139995 -5.750286 0
M  V30 57 H 0.715201 -2.000918 -5.273551 0
M  V30 58 H -0.402692 -2.846179 -1.367581 0
M  V30 59 H -1.470104 -1.711499 -0.054255 0
M  V30 END ATOM
M  V30 BEGIN BOND
M  V30 1 2 1 2
M  V30 2 1 2 3
M  V30 3 1 3 4
M  V30 4 1 4 5
M  V30 5 1 5 6
M  V30 6 1 6 7
M  V30 7 1 7 8
M  V30 8 1 8 9
M  V30 9 1 9 10
M  V30 10 2 10 11
M  V30 11 1 11 12
M  V30 12 2 12 13
M  V30 13 1 13 14
M  V30 14 2 14 15
M  V30 15 1 15 16
M  V30 16 1 8 17
M  V30 17 1 17 18
M  V30 18 1 2 19
M  V30 19 2 19 20
M  V30 20 1 20 21
M  V30 21 1 21 22
M  V30 22 2 22 23
M  V30 23 1 23 24
M  V30 24 2 24 25
M  V30 25 1 25 26
M  V30 26 2 26 27
M  V30 27 1 27 28
M  V30 28 2 28 29
M  V30 29 1 29 30
M  V30 30 2 30 31
M  V30 31 1 25 32
M  V30 32 2 32 33
M  V30 33 1 18 5
M  V30 34 1 33 19
M  V30 35 1 15 10
M  V30 36 1 33 22
M  V30 37 1 31 26
M  V30 38 1 3 34
M  V30 39 1 4 35
M  V30 40 1 4 36
M  V30 41 1 5 37
M  V30 42 1 6 38
M  V30 43 1 6 39
M  V30 44 1 7 40
M  V30 45 1 7 41
M  V30 46 1 9 42
M  V30 47 1 9 43
M  V30 48 1 11 44
M  V30 49 1 12 45
M  V30 50 1 13 46
M  V30 51 1 14 47
M  V30 52 1 17 48
M  V30 53 1 17 49
M  V30 54 1 18 50
M  V30 55 1 18 51
M  V30 56 1 21 52
M  V30 57 1 23 53
M  V30 58 1 24 54
M  V30 59 1 27 55
M  V30 60 1 28 56
M  V30 61 1 29 57
M  V30 62 1 31 58
M  V30 63 1 32 59
M  V30 END BOND
M  V30 END CTAB
M  END
>  <Dataset>  (264) 
ChEMBL_Kinases

>  <Ligand_Instance>  (264) 
nan

>  <PDB_ID>  (264) 
nan

>  <Standardized_SMILES>  (264) 
O=C(NCC1CCN(Cc2ccccc2F)CC1)c1n[nH]c2ccc(-c3cccnc3)cc12

>  <Name>  (264) 
nan

>  <Pocket>  (264) 
nan

>  <ATP_Site>  (264) 
nan

>  <Peripheral>  (264) 
nan

>  <Num_H_Atoms_ProtBoundConf>  (264) 
nan

>  <Num_Resolved_Atoms>  (264) 
nan

>  <Num_Not_Resolved_Atoms>  (264) 
nan

$$$$
CHEMBL4079910
     RDKit          3D

  0  0  0  0  0  0  0  0  0  0999 V3000
M  V30 BEGIN CTAB
M  V30 COUNTS 42 45 0 0 0
M  V30 BEGIN ATOM
M  V30 1 N 0.478002 -5.628206 2.643944 0
M  V30 2 C 1.467625 -4.835651 3.265290 0
M  V30 3 O 2.234139 -5.229937 4.189000 0
M  V30 4 C 1.663141 -3.472440 2.858494 0
M  V30 5 C 2.594890 -2.624685 3.398920 0
M  V30 6 N 2.599278 -1.419479 2.874957 0
M  V30 7 C 1.870479 -0.874941 1.923019 0
M  V30 8 N 2.141315 0.488224 1.573753 0
M  V30 9 C 1.665840 1.500210 0.725165 0 CFG=1
M  V30 10 C 0.295924 2.012860 1.184464 0
M  V30 11 C -0.147160 2.968386 0.089807 0
M  V30 12 C 0.769789 4.170295 0.209696 0
M  V30 13 N 2.117405 3.778354 -0.041040 0
M  V30 14 C 2.612953 2.691434 0.749298 0
M  V30 15 C 0.902127 -1.642223 1.310380 0
M  V30 16 C 0.008132 -1.417692 0.324820 0
M  V30 17 C -0.839629 -2.362461 -0.100512 0
M  V30 18 C -1.870548 -2.339127 -1.133327 0
M  V30 19 C -2.613125 -3.429036 -1.391950 0
M  V30 20 C -3.566271 -3.386175 -2.356329 0
M  V30 21 S -3.534900 -1.703163 -3.063400 0
M  V30 22 C -2.143349 -1.159567 -1.921333 0
M  V30 23 S -0.464166 -3.755245 0.883835 0
M  V30 24 C 0.890212 -2.896204 1.848663 0
M  V30 25 H -0.365773 -5.461005 3.257139 0
M  V30 26 H 0.943815 -6.087381 1.807979 0
M  V30 27 H 3.243576 -2.970683 4.185520 0
M  V30 28 H 2.958581 0.903494 2.113590 0
M  V30 29 H 1.518854 1.159667 -0.330475 0
M  V30 30 H -0.415633 1.225622 1.384005 0
M  V30 31 H 0.453445 2.680599 2.084992 0
M  V30 32 H 0.125949 2.479956 -0.880191 0
M  V30 33 H -1.213136 3.237493 0.145588 0
M  V30 34 H 0.666111 4.565564 1.239435 0
M  V30 35 H 0.519422 4.980092 -0.488977 0
M  V30 36 H 2.448351 3.832394 -1.007933 0
M  V30 37 H 2.769248 2.963517 1.803901 0
M  V30 38 H 3.550827 2.340292 0.321420 0
M  V30 39 H -0.077173 -0.473896 -0.184937 0
M  V30 40 H -2.594832 -4.403084 -0.946564 0
M  V30 41 H -4.290861 -4.010658 -2.801262 0
M  V30 42 H -1.507981 -0.188058 -1.717130 0
M  V30 END ATOM
M  V30 BEGIN BOND
M  V30 1 1 1 2
M  V30 2 2 2 3
M  V30 3 1 2 4
M  V30 4 2 4 5
M  V30 5 1 5 6
M  V30 6 2 6 7
M  V30 7 1 7 8
M  V30 8 1 8 9
M  V30 9 1 9 10
M  V30 10 1 10 11
M  V30 11 1 11 12
M  V30 12 1 12 13
M  V30 13 1 13 14
M  V30 14 1 7 15
M  V30 15 1 15 16
M  V30 16 2 16 17
M  V30 17 1 17 18
M  V30 18 1 18 19
M  V30 19 2 19 20
M  V30 20 1 20 21
M  V30 21 1 21 22
M  V30 22 1 17 23
M  V30 23 1 23 24
M  V30 24 1 24 4
M  V30 25 1 14 9
M  V30 26 2 24 15
M  V30 27 2 22 18
M  V30 28 1 1 25
M  V30 29 1 1 26
M  V30 30 1 5 27
M  V30 31 1 8 28
M  V30 32 1 9 29 CFG=3
M  V30 33 1 10 30
M  V30 34 1 10 31
M  V30 35 1 11 32
M  V30 36 1 11 33
M  V30 37 1 12 34
M  V30 38 1 12 35
M  V30 39 1 13 36
M  V30 40 1 14 37
M  V30 41 1 14 38
M  V30 42 1 16 39
M  V30 43 1 19 40
M  V30 44 1 20 41
M  V30 45 1 22 42
M  V30 END BOND
M  V30 END CTAB
M  END
>  <Dataset>  (265) 
ChEMBL_Kinases

>  <Ligand_Instance>  (265) 
nan

>  <PDB_ID>  (265) 
nan

>  <Standardized_SMILES>  (265) 
NC(=O)c1cnc(N[C@H]2CCCNC2)c2cc(-c3ccsc3)sc12

>  <Name>  (265) 
nan

>  <Pocket>  (265) 
nan

>  <ATP_Site>  (265) 
nan

>  <Peripheral>  (265) 
nan

>  <Num_H_Atoms_ProtBoundConf>  (265) 
nan

>  <Num_Resolved_Atoms>  (265) 
nan

>  <Num_Not_Resolved_Atoms>  (265) 
nan

$$$$
CHEMBL4854610
     RDKit          3D

  0  0  0  0  0  0  0  0  0  0999 V3000
M  V30 BEGIN CTAB
M  V30 COUNTS 57 59 0 0 0
M  V30 BEGIN ATOM
M  V30 1 N 1.290310 -6.135399 0.903639 0
M  V30 2 C 1.812915 -5.125282 1.021388 0
M  V30 3 C 2.473222 -3.848590 1.145523 0
M  V30 4 C 3.729205 -3.780754 1.761643 0
M  V30 5 C 4.264999 -2.513793 1.831002 0
M  V30 6 C 3.706059 -1.354443 1.370130 0
M  V30 7 N 4.230545 -0.045757 1.456997 0
M  V30 8 C 3.554132 1.053990 0.820276 0
M  V30 9 N 3.955271 1.794501 -0.244637 0
M  V30 10 C 3.151680 2.768113 -0.712342 0
M  V30 11 C 1.933110 3.012202 -0.118270 0
M  V30 12 C 1.070634 4.095209 -0.658288 0
M  V30 13 F 1.673870 4.717344 -1.734440 0
M  V30 14 F 0.852018 5.026829 0.331263 0
M  V30 15 F -0.141997 3.632469 -1.091470 0
M  V30 16 C 1.506998 2.256663 0.980062 0
M  V30 17 N 0.258034 2.448551 1.587742 0
M  V30 18 C -0.316864 1.774728 2.709314 0
M  V30 19 C -0.307087 0.279874 2.633980 0
M  V30 20 C -1.025705 -0.288177 1.442172 0
M  V30 21 N -2.400939 0.038692 1.348821 0
M  V30 22 C -3.102010 -0.453306 0.217285 0
M  V30 23 C -3.309264 -1.929858 0.130200 0
M  V30 24 N -4.014783 -2.276280 -1.078113 0
M  V30 25 C -4.236242 -3.722712 -1.171627 0
M  V30 26 C -2.908767 -4.424732 -1.256022 0
M  V30 27 O -2.073168 -3.985728 -2.250059 0
M  V30 28 C -1.871999 -2.617225 -2.240046 0
M  V30 29 C -3.258038 -1.977214 -2.277887 0
M  V30 30 N 2.344752 1.300095 1.407099 0
M  V30 31 C 2.462413 -1.518050 0.774230 0
M  V30 32 N 1.899302 -2.730102 0.683267 0
M  V30 33 H 4.234081 -4.638380 2.145972 0
M  V30 34 H 5.247515 -2.422604 2.301447 0
M  V30 35 H 5.112203 0.086018 1.991852 0
M  V30 36 H 3.478692 3.344797 -1.552686 0
M  V30 37 H -0.351617 3.202335 1.152545 0
M  V30 38 H -1.339809 2.109389 2.931127 0
M  V30 39 H 0.294938 2.047929 3.595678 0
M  V30 40 H 0.740606 -0.043706 2.690228 0
M  V30 41 H -0.821184 -0.082361 3.554696 0
M  V30 42 H -0.512512 0.154531 0.543831 0
M  V30 43 H -0.786047 -1.354435 1.386380 0
M  V30 44 H -2.611388 1.032666 1.505952 0
M  V30 45 H -4.060317 0.108004 0.154620 0
M  V30 46 H -2.520232 -0.150752 -0.680631 0
M  V30 47 H -4.044204 -2.185800 0.956067 0
M  V30 48 H -2.431051 -2.531012 0.363379 0
M  V30 49 H -4.768904 -4.125716 -0.313906 0
M  V30 50 H -4.738734 -3.877124 -2.148543 0
M  V30 51 H -2.345791 -4.454038 -0.301265 0
M  V30 52 H -3.139946 -5.492618 -1.482681 0
M  V30 53 H -1.283727 -2.257636 -1.378566 0
M  V30 54 H -1.348539 -2.306383 -3.143448 0
M  V30 55 H -3.209331 -0.912880 -2.542803 0
M  V30 56 H -3.786387 -2.484858 -3.110333 0
M  V30 57 H 1.851093 -0.750977 0.349350 0
M  V30 END ATOM
M  V30 BEGIN BOND
M  V30 1 3 1 2
M  V30 2 1 2 3
M  V30 3 2 3 4
M  V30 4 1 4 5
M  V30 5 2 5 6
M  V30 6 1 6 7
M  V30 7 1 7 8
M  V30 8 2 8 9
M  V30 9 1 9 10
M  V30 10 2 10 11
M  V30 11 1 11 12
M  V30 12 1 12 13
M  V30 13 1 12 14
M  V30 14 1 12 15
M  V30 15 1 11 16
M  V30 16 1 16 17
M  V30 17 1 17 18
M  V30 18 1 18 19
M  V30 19 1 19 20
M  V30 20 1 20 21
M  V30 21 1 21 22
M  V30 22 1 22 23
M  V30 23 1 23 24
M  V30 24 1 24 25
M  V30 25 1 25 26
M  V30 26 1 26 27
M  V30 27 1 27 28
M  V30 28 1 28 29
M  V30 29 2 16 30
M  V30 30 1 6 31
M  V30 31 2 31 32
M  V30 32 1 32 3
M  V30 33 1 30 8
M  V30 34 1 29 24
M  V30 35 1 4 33
M  V30 36 1 5 34
M  V30 37 1 7 35
M  V30 38 1 10 36
M  V30 39 1 17 37
M  V30 40 1 18 38
M  V30 41 1 18 39
M  V30 42 1 19 40
M  V30 43 1 19 41
M  V30 44 1 20 42
M  V30 45 1 20 43
M  V30 46 1 21 44
M  V30 47 1 22 45
M  V30 48 1 22 46
M  V30 49 1 23 47
M  V30 50 1 23 48
M  V30 51 1 25 49
M  V30 52 1 25 50
M  V30 53 1 26 51
M  V30 54 1 26 52
M  V30 55 1 28 53
M  V30 56 1 28 54
M  V30 57 1 29 55
M  V30 58 1 29 56
M  V30 59 1 31 57
M  V30 END BOND
M  V30 END CTAB
M  END
>  <Dataset>  (266) 
ChEMBL_Kinases

>  <Ligand_Instance>  (266) 
nan

>  <PDB_ID>  (266) 
nan

>  <Standardized_SMILES>  (266) 
N#Cc1ccc(Nc2ncc(C(F)(F)F)c(NCCCNCCN3CCOCC3)n2)cn1

>  <Name>  (266) 
nan

>  <Pocket>  (266) 
nan

>  <ATP_Site>  (266) 
nan

>  <Peripheral>  (266) 
nan

>  <Num_H_Atoms_ProtBoundConf>  (266) 
nan

>  <Num_Resolved_Atoms>  (266) 
nan

>  <Num_Not_Resolved_Atoms>  (266) 
nan

$$$$
CHEMBL4079875
     RDKit          3D

  0  0  0  0  0  0  0  0  0  0999 V3000
M  V30 BEGIN CTAB
M  V30 COUNTS 45 47 0 0 0
M  V30 BEGIN ATOM
M  V30 1 C -1.088182 -2.329581 2.817958 0
M  V30 2 N -1.639179 -3.469222 2.128112 0
M  V30 3 C -1.458968 -3.907332 0.807130 0
M  V30 4 C -0.679394 -3.268780 -0.102628 0
M  V30 5 C -0.520587 -3.735369 -1.383715 0
M  V30 6 O 0.295292 -3.018908 -2.241402 0
M  V30 7 C 0.943824 -1.856299 -1.874131 0
M  V30 8 C 0.189427 -0.716163 -2.169766 0
M  V30 9 C 0.660816 0.552251 -1.879680 0
M  V30 10 C 1.901043 0.637395 -1.289735 0
M  V30 11 N 2.527228 1.872971 -0.955116 0
M  V30 12 C 1.973570 2.449548 0.211933 0
M  V30 13 S 2.295056 3.829227 1.060996 0
M  V30 14 N 1.003627 2.275968 1.205153 0
M  V30 15 C 0.105853 2.286267 2.277126 0
M  V30 16 C 0.454015 1.629503 3.432686 0
M  V30 17 C -0.475728 1.678422 4.479688 0
M  V30 18 C -1.625194 2.384510 4.205978 0
M  V30 19 Br -2.892441 2.438956 5.642767 0
M  V30 20 C -1.999565 3.045338 3.073105 0
M  V30 21 C -1.056433 2.978824 2.054161 0
M  V30 22 C 2.669886 -0.464096 -0.984918 0
M  V30 23 C 4.005117 -0.522429 -0.358214 0
M  V30 24 C 2.180814 -1.719890 -1.282848 0
M  V30 25 N -1.159357 -4.867152 -1.756796 0
M  V30 26 C -1.938943 -5.495999 -0.830863 0
M  V30 27 N -2.080965 -5.024190 0.415931 0
M  V30 28 H -0.326481 -2.658089 3.575779 0
M  V30 29 H -1.862465 -1.654871 3.257304 0
M  V30 30 H -0.542046 -1.717842 2.077008 0
M  V30 31 H -2.243598 -3.959294 2.822134 0
M  V30 32 H -0.171013 -2.369618 0.186315 0
M  V30 33 H -0.805012 -0.729138 -2.638737 0
M  V30 34 H 0.142206 1.485623 -2.074900 0
M  V30 35 H 3.244388 2.543049 -1.227872 0
M  V30 36 H 0.672244 1.361593 0.779298 0
M  V30 37 H 1.383534 1.099249 3.552484 0
M  V30 38 H -0.289725 1.197077 5.416489 0
M  V30 39 H -2.922571 3.563041 2.977084 0
M  V30 40 H -1.264499 3.483766 1.094728 0
M  V30 41 H 3.890138 -0.882813 0.685711 0
M  V30 42 H 4.702082 -1.207998 -0.841545 0
M  V30 43 H 4.437501 0.511546 -0.286231 0
M  V30 44 H 2.604290 -2.721934 -1.138126 0
M  V30 45 H -2.410770 -6.380123 -1.199691 0
M  V30 END ATOM
M  V30 BEGIN BOND
M  V30 1 1 1 2
M  V30 2 1 2 3
M  V30 3 2 3 4
M  V30 4 1 4 5
M  V30 5 1 5 6
M  V30 6 1 6 7
M  V30 7 2 7 8
M  V30 8 1 8 9
M  V30 9 2 9 10
M  V30 10 1 10 11
M  V30 11 1 11 12
M  V30 12 2 12 13
M  V30 13 1 12 14
M  V30 14 1 14 15
M  V30 15 2 15 16
M  V30 16 1 16 17
M  V30 17 2 17 18
M  V30 18 1 18 19
M  V30 19 1 18 20
M  V30 20 2 20 21
M  V30 21 1 10 22
M  V30 22 1 22 23
M  V30 23 2 22 24
M  V30 24 2 5 25
M  V30 25 1 25 26
M  V30 26 2 26 27
M  V30 27 1 27 3
M  V30 28 1 24 7
M  V30 29 1 21 15
M  V30 30 1 1 28
M  V30 31 1 1 29
M  V30 32 1 1 30
M  V30 33 1 2 31
M  V30 34 1 4 32
M  V30 35 1 8 33
M  V30 36 1 9 34
M  V30 37 1 11 35
M  V30 38 1 14 36
M  V30 39 1 16 37
M  V30 40 1 17 38
M  V30 41 1 20 39
M  V30 42 1 21 40
M  V30 43 1 23 41
M  V30 44 1 23 42
M  V30 45 1 23 43
M  V30 46 1 24 44
M  V30 47 1 26 45
M  V30 END BOND
M  V30 END CTAB
M  END
>  <Dataset>  (267) 
ChEMBL_Kinases

>  <Ligand_Instance>  (267) 
nan

>  <PDB_ID>  (267) 
nan

>  <Standardized_SMILES>  (267) 
CNc1cc(Oc2ccc(NC(=S)Nc3ccc(Br)cc3)c(C)c2)ncn1

>  <Name>  (267) 
nan

>  <Pocket>  (267) 
nan

>  <ATP_Site>  (267) 
nan

>  <Peripheral>  (267) 
nan

>  <Num_H_Atoms_ProtBoundConf>  (267) 
nan

>  <Num_Resolved_Atoms>  (267) 
nan

>  <Num_Not_Resolved_Atoms>  (267) 
nan

$$$$
CHEMBL4854645
     RDKit          3D

  0  0  0  0  0  0  0  0  0  0999 V3000
M  V30 BEGIN CTAB
M  V30 COUNTS 53 58 0 0 0
M  V30 BEGIN ATOM
M  V30 1 C 5.087828 1.916027 4.304008 0
M  V30 2 O 3.724176 1.810667 3.896736 0
M  V30 3 C 3.398634 0.943841 2.824301 0
M  V30 4 N 4.393130 0.252960 2.227903 0
M  V30 5 C 4.048728 -0.560866 1.216461 0
M  V30 6 C 2.727052 -0.589263 0.912900 0
M  V30 7 C 1.650325 0.072857 1.457816 0
M  V30 8 C 2.028447 0.900423 2.493521 0
M  V30 9 N 1.112270 1.699001 3.223413 0
M  V30 10 S -0.107065 2.847520 2.826061 0
M  V30 11 O 0.494293 4.070223 2.177340 0
M  V30 12 O -0.675581 3.352954 4.138990 0
M  V30 13 C -1.401750 2.196592 1.875815 0
M  V30 14 C -2.082409 3.079270 1.022650 0
M  V30 15 C -3.116850 2.732004 0.212579 0
M  V30 16 C -3.578646 1.430014 0.180817 0
M  V30 17 F -4.612126 1.078885 -0.627614 0
M  V30 18 C -2.914123 0.555018 1.016137 0
M  V30 19 C -1.873988 0.926279 1.825399 0
M  V30 20 C -3.413538 -0.798800 0.947556 0
M  V30 21 O -3.981840 -1.258024 -0.075159 0
M  V30 22 N -3.615626 -2.066424 1.545963 0
M  V30 23 C -4.288944 -3.126412 0.772940 0
M  V30 24 C -3.569807 -3.414479 -0.458886 0
M  V30 25 C -3.750057 -3.744460 -1.771380 0
M  V30 26 C -2.690265 -3.912622 -2.618705 0
M  V30 27 C -1.463512 -3.713575 -1.999236 0
M  V30 28 S -1.907401 -3.292932 -0.217621 0
M  V30 29 C -0.062750 -3.744426 -2.383867 0
M  V30 30 N 0.340740 -4.485893 -3.423041 0
M  V30 31 C 1.677909 -4.479482 -3.749427 0
M  V30 32 N 2.585017 -3.761937 -3.067894 0
M  V30 33 C 2.199318 -3.012370 -2.023437 0
M  V30 34 C 3.049907 -2.248633 -1.272707 0
M  V30 35 C 2.468288 -1.558842 -0.255897 0
M  V30 36 S 0.634644 -2.040506 -0.402446 0
M  V30 37 C 0.829788 -2.985251 -1.646237 0
M  V30 38 H 5.443726 2.957492 4.333995 0
M  V30 39 H 5.766179 1.316749 3.652691 0
M  V30 40 H 5.236838 1.514675 5.345462 0
M  V30 41 H 4.812819 -1.130599 0.706616 0
M  V30 42 H 0.684243 -0.117409 1.038416 0
M  V30 43 H 1.308163 1.448737 4.241529 0
M  V30 44 H -1.775191 4.135744 0.994889 0
M  V30 45 H -3.598104 3.488547 -0.425037 0
M  V30 46 H -1.415632 0.171122 2.445538 0
M  V30 47 H -3.158537 -1.743783 2.415656 0
M  V30 48 H -5.337824 -2.860193 0.540141 0
M  V30 49 H -4.336832 -4.050971 1.358047 0
M  V30 50 H -4.798052 -3.863755 -2.087278 0
M  V30 51 H -2.707745 -4.170256 -3.657290 0
M  V30 52 H 2.006827 -5.077568 -4.584747 0
M  V30 53 H 4.110973 -2.101851 -1.356777 0
M  V30 END ATOM
M  V30 BEGIN BOND
M  V30 1 1 1 2
M  V30 2 1 2 3
M  V30 3 2 3 4
M  V30 4 1 4 5
M  V30 5 2 5 6
M  V30 6 1 6 7
M  V30 7 2 7 8
M  V30 8 1 8 9
M  V30 9 1 9 10
M  V30 10 2 10 11
M  V30 11 2 10 12
M  V30 12 1 10 13
M  V30 13 2 13 14
M  V30 14 1 14 15
M  V30 15 2 15 16
M  V30 16 1 16 17
M  V30 17 1 16 18
M  V30 18 2 18 19
M  V30 19 1 18 20
M  V30 20 2 20 21
M  V30 21 1 20 22
M  V30 22 1 22 23
M  V30 23 1 23 24
M  V30 24 2 24 25
M  V30 25 1 25 26
M  V30 26 2 26 27
M  V30 27 1 27 28
M  V30 28 1 27 29
M  V30 29 1 29 30
M  V30 30 2 30 31
M  V30 31 1 31 32
M  V30 32 2 32 33
M  V30 33 1 33 34
M  V30 34 2 34 35
M  V30 35 1 35 36
M  V30 36 1 36 37
M  V30 37 1 8 3
M  V30 38 1 19 13
M  V30 39 1 28 24
M  V30 40 2 37 29
M  V30 41 1 35 6
M  V30 42 1 37 33
M  V30 43 1 1 38
M  V30 44 1 1 39
M  V30 45 1 1 40
M  V30 46 1 5 41
M  V30 47 1 7 42
M  V30 48 1 9 43
M  V30 49 1 14 44
M  V30 50 1 15 45
M  V30 51 1 19 46
M  V30 52 1 22 47
M  V30 53 1 23 48
M  V30 54 1 23 49
M  V30 55 1 25 50
M  V30 56 1 26 51
M  V30 57 1 31 52
M  V30 58 1 34 53
M  V30 END BOND
M  V30 END CTAB
M  END
>  <Dataset>  (268) 
ChEMBL_Kinases

>  <Ligand_Instance>  (268) 
nan

>  <PDB_ID>  (268) 
nan

>  <Standardized_SMILES>  (268) 
COc1ncc2cc1NS(=O)(=O)c1ccc(F)c(c1)C(=O)NCc1ccc(s1)-c1ncnc3cc-2sc13

>  <Name>  (268) 
nan

>  <Pocket>  (268) 
nan

>  <ATP_Site>  (268) 
nan

>  <Peripheral>  (268) 
nan

>  <Num_H_Atoms_ProtBoundConf>  (268) 
nan

>  <Num_Resolved_Atoms>  (268) 
nan

>  <Num_Not_Resolved_Atoms>  (268) 
nan

$$$$
CHEMBL4854650
     RDKit          3D

  0  0  0  0  0  0  0  0  0  0999 V3000
M  V30 BEGIN CTAB
M  V30 COUNTS 49 53 0 0 0
M  V30 BEGIN ATOM
M  V30 1 O 2.610649 -5.576782 0.176122 0
M  V30 2 C 2.599305 -4.358408 0.359942 0
M  V30 3 O 3.746981 -4.381986 1.124071 0
M  V30 4 C 1.823163 -3.171750 0.027256 0
M  V30 5 C 2.350095 -1.990677 0.551198 0
M  V30 6 C 1.752779 -0.771571 0.339890 0
M  V30 7 C 0.604197 -0.766109 -0.416094 0
M  V30 8 C -0.032454 0.519746 -0.655093 0
M  V30 9 N -0.465018 0.851218 -1.906159 0
M  V30 10 C -1.033395 2.091375 -1.944936 0
M  V30 11 N -1.188369 2.947867 -0.919977 0
M  V30 12 C -0.743621 2.582280 0.320742 0
M  V30 13 C -0.874427 3.410942 1.398910 0
M  V30 14 C -0.385164 2.920065 2.585445 0
M  V30 15 C -0.277060 3.381552 3.999747 0
M  V30 16 C 0.300933 2.556045 4.918056 0
M  V30 17 C 0.353064 3.060985 6.224334 0
M  V30 18 C -0.173522 4.320718 6.446801 0
M  V30 19 C -0.744688 5.113674 5.491636 0
M  V30 20 C -0.810833 4.627287 4.168265 0
M  V30 21 S 0.279147 1.210621 2.111034 0
M  V30 22 C -0.165458 1.356700 0.426267 0
M  V30 23 C 0.118686 -1.954087 -0.912977 0
M  V30 24 C 0.652926 -3.202982 -0.747369 0
M  V30 25 C 0.123865 -4.440832 -1.316611 0
M  V30 26 C -0.011529 -4.393093 -2.812438 0
M  V30 27 C -1.411718 -3.957682 -3.049115 0
M  V30 28 C -2.191670 -4.247910 -1.792931 0
M  V30 29 C -1.217235 -4.900394 -0.912854 0
M  V30 30 H 3.973087 -4.933376 1.927033 0
M  V30 31 H 3.263218 -1.982667 1.154141 0
M  V30 32 H 2.177770 0.108767 0.755754 0
M  V30 33 H -1.394219 2.389872 -2.939768 0
M  V30 34 H -1.292532 4.393234 1.512437 0
M  V30 35 H 0.702745 1.582116 4.712043 0
M  V30 36 H 0.816609 2.397270 6.956049 0
M  V30 37 H -0.105589 4.674606 7.492541 0
M  V30 38 H -1.138457 6.091732 5.722901 0
M  V30 39 H -1.254372 5.225216 3.391489 0
M  V30 40 H -0.772614 -1.805702 -1.491075 0
M  V30 41 H 0.890938 -5.289915 -1.111408 0
M  V30 42 H 0.096714 -5.454008 -3.198131 0
M  V30 43 H 0.753856 -3.780673 -3.312998 0
M  V30 44 H -1.527495 -2.917254 -3.429134 0
M  V30 45 H -1.873540 -4.622183 -3.839438 0
M  V30 46 H -3.102498 -4.872594 -2.007576 0
M  V30 47 H -2.526466 -3.257600 -1.360757 0
M  V30 48 H -1.435935 -4.866122 0.170075 0
M  V30 49 H -1.247949 -6.024978 -1.141740 0
M  V30 END ATOM
M  V30 BEGIN BOND
M  V30 1 2 1 2
M  V30 2 1 2 3
M  V30 3 1 2 4
M  V30 4 2 4 5
M  V30 5 1 5 6
M  V30 6 2 6 7
M  V30 7 1 7 8
M  V30 8 2 8 9
M  V30 9 1 9 10
M  V30 10 2 10 11
M  V30 11 1 11 12
M  V30 12 1 12 13
M  V30 13 2 13 14
M  V30 14 1 14 15
M  V30 15 2 15 16
M  V30 16 1 16 17
M  V30 17 2 17 18
M  V30 18 1 18 19
M  V30 19 2 19 20
M  V30 20 1 14 21
M  V30 21 1 21 22
M  V30 22 1 7 23
M  V30 23 2 23 24
M  V30 24 1 24 25
M  V30 25 1 25 26
M  V30 26 1 26 27
M  V30 27 1 27 28
M  V30 28 1 28 29
M  V30 29 1 24 4
M  V30 30 1 29 25
M  V30 31 1 22 8
M  V30 32 2 22 12
M  V30 33 1 20 15
M  V30 34 1 3 30
M  V30 35 1 5 31
M  V30 36 1 6 32
M  V30 37 1 10 33
M  V30 38 1 13 34
M  V30 39 1 16 35
M  V30 40 1 17 36
M  V30 41 1 18 37
M  V30 42 1 19 38
M  V30 43 1 20 39
M  V30 44 1 23 40
M  V30 45 1 25 41
M  V30 46 1 26 42
M  V30 47 1 26 43
M  V30 48 1 27 44
M  V30 49 1 27 45
M  V30 50 1 28 46
M  V30 51 1 28 47
M  V30 52 1 29 48
M  V30 53 1 29 49
M  V30 END BOND
M  V30 END CTAB
M  END
>  <Dataset>  (269) 
ChEMBL_Kinases

>  <Ligand_Instance>  (269) 
nan

>  <PDB_ID>  (269) 
nan

>  <Standardized_SMILES>  (269) 
O=C(O)c1ccc(-c2ncnc3cc(-c4ccccc4)sc23)cc1C1CCCC1

>  <Name>  (269) 
nan

>  <Pocket>  (269) 
nan

>  <ATP_Site>  (269) 
nan

>  <Peripheral>  (269) 
nan

>  <Num_H_Atoms_ProtBoundConf>  (269) 
nan

>  <Num_Resolved_Atoms>  (269) 
nan

>  <Num_Not_Resolved_Atoms>  (269) 
nan

$$$$
CHEMBL4854957
     RDKit          3D

  0  0  0  0  0  0  0  0  0  0999 V3000
M  V30 BEGIN CTAB
M  V30 COUNTS 55 57 0 0 0
M  V30 BEGIN ATOM
M  V30 1 C 2.205516 -1.314724 1.478446 0
M  V30 2 C 3.372937 -0.422997 1.913609 0
M  V30 3 C 3.348999 -0.313842 3.430015 0
M  V30 4 O 4.581433 -0.945720 1.487331 0
M  V30 5 C 3.127211 0.932950 1.294826 0
M  V30 6 N 3.110407 0.735059 -0.158406 0
M  V30 7 C 2.879090 2.010897 -0.743148 0
M  V30 8 C 1.576666 2.381546 -0.963290 0
M  V30 9 C 1.162635 3.591182 -1.525609 0
M  V30 10 O -0.182514 3.883666 -1.712247 0
M  V30 11 C -1.117603 2.926319 -1.318575 0
M  V30 12 C -1.486024 1.990689 -2.277352 0
M  V30 13 C -2.410715 1.033505 -1.908962 0
M  V30 14 C -2.906058 1.067921 -0.620226 0
M  V30 15 N -3.871463 0.060792 -0.251102 0
M  V30 16 C -3.290775 -1.133812 0.292928 0
M  V30 17 O -2.027919 -1.180284 0.390416 0
M  V30 18 N -3.986279 -2.288017 0.741233 0
M  V30 19 C -3.213548 -3.389565 1.257495 0
M  V30 20 C -2.873434 -3.513106 2.598627 0
M  V30 21 C -2.131329 -4.586639 3.046143 0
M  V30 22 C -1.752830 -5.515450 2.098895 0
M  V30 23 C -2.058651 -5.449104 0.755045 0
M  V30 24 C -1.588667 -6.517999 -0.160919 0
M  V30 25 F -1.800149 -7.761504 0.360710 0
M  V30 26 F -2.192316 -6.368137 -1.403011 0
M  V30 27 F -0.217458 -6.411104 -0.412971 0
M  V30 28 C -2.805314 -4.352909 0.354320 0
M  V30 29 C -2.547435 1.992048 0.339739 0
M  V30 30 C -1.621173 2.947756 -0.035463 0
M  V30 31 N 2.184025 4.417674 -1.856736 0
M  V30 32 C 3.456720 4.089873 -1.657126 0
M  V30 33 N 3.813848 2.909477 -1.110309 0
M  V30 34 H 1.315367 -0.680880 1.304871 0
M  V30 35 H 2.516345 -1.845136 0.550806 0
M  V30 36 H 1.951464 -2.062244 2.248699 0
M  V30 37 H 2.289640 -0.187465 3.768555 0
M  V30 38 H 3.743765 -1.232561 3.892990 0
M  V30 39 H 3.873089 0.584802 3.784342 0
M  V30 40 H 4.566106 -1.933751 1.390653 0
M  V30 41 H 2.137410 1.310708 1.607484 0
M  V30 42 H 3.930398 1.659242 1.557122 0
M  V30 43 H 3.236730 -0.143665 -0.722634 0
M  V30 44 H 0.765112 1.694380 -0.686450 0
M  V30 45 H -1.071951 1.999105 -3.280471 0
M  V30 46 H -2.727469 0.282382 -2.626971 0
M  V30 47 H -4.932316 0.028420 -0.302606 0
M  V30 48 H -5.041918 -2.237114 0.654601 0
M  V30 49 H -3.210198 -2.739455 3.278822 0
M  V30 50 H -1.864431 -4.687014 4.088003 0
M  V30 51 H -1.170078 -6.348294 2.481661 0
M  V30 52 H -3.058640 -4.282582 -0.711473 0
M  V30 53 H -2.993331 1.936454 1.327142 0
M  V30 54 H -1.326511 3.681273 0.701843 0
M  V30 55 H 4.278668 4.756020 -1.924069 0
M  V30 END ATOM
M  V30 BEGIN BOND
M  V30 1 1 1 2
M  V30 2 1 2 3
M  V30 3 1 2 4
M  V30 4 1 2 5
M  V30 5 1 5 6
M  V30 6 1 6 7
M  V30 7 2 7 8
M  V30 8 1 8 9
M  V30 9 1 9 10
M  V30 10 1 10 11
M  V30 11 2 11 12
M  V30 12 1 12 13
M  V30 13 2 13 14
M  V30 14 1 14 15
M  V30 15 1 15 16
M  V30 16 2 16 17
M  V30 17 1 16 18
M  V30 18 1 18 19
M  V30 19 2 19 20
M  V30 20 1 20 21
M  V30 21 2 21 22
M  V30 22 1 22 23
M  V30 23 1 23 24
M  V30 24 1 24 25
M  V30 25 1 24 26
M  V30 26 1 24 27
M  V30 27 2 23 28
M  V30 28 1 14 29
M  V30 29 2 29 30
M  V30 30 2 9 31
M  V30 31 1 31 32
M  V30 32 2 32 33
M  V30 33 1 33 7
M  V30 34 1 30 11
M  V30 35 1 28 19
M  V30 36 1 1 34
M  V30 37 1 1 35
M  V30 38 1 1 36
M  V30 39 1 3 37
M  V30 40 1 3 38
M  V30 41 1 3 39
M  V30 42 1 4 40
M  V30 43 1 5 41
M  V30 44 1 5 42
M  V30 45 1 6 43
M  V30 46 1 8 44
M  V30 47 1 12 45
M  V30 48 1 13 46
M  V30 49 1 15 47
M  V30 50 1 18 48
M  V30 51 1 20 49
M  V30 52 1 21 50
M  V30 53 1 22 51
M  V30 54 1 28 52
M  V30 55 1 29 53
M  V30 56 1 30 54
M  V30 57 1 32 55
M  V30 END BOND
M  V30 END CTAB
M  END
>  <Dataset>  (270) 
ChEMBL_Kinases

>  <Ligand_Instance>  (270) 
nan

>  <PDB_ID>  (270) 
nan

>  <Standardized_SMILES>  (270) 
CC(C)(O)CNc1cc(Oc2ccc(NC(=O)Nc3cccc(C(F)(F)F)c3)cc2)ncn1

>  <Name>  (270) 
nan

>  <Pocket>  (270) 
nan

>  <ATP_Site>  (270) 
nan

>  <Peripheral>  (270) 
nan

>  <Num_H_Atoms_ProtBoundConf>  (270) 
nan

>  <Num_Resolved_Atoms>  (270) 
nan

>  <Num_Not_Resolved_Atoms>  (270) 
nan

$$$$
CHEMBL4079857
     RDKit          3D

  0  0  0  0  0  0  0  0  0  0999 V3000
M  V30 BEGIN CTAB
M  V30 COUNTS 44 47 0 0 0
M  V30 BEGIN ATOM
M  V30 1 C -2.038614 -5.604297 0.074531 0
M  V30 2 C -0.663495 -5.116090 -0.230412 0
M  V30 3 C 0.301864 -6.043165 -0.563762 0
M  V30 4 C 1.569557 -5.584886 -0.844090 0
M  V30 5 C 1.844944 -4.236051 -0.787627 0
M  V30 6 F 3.136379 -3.905313 -1.085985 0
M  V30 7 C 0.896403 -3.277963 -0.455652 0
M  V30 8 C 1.272965 -1.870226 -0.419473 0
M  V30 9 C 0.353388 -0.901701 -0.094003 0
M  V30 10 C 0.721544 0.425144 -0.063044 0
M  V30 11 N -0.104311 1.531356 0.258962 0
M  V30 12 C -0.233342 2.612341 1.159409 0
M  V30 13 C -0.204175 3.814512 0.455315 0
M  V30 14 C -0.308565 5.031000 1.134412 0
M  V30 15 N -0.435846 4.994858 2.468090 0
M  V30 16 C -0.468096 3.869998 3.174432 0
M  V30 17 C -0.586159 3.501298 4.498223 0
M  V30 18 N -0.550149 2.161747 4.550898 0
M  V30 19 N -0.415669 1.622135 3.344985 0
M  V30 20 C -0.349086 0.227076 3.028621 0
M  V30 21 C -0.366306 2.670015 2.515535 0
M  V30 22 C 2.037912 0.793896 -0.364236 0
M  V30 23 C 2.501413 2.212315 -0.349006 0
M  V30 24 C 2.937059 -0.228758 -0.689704 0
M  V30 25 N 2.537133 -1.512086 -0.708233 0
M  V30 26 C -0.355774 -3.786398 -0.183994 0
M  V30 27 H -2.467332 -4.949966 0.863425 0
M  V30 28 H -1.966465 -6.624186 0.527887 0
M  V30 29 H -2.684503 -5.590179 -0.830947 0
M  V30 30 H 0.036838 -7.089168 -0.594423 0
M  V30 31 H 2.301361 -6.338787 -1.101590 0
M  V30 32 H -0.676817 -1.119498 0.145620 0
M  V30 33 H -0.861092 1.435930 -0.482959 0
M  V30 34 H -0.106207 3.961676 -0.611900 0
M  V30 35 H -0.296267 6.007006 0.681885 0
M  V30 36 H -0.688610 4.200094 5.326697 0
M  V30 37 H 0.641149 -0.150004 2.748650 0
M  V30 38 H -0.688106 -0.342088 3.945850 0
M  V30 39 H -1.077969 -0.083638 2.255256 0
M  V30 40 H 2.037891 2.847015 -1.101915 0
M  V30 41 H 2.427835 2.632093 0.695935 0
M  V30 42 H 3.589267 2.214701 -0.560454 0
M  V30 43 H 3.976041 0.012743 -0.932086 0
M  V30 44 H -1.130103 -3.095320 0.078464 0
M  V30 END ATOM
M  V30 BEGIN BOND
M  V30 1 1 1 2
M  V30 2 2 2 3
M  V30 3 1 3 4
M  V30 4 2 4 5
M  V30 5 1 5 6
M  V30 6 1 5 7
M  V30 7 1 7 8
M  V30 8 2 8 9
M  V30 9 1 9 10
M  V30 10 1 10 11
M  V30 11 1 11 12
M  V30 12 2 12 13
M  V30 13 1 13 14
M  V30 14 2 14 15
M  V30 15 1 15 16
M  V30 16 1 16 17
M  V30 17 2 17 18
M  V30 18 1 18 19
M  V30 19 1 19 20
M  V30 20 1 19 21
M  V30 21 2 10 22
M  V30 22 1 22 23
M  V30 23 1 22 24
M  V30 24 2 24 25
M  V30 25 2 7 26
M  V30 26 1 26 2
M  V30 27 1 25 8
M  V30 28 1 21 12
M  V30 29 2 21 16
M  V30 30 1 1 27
M  V30 31 1 1 28
M  V30 32 1 1 29
M  V30 33 1 3 30
M  V30 34 1 4 31
M  V30 35 1 9 32
M  V30 36 1 11 33
M  V30 37 1 13 34
M  V30 38 1 14 35
M  V30 39 1 17 36
M  V30 40 1 20 37
M  V30 41 1 20 38
M  V30 42 1 20 39
M  V30 43 1 23 40
M  V30 44 1 23 41
M  V30 45 1 23 42
M  V30 46 1 24 43
M  V30 47 1 26 44
M  V30 END BOND
M  V30 END CTAB
M  END
>  <Dataset>  (271) 
ChEMBL_Kinases

>  <Ligand_Instance>  (271) 
nan

>  <PDB_ID>  (271) 
nan

>  <Standardized_SMILES>  (271) 
Cc1ccc(F)c(-c2cc(Nc3ccnc4cnn(C)c34)c(C)cn2)c1

>  <Name>  (271) 
nan

>  <Pocket>  (271) 
nan

>  <ATP_Site>  (271) 
nan

>  <Peripheral>  (271) 
nan

>  <Num_H_Atoms_ProtBoundConf>  (271) 
nan

>  <Num_Resolved_Atoms>  (271) 
nan

>  <Num_Not_Resolved_Atoms>  (271) 
nan

$$$$
CHEMBL4854772
     RDKit          3D

  0  0  0  0  0  0  0  0  0  0999 V3000
M  V30 BEGIN CTAB
M  V30 COUNTS 44 47 0 0 0
M  V30 BEGIN ATOM
M  V30 1 C 5.204535 -1.578217 2.499482 0
M  V30 2 C 4.248719 -0.900951 1.512227 0
M  V30 3 C 2.860574 -1.210955 1.959907 0
M  V30 4 N 4.591571 0.484110 1.460794 0
M  V30 5 C 5.562239 1.143812 2.155829 0
M  V30 6 N 5.581985 2.440118 1.839295 0
M  V30 7 N 4.643424 2.676053 0.942020 0
M  V30 8 C 4.056579 1.476016 0.728331 0
M  V30 9 C 2.955663 1.342722 -0.218454 0
M  V30 10 C 3.221787 1.319471 -1.587155 0
M  V30 11 C 2.224143 1.195438 -2.540087 0
M  V30 12 C 0.902406 1.088605 -2.146406 0
M  V30 13 C 0.668299 1.114763 -0.778056 0
M  V30 14 N -0.702593 1.005077 -0.339504 0
M  V30 15 C -1.071441 -0.346639 -0.138024 0
M  V30 16 O -0.150146 -1.200685 -0.374193 0
M  V30 17 C -2.385834 -0.804223 0.304722 0
M  V30 18 C -2.645426 -2.149583 0.471185 0
M  V30 19 C -3.976956 -2.208636 0.894251 0
M  V30 20 C -4.813196 -3.256556 1.223581 0
M  V30 21 C -6.101103 -2.948449 1.609781 0
M  V30 22 C -6.574188 -1.647844 1.676882 0
M  V30 23 C -5.704007 -0.641587 1.339484 0
M  V30 24 Cl -6.387335 0.980045 1.452597 0
M  V30 25 C -4.403617 -0.885807 0.945335 0
M  V30 26 N -3.426397 -0.033907 0.583935 0
M  V30 27 N 1.658880 1.236404 0.124539 0
M  V30 28 H 6.211596 -1.676865 2.046362 0
M  V30 29 H 5.225242 -0.960455 3.444269 0
M  V30 30 H 4.746851 -2.540498 2.799755 0
M  V30 31 H 4.412392 -1.447267 0.552235 0
M  V30 32 H 2.181354 -1.344308 1.076691 0
M  V30 33 H 2.869539 -2.209757 2.445222 0
M  V30 34 H 2.460919 -0.503589 2.712819 0
M  V30 35 H 6.247062 0.712088 2.877437 0
M  V30 36 H 4.233690 1.397673 -1.991946 0
M  V30 37 H 2.469732 1.180753 -3.608154 0
M  V30 38 H 0.079558 0.989485 -2.840678 0
M  V30 39 H -1.479723 1.697093 -0.138512 0
M  V30 40 H -2.037775 -3.025032 0.334936 0
M  V30 41 H -4.465562 -4.279316 1.178494 0
M  V30 42 H -6.722883 -3.818029 1.860336 0
M  V30 43 H -7.600942 -1.537247 1.993269 0
M  V30 44 H -3.471726 1.005857 0.532751 0
M  V30 END ATOM
M  V30 BEGIN BOND
M  V30 1 1 1 2
M  V30 2 1 2 3
M  V30 3 1 2 4
M  V30 4 1 4 5
M  V30 5 2 5 6
M  V30 6 1 6 7
M  V30 7 2 7 8
M  V30 8 1 8 9
M  V30 9 2 9 10
M  V30 10 1 10 11
M  V30 11 2 11 12
M  V30 12 1 12 13
M  V30 13 1 13 14
M  V30 14 1 14 15
M  V30 15 2 15 16
M  V30 16 1 15 17
M  V30 17 2 17 18
M  V30 18 1 18 19
M  V30 19 2 19 20
M  V30 20 1 20 21
M  V30 21 2 21 22
M  V30 22 1 22 23
M  V30 23 1 23 24
M  V30 24 2 23 25
M  V30 25 1 25 26
M  V30 26 2 13 27
M  V30 27 1 8 4
M  V30 28 1 27 9
M  V30 29 1 26 17
M  V30 30 1 25 19
M  V30 31 1 1 28
M  V30 32 1 1 29
M  V30 33 1 1 30
M  V30 34 1 2 31
M  V30 35 1 3 32
M  V30 36 1 3 33
M  V30 37 1 3 34
M  V30 38 1 5 35
M  V30 39 1 10 36
M  V30 40 1 11 37
M  V30 41 1 12 38
M  V30 42 1 14 39
M  V30 43 1 18 40
M  V30 44 1 20 41
M  V30 45 1 21 42
M  V30 46 1 22 43
M  V30 47 1 26 44
M  V30 END BOND
M  V30 END CTAB
M  END
>  <Dataset>  (272) 
ChEMBL_Kinases

>  <Ligand_Instance>  (272) 
nan

>  <PDB_ID>  (272) 
nan

>  <Standardized_SMILES>  (272) 
CC(C)n1cnnc1-c1cccc(NC(=O)c2cc3cccc(Cl)c3[nH]2)n1

>  <Name>  (272) 
nan

>  <Pocket>  (272) 
nan

>  <ATP_Site>  (272) 
nan

>  <Peripheral>  (272) 
nan

>  <Num_H_Atoms_ProtBoundConf>  (272) 
nan

>  <Num_Resolved_Atoms>  (272) 
nan

>  <Num_Not_Resolved_Atoms>  (272) 
nan

$$$$
CHEMBL4079852
     RDKit          3D

  0  0  0  0  0  0  0  0  0  0999 V3000
M  V30 BEGIN CTAB
M  V30 COUNTS 47 50 0 0 0
M  V30 BEGIN ATOM
M  V30 1 O -0.188198 -6.110208 1.560854 0
M  V30 2 C 0.327902 -5.103096 1.033402 0
M  V30 3 N 1.285562 -5.011000 -0.006077 0
M  V30 4 C 1.572145 -3.643196 -0.266540 0
M  V30 5 C 2.445679 -3.116261 -1.198825 0
M  V30 6 C 2.563388 -1.741109 -1.275901 0
M  V30 7 C 1.795879 -0.959560 -0.410270 0
M  V30 8 C 1.978605 0.476980 -0.555424 0
M  V30 9 O 2.745567 1.022415 -1.370657 0
M  V30 10 N 1.271691 1.438783 0.251536 0
M  V30 11 C 1.394544 2.858831 0.170640 0 CFG=2
M  V30 12 C 1.975256 3.516705 1.395302 0
M  V30 13 O 3.250873 2.998904 1.598739 0
M  V30 14 C 0.141567 3.530929 -0.256891 0
M  V30 15 C -0.430088 4.664177 0.278067 0
M  V30 16 C -1.603999 5.179413 -0.222219 0
M  V30 17 C -2.267843 4.599220 -1.274167 0
M  V30 18 Cl -3.749016 5.292676 -1.867183 0
M  V30 19 C -1.723520 3.458735 -1.837734 0
M  V30 20 C -0.544006 2.953919 -1.323610 0
M  V30 21 C 0.923911 -1.477143 0.520593 0
M  V30 22 C 0.828169 -2.853330 0.573351 0
M  V30 23 C 0.025790 -3.745603 1.412800 0
M  V30 24 C -0.835449 -3.382887 2.341924 0
M  V30 25 C -1.674226 -4.213661 3.189665 0
M  V30 26 C -2.529025 -5.282047 3.043402 0
M  V30 27 C -3.038831 -5.684712 4.257832 0
M  V30 28 C -2.480786 -4.834750 5.194804 0
M  V30 29 N -1.683546 -3.982986 4.524347 0
M  V30 30 H 1.671763 -5.869192 -0.459518 0
M  V30 31 H 3.025831 -3.752652 -1.854530 0
M  V30 32 H 3.237781 -1.303207 -1.994254 0
M  V30 33 H 0.593278 1.125552 0.979731 0
M  V30 34 H 2.147981 3.073489 -0.644394 0
M  V30 35 H 2.122384 4.586397 1.128196 0
M  V30 36 H 1.361453 3.473477 2.290550 0
M  V30 37 H 3.876967 3.236281 0.884457 0
M  V30 38 H 0.119935 5.093664 1.104966 0
M  V30 39 H -1.961516 6.072646 0.275579 0
M  V30 40 H -2.238531 2.987926 -2.671982 0
M  V30 41 H -0.182237 2.050084 -1.827236 0
M  V30 42 H 0.335011 -0.868504 1.184726 0
M  V30 43 H -0.928242 -2.292571 2.488718 0
M  V30 44 H -2.751467 -5.706163 2.078116 0
M  V30 45 H -3.741066 -6.526483 4.342067 0
M  V30 46 H -2.700498 -4.911725 6.249125 0
M  V30 47 H -1.176733 -3.263428 5.085522 0
M  V30 END ATOM
M  V30 BEGIN BOND
M  V30 1 2 1 2
M  V30 2 1 2 3
M  V30 3 1 3 4
M  V30 4 2 4 5
M  V30 5 1 5 6
M  V30 6 2 6 7
M  V30 7 1 7 8
M  V30 8 2 8 9
M  V30 9 1 8 10
M  V30 10 1 10 11
M  V30 11 1 11 12
M  V30 12 1 12 13
M  V30 13 1 11 14
M  V30 14 2 14 15
M  V30 15 1 15 16
M  V30 16 2 16 17
M  V30 17 1 17 18
M  V30 18 1 17 19
M  V30 19 2 19 20
M  V30 20 1 7 21
M  V30 21 2 21 22
M  V30 22 1 22 23
M  V30 23 2 23 24
M  V30 24 1 24 25
M  V30 25 2 25 26
M  V30 26 1 26 27
M  V30 27 2 27 28
M  V30 28 1 28 29
M  V30 29 1 23 2
M  V30 30 1 29 25
M  V30 31 1 22 4
M  V30 32 1 20 14
M  V30 33 1 3 30
M  V30 34 1 5 31
M  V30 35 1 6 32
M  V30 36 1 10 33
M  V30 37 1 11 34 CFG=3
M  V30 38 1 12 35
M  V30 39 1 12 36
M  V30 40 1 13 37
M  V30 41 1 15 38
M  V30 42 1 16 39
M  V30 43 1 19 40
M  V30 44 1 20 41
M  V30 45 1 21 42
M  V30 46 1 24 43
M  V30 47 1 26 44
M  V30 48 1 27 45
M  V30 49 1 28 46
M  V30 50 1 29 47
M  V30 END BOND
M  V30 END CTAB
M  END
>  <Dataset>  (273) 
ChEMBL_Kinases

>  <Ligand_Instance>  (273) 
nan

>  <PDB_ID>  (273) 
nan

>  <Standardized_SMILES>  (273) 
O=C1Nc2ccc(C(=O)N[C@H](CO)c3ccc(Cl)cc3)cc2/C1=C/c1ccc[nH]1

>  <Name>  (273) 
nan

>  <Pocket>  (273) 
nan

>  <ATP_Site>  (273) 
nan

>  <Peripheral>  (273) 
nan

>  <Num_H_Atoms_ProtBoundConf>  (273) 
nan

>  <Num_Resolved_Atoms>  (273) 
nan

>  <Num_Not_Resolved_Atoms>  (273) 
nan

$$$$
CHEMBL4079783
     RDKit          3D

  0  0  0  0  0  0  0  0  0  0999 V3000
M  V30 BEGIN CTAB
M  V30 COUNTS 47 50 0 0 0
M  V30 BEGIN ATOM
M  V30 1 C -0.522458 -2.036773 5.042057 0
M  V30 2 C -0.339192 -2.934839 3.847981 0
M  V30 3 C -0.455396 -2.447450 2.559415 0
M  V30 4 C -0.232963 -3.514447 1.711413 0
M  V30 5 N -0.250867 -3.489571 0.284339 0
M  V30 6 C -0.528857 -2.247869 -0.354870 0
M  V30 7 N 0.498838 -1.399033 -0.638133 0
M  V30 8 C 0.250181 -0.208012 -1.248803 0
M  V30 9 C 1.258307 0.777626 -1.598245 0
M  V30 10 O 2.031240 1.013949 -2.574800 0
M  V30 11 N 1.498967 1.786376 -0.625531 0
M  V30 12 C 2.494267 2.819253 -0.891509 0
M  V30 13 C 3.507837 2.740599 0.232392 0
M  V30 14 N 2.847215 2.893494 1.506688 0
M  V30 15 C 1.855839 1.862858 1.740144 0 CFG=2
M  V30 16 C 2.495479 0.501726 1.900147 0
M  V30 17 C 0.794542 1.862665 0.663035 0
M  V30 18 N -1.015627 0.159186 -1.587368 0
M  V30 19 C -2.074477 -0.644141 -1.330322 0
M  V30 20 C -3.367242 -0.264734 -1.678575 0
M  V30 21 C -4.400572 -1.145681 -1.380603 0
M  V30 22 C -4.173673 -2.352570 -0.764623 0
M  V30 23 Cl -5.505648 -3.446800 -0.400081 0
M  V30 24 C -2.881718 -2.686354 -0.438777 0
M  V30 25 C -1.806759 -1.861744 -0.703928 0
M  V30 26 N 0.007697 -4.601461 2.490627 0
M  V30 27 N -0.058335 -4.243598 3.763744 0
M  V30 28 H -0.540042 -2.620029 5.971267 0
M  V30 29 H -1.477252 -1.467939 4.908219 0
M  V30 30 H 0.342107 -1.322092 5.068170 0
M  V30 31 H -0.674905 -1.442823 2.222960 0
M  V30 32 H -0.065059 -4.353438 -0.249244 0
M  V30 33 H 2.950735 2.668860 -1.869026 0
M  V30 34 H 1.966219 3.812569 -0.815471 0
M  V30 35 H 4.201846 3.608131 0.142829 0
M  V30 36 H 4.039229 1.779661 0.140402 0
M  V30 37 H 3.571350 2.767006 2.251117 0
M  V30 38 H 1.336682 2.119921 2.686377 0
M  V30 39 H 2.124038 -0.027391 2.801282 0
M  V30 40 H 2.407890 -0.091807 0.970562 0
M  V30 41 H 3.597826 0.677183 2.061908 0
M  V30 42 H 0.260482 2.810551 0.674651 0
M  V30 43 H 0.184126 0.950383 0.774819 0
M  V30 44 H -3.557274 0.679049 -2.162339 0
M  V30 45 H -5.425603 -0.914540 -1.623526 0
M  V30 46 H -2.659016 -3.618342 0.043377 0
M  V30 47 H 0.080082 -4.851839 4.597449 0
M  V30 END ATOM
M  V30 BEGIN BOND
M  V30 1 1 1 2
M  V30 2 2 2 3
M  V30 3 1 3 4
M  V30 4 1 4 5
M  V30 5 1 5 6
M  V30 6 2 6 7
M  V30 7 1 7 8
M  V30 8 1 8 9
M  V30 9 2 9 10
M  V30 10 1 9 11
M  V30 11 1 11 12
M  V30 12 1 12 13
M  V30 13 1 13 14
M  V30 14 1 14 15
M  V30 15 1 15 16
M  V30 16 1 15 17
M  V30 17 2 8 18
M  V30 18 1 18 19
M  V30 19 2 19 20
M  V30 20 1 20 21
M  V30 21 2 21 22
M  V30 22 1 22 23
M  V30 23 1 22 24
M  V30 24 2 24 25
M  V30 25 2 4 26
M  V30 26 1 26 27
M  V30 27 1 27 2
M  V30 28 1 25 6
M  V30 29 1 17 11
M  V30 30 1 25 19
M  V30 31 1 1 28
M  V30 32 1 1 29
M  V30 33 1 1 30
M  V30 34 1 3 31
M  V30 35 1 5 32
M  V30 36 1 12 33
M  V30 37 1 12 34
M  V30 38 1 13 35
M  V30 39 1 13 36
M  V30 40 1 14 37
M  V30 41 1 15 38 CFG=1
M  V30 42 1 16 39
M  V30 43 1 16 40
M  V30 44 1 16 41
M  V30 45 1 17 42
M  V30 46 1 17 43
M  V30 47 1 20 44
M  V30 48 1 21 45
M  V30 49 1 24 46
M  V30 50 1 27 47
M  V30 END BOND
M  V30 END CTAB
M  END
>  <Dataset>  (274) 
ChEMBL_Kinases

>  <Ligand_Instance>  (274) 
nan

>  <PDB_ID>  (274) 
nan

>  <Standardized_SMILES>  (274) 
Cc1cc(Nc2nc(C(=O)N3CCN[C@H](C)C3)nc3ccc(Cl)cc23)n[nH]1

>  <Name>  (274) 
nan

>  <Pocket>  (274) 
nan

>  <ATP_Site>  (274) 
nan

>  <Peripheral>  (274) 
nan

>  <Num_H_Atoms_ProtBoundConf>  (274) 
nan

>  <Num_Resolved_Atoms>  (274) 
nan

>  <Num_Not_Resolved_Atoms>  (274) 
nan

$$$$
CHEMBL4854816
     RDKit          3D

  0  0  0  0  0  0  0  0  0  0999 V3000
M  V30 BEGIN CTAB
M  V30 COUNTS 43 44 0 0 0
M  V30 BEGIN ATOM
M  V30 1 C -0.913536 -4.622705 2.123416 0
M  V30 2 O -0.634152 -3.686403 3.149863 0
M  V30 3 C 0.095695 -2.541343 2.915984 0
M  V30 4 C 0.564382 -2.314067 1.627416 0
M  V30 5 C 1.299738 -1.175952 1.356842 0
M  V30 6 N 1.767413 -0.969873 0.024763 0
M  V30 7 C 0.832468 -0.231092 -0.804488 0
M  V30 8 O -0.085805 -0.065332 0.080009 0
M  V30 9 C 1.165320 0.061352 -2.194269 0 CFG=2
M  V30 10 N 2.438909 -0.648182 -2.473280 0
M  V30 11 C 1.400011 1.453808 -2.588541 0
M  V30 12 C 0.378999 2.488563 -2.451660 0
M  V30 13 C -0.091501 2.733285 -1.040276 0
M  V30 14 C -0.818787 2.368222 -3.351052 0
M  V30 15 C 1.548391 -0.290473 2.387137 0
M  V30 16 C 1.069413 -0.532134 3.682959 0
M  V30 17 C 0.335205 -1.668174 3.953760 0
M  V30 18 C -0.135647 -1.866289 5.315918 0
M  V30 19 C -0.874255 -2.862943 5.916767 0
M  V30 20 N -1.064386 -2.606229 7.220945 0
M  V30 21 N -0.439305 -1.438504 7.438655 0
M  V30 22 N 0.117543 -0.990111 6.307068 0
M  V30 23 H -0.016460 -5.179134 1.801434 0
M  V30 24 H -1.688624 -5.329907 2.417535 0
M  V30 25 H -1.301378 -4.102514 1.204291 0
M  V30 26 H 0.373677 -3.002145 0.817175 0
M  V30 27 H 2.715388 -1.326371 -0.325735 0
M  V30 28 H 0.463296 -0.456153 -2.919482 0
M  V30 29 H 2.227064 -1.671325 -2.479729 0
M  V30 30 H 2.702304 -0.398075 -3.450039 0
M  V30 31 H 1.815113 1.416490 -3.646060 0
M  V30 32 H 2.313222 1.806707 -2.008175 0
M  V30 33 H 0.865051 3.461769 -2.774337 0
M  V30 34 H -0.287239 3.836512 -0.868669 0
M  V30 35 H -1.081089 2.273367 -0.840778 0
M  V30 36 H 0.688013 2.498488 -0.288339 0
M  V30 37 H -1.711621 2.061407 -2.733836 0
M  V30 38 H -1.136536 3.328212 -3.813062 0
M  V30 39 H -0.752223 1.622244 -4.141539 0
M  V30 40 H 2.129704 0.604987 2.163728 0
M  V30 41 H 1.333674 0.242775 4.405630 0
M  V30 42 H -1.238989 -3.720010 5.396248 0
M  V30 43 H -0.393492 -0.942131 8.374594 0
M  V30 END ATOM
M  V30 BEGIN BOND
M  V30 1 1 1 2
M  V30 2 1 2 3
M  V30 3 2 3 4
M  V30 4 1 4 5
M  V30 5 1 5 6
M  V30 6 1 6 7
M  V30 7 2 7 8
M  V30 8 1 7 9
M  V30 9 1 9 10
M  V30 10 1 9 11
M  V30 11 1 11 12
M  V30 12 1 12 13
M  V30 13 1 12 14
M  V30 14 2 5 15
M  V30 15 1 15 16
M  V30 16 2 16 17
M  V30 17 1 17 18
M  V30 18 1 18 19
M  V30 19 2 19 20
M  V30 20 1 20 21
M  V30 21 1 21 22
M  V30 22 1 17 3
M  V30 23 2 22 18
M  V30 24 1 1 23
M  V30 25 1 1 24
M  V30 26 1 1 25
M  V30 27 1 4 26
M  V30 28 1 6 27
M  V30 29 1 9 28 CFG=3
M  V30 30 1 10 29
M  V30 31 1 10 30
M  V30 32 1 11 31
M  V30 33 1 11 32
M  V30 34 1 12 33
M  V30 35 1 13 34
M  V30 36 1 13 35
M  V30 37 1 13 36
M  V30 38 1 14 37
M  V30 39 1 14 38
M  V30 40 1 14 39
M  V30 41 1 15 40
M  V30 42 1 16 41
M  V30 43 1 19 42
M  V30 44 1 21 43
M  V30 END BOND
M  V30 END CTAB
M  END
>  <Dataset>  (275) 
ChEMBL_Kinases

>  <Ligand_Instance>  (275) 
nan

>  <PDB_ID>  (275) 
nan

>  <Standardized_SMILES>  (275) 
COc1cc(NC(=O)[C@H](N)CC(C)C)ccc1-c1cn[nH]n1

>  <Name>  (275) 
nan

>  <Pocket>  (275) 
nan

>  <ATP_Site>  (275) 
nan

>  <Peripheral>  (275) 
nan

>  <Num_H_Atoms_ProtBoundConf>  (275) 
nan

>  <Num_Resolved_Atoms>  (275) 
nan

>  <Num_Not_Resolved_Atoms>  (275) 
nan

$$$$
CHEMBL4854839
     RDKit          3D

  0  0  0  0  0  0  0  0  0  0999 V3000
M  V30 BEGIN CTAB
M  V30 COUNTS 48 51 0 0 0
M  V30 BEGIN ATOM
M  V30 1 O 1.332254 -1.675101 0.484197 0
M  V30 2 C 0.331872 -1.224485 1.138389 0
M  V30 3 N 0.687761 -0.062239 1.821396 0
M  V30 4 C 1.993166 0.564394 1.808952 0 CFG=2
M  V30 5 C 2.635042 0.569823 3.148418 0
M  V30 6 N 3.410801 1.712348 3.490899 0
M  V30 7 C 4.088367 2.221588 2.312282 0
M  V30 8 C 2.978992 2.871784 1.493062 0
M  V30 9 C 1.920265 1.898766 1.111701 0 CFG=1
M  V30 10 C 1.880108 1.716077 -0.385014 0
M  V30 11 C 0.753217 2.099827 -1.089977 0
M  V30 12 C 0.710950 1.933372 -2.472505 0
M  V30 13 C 1.765858 1.392888 -3.171535 0
M  V30 14 F 1.646031 1.263247 -4.524791 0
M  V30 15 C 2.890993 1.010709 -2.460338 0
M  V30 16 F 3.923775 0.480271 -3.154494 0
M  V30 17 C 2.919710 1.181699 -1.086869 0
M  V30 18 C -0.963152 -1.885957 1.123362 0
M  V30 19 C -1.039630 -3.047851 0.344156 0
M  V30 20 C -2.197466 -3.771639 0.238866 0
M  V30 21 C -3.349209 -3.396752 0.893064 0
M  V30 22 C -4.560855 -4.192372 0.756268 0
M  V30 23 C -5.781967 -3.943270 1.346304 0
M  V30 24 C -6.600872 -4.982098 0.906532 0
M  V30 25 N -5.883744 -5.804548 0.091545 0
M  V30 26 N -4.642653 -5.308919 0.010663 0
M  V30 27 C -3.299095 -2.258807 1.664698 0
M  V30 28 C -2.140250 -1.555663 1.755322 0
M  V30 29 F -2.079776 -0.440673 2.507429 0
M  V30 30 H -0.023777 0.424485 2.401702 0
M  V30 31 H 2.663792 -0.052469 1.154123 0
M  V30 32 H 1.790438 0.535968 3.898970 0
M  V30 33 H 3.219386 -0.345930 3.372266 0
M  V30 34 H 4.149495 1.427983 4.168390 0
M  V30 35 H 4.810509 3.025979 2.556876 0
M  V30 36 H 4.539507 1.410287 1.703903 0
M  V30 37 H 3.363695 3.374111 0.579926 0
M  V30 38 H 2.546733 3.643148 2.161107 0
M  V30 39 H 0.933037 2.346732 1.346004 0
M  V30 40 H -0.108769 2.529660 -0.607119 0
M  V30 41 H -0.187868 2.243879 -3.001367 0
M  V30 42 H 3.817622 0.867946 -0.584733 0
M  V30 43 H -0.161144 -3.404807 -0.204048 0
M  V30 44 H -2.198137 -4.660388 -0.376937 0
M  V30 45 H -6.017202 -3.113119 2.001855 0
M  V30 46 H -7.637069 -5.071392 1.198838 0
M  V30 47 H -3.918776 -5.805358 -0.580762 0
M  V30 48 H -4.167940 -1.910347 2.203749 0
M  V30 END ATOM
M  V30 BEGIN BOND
M  V30 1 2 1 2
M  V30 2 1 2 3
M  V30 3 1 3 4
M  V30 4 1 4 5
M  V30 5 1 5 6
M  V30 6 1 6 7
M  V30 7 1 7 8
M  V30 8 1 8 9
M  V30 9 1 9 10
M  V30 10 2 10 11
M  V30 11 1 11 12
M  V30 12 2 12 13
M  V30 13 1 13 14
M  V30 14 1 13 15
M  V30 15 1 15 16
M  V30 16 2 15 17
M  V30 17 1 2 18
M  V30 18 2 18 19
M  V30 19 1 19 20
M  V30 20 2 20 21
M  V30 21 1 21 22
M  V30 22 2 22 23
M  V30 23 1 23 24
M  V30 24 2 24 25
M  V30 25 1 25 26
M  V30 26 1 21 27
M  V30 27 2 27 28
M  V30 28 1 28 29
M  V30 29 1 9 4
M  V30 30 1 17 10
M  V30 31 1 28 18
M  V30 32 1 26 22
M  V30 33 1 3 30
M  V30 34 1 4 31 CFG=3
M  V30 35 1 5 32
M  V30 36 1 5 33
M  V30 37 1 6 34
M  V30 38 1 7 35
M  V30 39 1 7 36
M  V30 40 1 8 37
M  V30 41 1 8 38
M  V30 42 1 9 39 CFG=1
M  V30 43 1 11 40
M  V30 44 1 12 41
M  V30 45 1 17 42
M  V30 46 1 19 43
M  V30 47 1 20 44
M  V30 48 1 23 45
M  V30 49 1 24 46
M  V30 50 1 26 47
M  V30 51 1 27 48
M  V30 END BOND
M  V30 END CTAB
M  END
>  <Dataset>  (276) 
ChEMBL_Kinases

>  <Ligand_Instance>  (276) 
nan

>  <PDB_ID>  (276) 
nan

>  <Standardized_SMILES>  (276) 
O=C(N[C@@H]1CNCC[C@H]1c1ccc(F)c(F)c1)c1ccc(-c2ccn[nH]2)cc1F

>  <Name>  (276) 
nan

>  <Pocket>  (276) 
nan

>  <ATP_Site>  (276) 
nan

>  <Peripheral>  (276) 
nan

>  <Num_H_Atoms_ProtBoundConf>  (276) 
nan

>  <Num_Resolved_Atoms>  (276) 
nan

>  <Num_Not_Resolved_Atoms>  (276) 
nan

$$$$
CHEMBL4854891
     RDKit          3D

  0  0  0  0  0  0  0  0  0  0999 V3000
M  V30 BEGIN CTAB
M  V30 COUNTS 40 41 0 0 0
M  V30 BEGIN ATOM
M  V30 1 C 0.343841 -6.184668 1.432108 0
M  V30 2 N -0.579513 -5.169054 1.902789 0
M  V30 3 C -0.577010 -3.771377 1.630582 0
M  V30 4 N 0.386883 -3.284543 0.839936 0
M  V30 5 C 0.509690 -2.005883 0.503823 0
M  V30 6 N 1.562201 -1.561007 -0.342530 0
M  V30 7 C 1.866474 -0.255612 -0.815778 0
M  V30 8 C 2.963348 -0.069097 -1.640207 0
M  V30 9 N 3.281929 1.145615 -2.106154 0
M  V30 10 C 2.576926 2.242326 -1.813360 0
M  V30 11 C 2.998808 3.500700 -2.362114 0
M  V30 12 N 3.354928 4.534583 -2.795756 0
M  V30 13 C 1.451361 2.145818 -0.985493 0
M  V30 14 N 0.706491 3.316937 -0.704359 0
M  V30 15 C -0.457277 3.668916 0.077634 0
M  V30 16 C -0.207128 3.717458 1.565125 0
M  V30 17 N 0.235552 2.510628 2.165368 0
M  V30 18 C 1.161269 0.892724 -0.533271 0
M  V30 19 N -0.428425 -1.207512 1.027192 0
M  V30 20 C -1.435453 -1.575898 1.826089 0
M  V30 21 C -1.518030 -2.912715 2.144387 0
M  V30 22 C -2.582556 -3.436590 3.014869 0
M  V30 23 F -3.320257 -4.382051 2.302628 0
M  V30 24 F -3.488452 -2.420479 3.310741 0
M  V30 25 F -2.127929 -3.985334 4.188357 0
M  V30 26 H 0.917586 -6.573690 2.302362 0
M  V30 27 H 1.039696 -5.706965 0.718364 0
M  V30 28 H -0.181749 -7.034624 0.930524 0
M  V30 29 H -1.318296 -5.555429 2.511343 0
M  V30 30 H 2.223156 -2.329408 -0.670542 0
M  V30 31 H 3.617363 -0.875635 -1.952667 0
M  V30 32 H 1.061267 4.205219 -1.167882 0
M  V30 33 H -1.251326 2.851211 -0.032429 0
M  V30 34 H -0.982955 4.563044 -0.288236 0
M  V30 35 H 0.548182 4.502723 1.807847 0
M  V30 36 H -1.154452 4.092766 2.024859 0
M  V30 37 H -0.364353 2.154020 2.933138 0
M  V30 38 H 1.228758 2.494227 2.456872 0
M  V30 39 H 0.304255 0.783049 0.085122 0
M  V30 40 H -2.161323 -0.872840 2.214542 0
M  V30 END ATOM
M  V30 BEGIN BOND
M  V30 1 1 1 2
M  V30 2 1 2 3
M  V30 3 2 3 4
M  V30 4 1 4 5
M  V30 5 1 5 6
M  V30 6 1 6 7
M  V30 7 2 7 8
M  V30 8 1 8 9
M  V30 9 2 9 10
M  V30 10 1 10 11
M  V30 11 3 11 12
M  V30 12 1 10 13
M  V30 13 1 13 14
M  V30 14 1 14 15
M  V30 15 1 15 16
M  V30 16 1 16 17
M  V30 17 2 13 18
M  V30 18 2 5 19
M  V30 19 1 19 20
M  V30 20 2 20 21
M  V30 21 1 21 22
M  V30 22 1 22 23
M  V30 23 1 22 24
M  V30 24 1 22 25
M  V30 25 1 21 3
M  V30 26 1 18 7
M  V30 27 1 1 26
M  V30 28 1 1 27
M  V30 29 1 1 28
M  V30 30 1 2 29
M  V30 31 1 6 30
M  V30 32 1 8 31
M  V30 33 1 14 32
M  V30 34 1 15 33
M  V30 35 1 15 34
M  V30 36 1 16 35
M  V30 37 1 16 36
M  V30 38 1 17 37
M  V30 39 1 17 38
M  V30 40 1 18 39
M  V30 41 1 20 40
M  V30 END BOND
M  V30 END CTAB
M  END
>  <Dataset>  (277) 
ChEMBL_Kinases

>  <Ligand_Instance>  (277) 
nan

>  <PDB_ID>  (277) 
nan

>  <Standardized_SMILES>  (277) 
CNc1nc(Nc2cnc(C#N)c(NCCN)c2)ncc1C(F)(F)F

>  <Name>  (277) 
nan

>  <Pocket>  (277) 
nan

>  <ATP_Site>  (277) 
nan

>  <Peripheral>  (277) 
nan

>  <Num_H_Atoms_ProtBoundConf>  (277) 
nan

>  <Num_Resolved_Atoms>  (277) 
nan

>  <Num_Not_Resolved_Atoms>  (277) 
nan

$$$$
CHEMBL4854898
     RDKit          3D

  0  0  0  0  0  0  0  0  0  0999 V3000
M  V30 BEGIN CTAB
M  V30 COUNTS 42 46 0 0 0
M  V30 BEGIN ATOM
M  V30 1 C 2.012519 -3.907402 2.921280 0
M  V30 2 C 2.859309 -5.014467 2.904920 0
M  V30 3 N 3.720697 -5.089075 1.893000 0
M  V30 4 N 3.793570 -4.185468 0.946161 0
M  V30 5 N 4.604745 -4.181175 -0.077283 0
M  V30 6 C 4.406917 -3.101539 -0.850504 0
M  V30 7 C 3.392282 -2.410627 -0.229361 0
M  V30 8 C 2.779628 -1.155528 -0.647370 0
M  V30 9 C 3.193368 -0.490096 -1.797046 0
M  V30 10 C 2.644253 0.707412 -2.240439 0
M  V30 11 N 1.642802 1.215959 -1.463392 0
M  V30 12 C 1.223701 0.597928 -0.351836 0
M  V30 13 N 0.173021 1.191310 0.406567 0
M  V30 14 C -0.511709 2.435758 0.088414 0
M  V30 15 C -1.950556 1.970714 0.198310 0
M  V30 16 C -1.870605 0.992058 1.347252 0
M  V30 17 C -2.687973 -0.258469 1.069336 0
M  V30 18 C -4.060698 0.379128 1.165480 0
M  V30 19 O -3.980760 1.362597 2.119409 0
M  V30 20 C -2.662522 1.550393 2.483772 0
M  V30 21 C -0.440411 0.708207 1.634945 0
M  V30 22 N 1.771347 -0.560307 0.056237 0
M  V30 23 C 3.012605 -3.097206 0.897591 0
M  V30 24 C 2.087339 -2.946701 1.917955 0
M  V30 25 H 1.301946 -3.816420 3.728206 0
M  V30 26 H 2.830332 -5.776712 3.662776 0
M  V30 27 H 4.900818 -2.804724 -1.752103 0
M  V30 28 H 3.994816 -0.969562 -2.350348 0
M  V30 29 H 3.001629 1.186401 -3.142838 0
M  V30 30 H -0.253390 2.814367 -0.923098 0
M  V30 31 H -0.242964 3.139226 0.896404 0
M  V30 32 H -2.608808 2.832652 0.426969 0
M  V30 33 H -2.220261 1.455899 -0.741122 0
M  V30 34 H -2.587757 -0.925711 1.927261 0
M  V30 35 H -2.477727 -0.700917 0.099266 0
M  V30 36 H -4.259149 0.822107 0.156817 0
M  V30 37 H -4.859026 -0.367088 1.327112 0
M  V30 38 H -2.455854 2.632206 2.687127 0
M  V30 39 H -2.493287 0.959141 3.422587 0
M  V30 40 H -0.196852 -0.330834 1.879249 0
M  V30 41 H -0.111954 1.430117 2.429031 0
M  V30 42 H 1.449509 -2.086097 1.905019 0
M  V30 END ATOM
M  V30 BEGIN BOND
M  V30 1 1 1 2
M  V30 2 2 2 3
M  V30 3 1 3 4
M  V30 4 1 4 5
M  V30 5 2 5 6
M  V30 6 1 6 7
M  V30 7 1 7 8
M  V30 8 2 8 9
M  V30 9 1 9 10
M  V30 10 2 10 11
M  V30 11 1 11 12
M  V30 12 1 12 13
M  V30 13 1 13 14
M  V30 14 1 14 15
M  V30 15 1 15 16
M  V30 16 1 16 17
M  V30 17 1 17 18
M  V30 18 1 18 19
M  V30 19 1 19 20
M  V30 20 1 16 21
M  V30 21 2 12 22
M  V30 22 2 7 23
M  V30 23 1 23 24
M  V30 24 2 24 1
M  V30 25 1 23 4
M  V30 26 1 22 8
M  V30 27 1 21 13
M  V30 28 1 20 16
M  V30 29 1 1 25
M  V30 30 1 2 26
M  V30 31 1 6 27
M  V30 32 1 9 28
M  V30 33 1 10 29
M  V30 34 1 14 30
M  V30 35 1 14 31
M  V30 36 1 15 32
M  V30 37 1 15 33
M  V30 38 1 17 34
M  V30 39 1 17 35
M  V30 40 1 18 36
M  V30 41 1 18 37
M  V30 42 1 20 38
M  V30 43 1 20 39
M  V30 44 1 21 40
M  V30 45 1 21 41
M  V30 46 1 24 42
M  V30 END BOND
M  V30 END CTAB
M  END
>  <Dataset>  (278) 
ChEMBL_Kinases

>  <Ligand_Instance>  (278) 
nan

>  <PDB_ID>  (278) 
nan

>  <Standardized_SMILES>  (278) 
c1cnn2ncc(-c3ccnc(N4CCC5(CCOC5)C4)n3)c2c1

>  <Name>  (278) 
nan

>  <Pocket>  (278) 
nan

>  <ATP_Site>  (278) 
nan

>  <Peripheral>  (278) 
nan

>  <Num_H_Atoms_ProtBoundConf>  (278) 
nan

>  <Num_Resolved_Atoms>  (278) 
nan

>  <Num_Not_Resolved_Atoms>  (278) 
nan

$$$$
CHEMBL4854949
     RDKit          3D

  0  0  0  0  0  0  0  0  0  0999 V3000
M  V30 BEGIN CTAB
M  V30 COUNTS 54 57 0 0 0
M  V30 BEGIN ATOM
M  V30 1 C 5.628950 -5.012377 2.634484 0
M  V30 2 S 3.859179 -5.006489 2.653648 0
M  V30 3 O 3.314033 -5.147485 4.043189 0
M  V30 4 O 3.376456 -6.137923 1.782035 0
M  V30 5 C 3.329684 -3.506942 1.918214 0
M  V30 6 C 3.153972 -2.424643 2.758178 0
M  V30 7 C 2.740158 -1.194260 2.291777 0
M  V30 8 C 2.481242 -0.990753 0.949975 0
M  V30 9 C 2.043450 0.304729 0.445200 0
M  V30 10 C 1.769418 0.610150 -0.808205 0
M  V30 11 C 1.326828 1.992330 -1.184030 0
M  V30 12 C 0.243218 2.491763 -0.303310 0
M  V30 13 C -0.932684 2.920490 -1.082084 0
M  V30 14 N -1.915289 3.384903 -0.150796 0
M  V30 15 C -2.810842 2.442432 0.450523 0
M  V30 16 C -3.767024 2.854517 1.349470 0
M  V30 17 C -4.556972 1.851993 1.848874 0
M  V30 18 N -4.443198 0.556229 1.516084 0
M  V30 19 C -3.515892 0.133682 0.640136 0
M  V30 20 C -3.491145 -1.288582 0.361175 0
M  V30 21 C -4.398797 -2.111202 0.994609 0
M  V30 22 C -4.455498 -3.473705 0.796691 0
M  V30 23 F -5.364135 -4.238468 1.441451 0
M  V30 24 C -3.585173 -4.100846 -0.067172 0
M  V30 25 C -2.659544 -3.320893 -0.723831 0
M  V30 26 C -2.650121 -1.966980 -0.486712 0
M  V30 27 F -1.715607 -1.268322 -1.165754 0
M  V30 28 C -2.723564 1.108085 0.133586 0
M  V30 29 C -1.211645 2.949219 -2.372458 0
M  V30 30 C -0.082553 2.438185 -3.134673 0
M  V30 31 N 0.980759 2.042157 -2.563780 0
M  V30 32 C 2.662039 -2.082066 0.127050 0
M  V30 33 C 3.075471 -3.321868 0.573455 0
M  V30 34 H 6.031549 -4.242155 3.334601 0
M  V30 35 H 6.045571 -6.020028 2.872638 0
M  V30 36 H 5.948358 -4.711799 1.609075 0
M  V30 37 H 3.330283 -2.471830 3.841339 0
M  V30 38 H 2.598391 -0.333243 2.946847 0
M  V30 39 H 1.924978 1.112005 1.155617 0
M  V30 40 H 1.881498 -0.182535 -1.534023 0
M  V30 41 H 2.281650 2.603084 -1.075773 0
M  V30 42 H -0.026734 1.786073 0.515845 0
M  V30 43 H 0.649109 3.405761 0.228785 0
M  V30 44 H -2.005959 4.389493 0.109403 0
M  V30 45 H -3.853165 3.887161 1.610778 0
M  V30 46 H -5.342728 2.113215 2.573573 0
M  V30 47 H -5.141687 -1.720874 1.705720 0
M  V30 48 H -3.649900 -5.159470 -0.203132 0
M  V30 49 H -1.963511 -3.784544 -1.407830 0
M  V30 50 H -1.965618 0.839633 -0.568445 0
M  V30 51 H -2.126074 3.295536 -2.779418 0
M  V30 52 H -0.138995 2.389612 -4.217265 0
M  V30 53 H 2.488391 -2.023805 -0.917877 0
M  V30 54 H 3.220379 -4.181802 -0.058758 0
M  V30 END ATOM
M  V30 BEGIN BOND
M  V30 1 1 1 2
M  V30 2 2 2 3
M  V30 3 2 2 4
M  V30 4 1 2 5
M  V30 5 2 5 6
M  V30 6 1 6 7
M  V30 7 2 7 8
M  V30 8 1 8 9
M  V30 9 2 9 10
M  V30 10 1 10 11
M  V30 11 1 11 12
M  V30 12 1 12 13
M  V30 13 1 13 14
M  V30 14 1 14 15
M  V30 15 2 15 16
M  V30 16 1 16 17
M  V30 17 2 17 18
M  V30 18 1 18 19
M  V30 19 1 19 20
M  V30 20 2 20 21
M  V30 21 1 21 22
M  V30 22 1 22 23
M  V30 23 2 22 24
M  V30 24 1 24 25
M  V30 25 2 25 26
M  V30 26 1 26 27
M  V30 27 2 19 28
M  V30 28 2 13 29
M  V30 29 1 29 30
M  V30 30 2 30 31
M  V30 31 1 8 32
M  V30 32 2 32 33
M  V30 33 1 33 5
M  V30 34 1 31 11
M  V30 35 1 28 15
M  V30 36 1 26 20
M  V30 37 1 1 34
M  V30 38 1 1 35
M  V30 39 1 1 36
M  V30 40 1 6 37
M  V30 41 1 7 38
M  V30 42 1 9 39
M  V30 43 1 10 40
M  V30 44 1 11 41
M  V30 45 1 12 42
M  V30 46 1 12 43
M  V30 47 1 14 44
M  V30 48 1 16 45
M  V30 49 1 17 46
M  V30 50 1 21 47
M  V30 51 1 24 48
M  V30 52 1 25 49
M  V30 53 1 28 50
M  V30 54 1 29 51
M  V30 55 1 30 52
M  V30 56 1 32 53
M  V30 57 1 33 54
M  V30 END BOND
M  V30 END CTAB
M  END
>  <Dataset>  (279) 
ChEMBL_Kinases

>  <Ligand_Instance>  (279) 
nan

>  <PDB_ID>  (279) 
nan

>  <Standardized_SMILES>  (279) 
CS(=O)(=O)c1ccc(/C=C/C2CC(Nc3ccnc(-c4cc(F)ccc4F)c3)=CC=N2)cc1

>  <Name>  (279) 
nan

>  <Pocket>  (279) 
nan

>  <ATP_Site>  (279) 
nan

>  <Peripheral>  (279) 
nan

>  <Num_H_Atoms_ProtBoundConf>  (279) 
nan

>  <Num_Resolved_Atoms>  (279) 
nan

>  <Num_Not_Resolved_Atoms>  (279) 
nan

$$$$
CHEMBL4854952
     RDKit          3D

  0  0  0  0  0  0  0  0  0  0999 V3000
M  V30 BEGIN CTAB
M  V30 COUNTS 32 35 0 0 0
M  V30 BEGIN ATOM
M  V30 1 O -0.800423 -2.923929 1.298431 0
M  V30 2 C -1.019131 -2.357944 2.404075 0
M  V30 3 N -0.064207 -1.374161 2.776284 0
M  V30 4 C 1.021300 -1.145709 1.860166 0
M  V30 5 N 2.161011 -1.863476 1.981896 0
M  V30 6 C 3.218269 -1.685586 1.140133 0
M  V30 7 C 3.183134 -0.761694 0.116024 0
M  V30 8 C 2.012174 -0.035095 0.003235 0
M  V30 9 C 0.925030 -0.205478 0.854609 0
M  V30 10 N -0.061617 0.649001 0.485484 0
M  V30 11 C 0.398416 1.347867 -0.583957 0
M  V30 12 C -0.255919 2.336441 -1.306138 0
M  V30 13 C 0.387814 2.933312 -2.371476 0
M  V30 14 Cl -0.318450 4.197938 -3.374551 0
M  V30 15 C 1.664688 2.549551 -2.710778 0
M  V30 16 C 2.320995 1.566739 -1.996310 0
M  V30 17 C 1.686095 0.949652 -0.913453 0
M  V30 18 C -2.208559 -2.746179 3.200330 0
M  V30 19 C -3.505394 -3.046932 2.463922 0
M  V30 20 C -2.666684 -4.164225 2.983629 0
M  V30 21 H -0.238212 -0.890365 3.706355 0
M  V30 22 H 4.135665 -2.275037 1.251359 0
M  V30 23 H 3.989705 -0.589617 -0.567286 0
M  V30 24 H -0.979749 0.713995 0.968153 0
M  V30 25 H -1.264966 2.686529 -1.090961 0
M  V30 26 H 2.264886 2.955987 -3.534256 0
M  V30 27 H 3.320412 1.174547 -2.157979 0
M  V30 28 H -2.372674 -2.240975 4.151116 0
M  V30 29 H -3.463605 -2.761421 1.390754 0
M  V30 30 H -4.476103 -2.820716 2.953484 0
M  V30 31 H -2.152835 -4.773652 2.228265 0
M  V30 32 H -3.143181 -4.743669 3.796816 0
M  V30 END ATOM
M  V30 BEGIN BOND
M  V30 1 2 1 2
M  V30 2 1 2 3
M  V30 3 1 3 4
M  V30 4 2 4 5
M  V30 5 1 5 6
M  V30 6 2 6 7
M  V30 7 1 7 8
M  V30 8 2 8 9
M  V30 9 1 9 10
M  V30 10 1 10 11
M  V30 11 2 11 12
M  V30 12 1 12 13
M  V30 13 1 13 14
M  V30 14 2 13 15
M  V30 15 1 15 16
M  V30 16 2 16 17
M  V30 17 1 2 18
M  V30 18 1 18 19
M  V30 19 1 19 20
M  V30 20 1 9 4
M  V30 21 1 17 11
M  V30 22 1 20 18
M  V30 23 1 17 8
M  V30 24 1 3 21
M  V30 25 1 6 22
M  V30 26 1 7 23
M  V30 27 1 10 24
M  V30 28 1 12 25
M  V30 29 1 15 26
M  V30 30 1 16 27
M  V30 31 1 18 28
M  V30 32 1 19 29
M  V30 33 1 19 30
M  V30 34 1 20 31
M  V30 35 1 20 32
M  V30 END BOND
M  V30 END CTAB
M  END
>  <Dataset>  (280) 
ChEMBL_Kinases

>  <Ligand_Instance>  (280) 
nan

>  <PDB_ID>  (280) 
nan

>  <Standardized_SMILES>  (280) 
O=C(Nc1nccc2c1[nH]c1cc(Cl)ccc12)C1CC1

>  <Name>  (280) 
nan

>  <Pocket>  (280) 
nan

>  <ATP_Site>  (280) 
nan

>  <Peripheral>  (280) 
nan

>  <Num_H_Atoms_ProtBoundConf>  (280) 
nan

>  <Num_Resolved_Atoms>  (280) 
nan

>  <Num_Not_Resolved_Atoms>  (280) 
nan

$$$$
CHEMBL4079704
     RDKit          3D

  0  0  0  0  0  0  0  0  0  0999 V3000
M  V30 BEGIN CTAB
M  V30 COUNTS 66 67 0 0 0
M  V30 BEGIN ATOM
M  V30 1 C 4.875133 -5.070190 0.399301 0
M  V30 2 C 4.245599 -5.474092 -0.918001 0
M  V30 3 C 5.076204 -5.009378 -2.095184 0
M  V30 4 C 5.243976 -3.529604 -2.132168 0
M  V30 5 C 3.902190 -2.778328 -2.231258 0
M  V30 6 C 3.163937 -3.147338 -3.456271 0
M  V30 7 C 1.815416 -2.613528 -3.711145 0
M  V30 8 C 1.514276 -1.182489 -3.831267 0
M  V30 9 C 1.701079 -0.349557 -2.619606 0
M  V30 10 C 1.299399 1.118671 -2.935093 0
M  V30 11 C 1.497270 1.934342 -1.690692 0
M  V30 12 C 0.601102 1.376526 -0.627283 0
M  V30 13 O -0.292248 0.504105 -0.343217 0
M  V30 14 N 0.731414 2.034810 0.636214 0
M  V30 15 N -0.160817 1.428015 1.561909 0
M  V30 16 C -1.469636 1.963108 1.677364 0
M  V30 17 O -1.567033 2.939303 0.870058 0
M  V30 18 C -2.556798 1.528708 2.538825 0
M  V30 19 C -2.616077 0.515638 3.461170 0
M  V30 20 O -1.463794 -0.214341 3.606600 0
M  V30 21 C -3.717707 0.224372 4.197740 0
M  V30 22 C -3.651861 -0.816261 5.090536 0
M  V30 23 C -4.739050 -1.152280 5.861091 0
M  V30 24 C -5.894653 -0.414749 5.710737 0
M  V30 25 Cl -7.308741 -0.808764 6.672985 0
M  V30 26 C -5.938836 0.627700 4.807015 0
M  V30 27 C -4.854465 0.985384 4.018493 0
M  V30 28 N -4.826315 1.976334 3.129271 0
M  V30 29 C -6.028019 2.749605 2.964734 0
M  V30 30 C -6.006747 3.917333 3.928290 0
M  V30 31 C -3.727768 2.253755 2.406212 0
M  V30 32 O -3.825858 3.228672 1.586287 0
M  V30 33 H 4.345762 -5.579368 1.221384 0
M  V30 34 H 5.939034 -5.348645 0.449077 0
M  V30 35 H 4.702792 -3.971053 0.517956 0
M  V30 36 H 3.207767 -5.133508 -0.949464 0
M  V30 37 H 4.247610 -6.586375 -0.936324 0
M  V30 38 H 6.099990 -5.434913 -1.912534 0
M  V30 39 H 4.689610 -5.470462 -3.008819 0
M  V30 40 H 5.795335 -3.279604 -3.055386 0
M  V30 41 H 5.780260 -3.201206 -1.236060 0
M  V30 42 H 4.282300 -1.707072 -2.311603 0
M  V30 43 H 3.290409 -2.859947 -1.342586 0
M  V30 44 H 3.836877 -2.984746 -4.376200 0
M  V30 45 H 3.110300 -4.297125 -3.457959 0
M  V30 46 H 1.395532 -3.146114 -4.652880 0
M  V30 47 H 1.084963 -3.042811 -2.929749 0
M  V30 48 H 0.434821 -1.108375 -4.166079 0
M  V30 49 H 2.060665 -0.742389 -4.727396 0
M  V30 50 H 2.705338 -0.310921 -2.236295 0
M  V30 51 H 0.954660 -0.686340 -1.858292 0
M  V30 52 H 1.948424 1.497515 -3.745302 0
M  V30 53 H 0.237564 1.053339 -3.209120 0
M  V30 54 H 2.510574 1.885710 -1.295712 0
M  V30 55 H 1.145861 2.985737 -1.858663 0
M  V30 56 H 1.357889 2.847569 0.935092 0
M  V30 57 H 0.076575 0.612535 2.166339 0
M  V30 58 H -1.494544 -1.233043 3.528398 0
M  V30 59 H -2.762610 -1.414439 5.232417 0
M  V30 60 H -4.702814 -1.965369 6.565855 0
M  V30 61 H -6.836260 1.189644 4.701439 0
M  V30 62 H -6.960471 2.187234 2.939499 0
M  V30 63 H -5.960535 3.228844 1.942854 0
M  V30 64 H -5.255368 4.644494 3.544013 0
M  V30 65 H -6.979147 4.455466 3.945582 0
M  V30 66 H -5.752953 3.595953 4.960111 0
M  V30 END ATOM
M  V30 BEGIN BOND
M  V30 1 1 1 2
M  V30 2 1 2 3
M  V30 3 1 3 4
M  V30 4 1 4 5
M  V30 5 1 5 6
M  V30 6 1 6 7
M  V30 7 1 7 8
M  V30 8 1 8 9
M  V30 9 1 9 10
M  V30 10 1 10 11
M  V30 11 1 11 12
M  V30 12 2 12 13
M  V30 13 1 12 14
M  V30 14 1 14 15
M  V30 15 1 15 16
M  V30 16 2 16 17
M  V30 17 1 16 18
M  V30 18 2 18 19
M  V30 19 1 19 20
M  V30 20 1 19 21
M  V30 21 2 21 22
M  V30 22 1 22 23
M  V30 23 2 23 24
M  V30 24 1 24 25
M  V30 25 1 24 26
M  V30 26 2 26 27
M  V30 27 1 27 28
M  V30 28 1 28 29
M  V30 29 1 29 30
M  V30 30 1 28 31
M  V30 31 2 31 32
M  V30 32 1 31 18
M  V30 33 1 27 21
M  V30 34 1 1 33
M  V30 35 1 1 34
M  V30 36 1 1 35
M  V30 37 1 2 36
M  V30 38 1 2 37
M  V30 39 1 3 38
M  V30 40 1 3 39
M  V30 41 1 4 40
M  V30 42 1 4 41
M  V30 43 1 5 42
M  V30 44 1 5 43
M  V30 45 1 6 44
M  V30 46 1 6 45
M  V30 47 1 7 46
M  V30 48 1 7 47
M  V30 49 1 8 48
M  V30 50 1 8 49
M  V30 51 1 9 50
M  V30 52 1 9 51
M  V30 53 1 10 52
M  V30 54 1 10 53
M  V30 55 1 11 54
M  V30 56 1 11 55
M  V30 57 1 14 56
M  V30 58 1 15 57
M  V30 59 1 20 58
M  V30 60 1 22 59
M  V30 61 1 23 60
M  V30 62 1 26 61
M  V30 63 1 29 62
M  V30 64 1 29 63
M  V30 65 1 30 64
M  V30 66 1 30 65
M  V30 67 1 30 66
M  V30 END BOND
M  V30 END CTAB
M  END
>  <Dataset>  (281) 
ChEMBL_Kinases

>  <Ligand_Instance>  (281) 
nan

>  <PDB_ID>  (281) 
nan

>  <Standardized_SMILES>  (281) 
CCCCCCCCCCCC(=O)NNC(=O)c1c(O)c2ccc(Cl)cc2n(CC)c1=O

>  <Name>  (281) 
nan

>  <Pocket>  (281) 
nan

>  <ATP_Site>  (281) 
nan

>  <Peripheral>  (281) 
nan

>  <Num_H_Atoms_ProtBoundConf>  (281) 
nan

>  <Num_Resolved_Atoms>  (281) 
nan

>  <Num_Not_Resolved_Atoms>  (281) 
nan

$$$$
CHEMBL407960
     RDKit          3D

  0  0  0  0  0  0  0  0  0  0999 V3000
M  V30 BEGIN CTAB
M  V30 COUNTS 48 51 0 0 0
M  V30 BEGIN ATOM
M  V30 1 C 1.269166 -5.093051 3.121434 0
M  V30 2 O 2.496023 -4.725800 2.516812 0
M  V30 3 C 2.841910 -3.427431 2.239640 0
M  V30 4 C 4.067441 -3.212176 1.648960 0
M  V30 5 C 4.419620 -1.912594 1.369195 0
M  V30 6 C 3.606291 -0.842294 1.653235 0
M  V30 7 O 3.916162 0.468400 1.395849 0
M  V30 8 C 5.081628 0.962166 0.809523 0
M  V30 9 C 2.376880 -1.007880 2.240422 0
M  V30 10 C 1.303639 -0.070170 2.629690 0
M  V30 11 N 0.442736 0.353298 1.553417 0
M  V30 12 C 0.516143 1.104104 0.359030 0
M  V30 13 N 1.585514 1.722085 -0.146145 0
M  V30 14 N 1.344915 2.352798 -1.274130 0
M  V30 15 C 0.046504 2.126495 -1.505939 0
M  V30 16 C -0.791301 2.519626 -2.526437 0
M  V30 17 C -2.126616 2.173544 -2.582986 0
M  V30 18 N -2.634461 1.409254 -1.583727 0
M  V30 19 C -1.860612 1.001841 -0.569756 0
M  V30 20 O -2.401273 0.224016 0.436230 0
M  V30 21 C -3.746733 -0.149871 0.417001 0
M  V30 22 C -3.938127 -1.362754 -0.248286 0
M  V30 23 C -5.205758 -1.912903 -0.379578 0
M  V30 24 C -6.282415 -1.243852 0.158182 0
M  V30 25 C -6.091770 -0.042087 0.817172 0
M  V30 26 C -4.839970 0.511626 0.952668 0
M  V30 27 C -0.535744 1.356016 -0.530946 0
M  V30 28 C 2.022249 -2.335695 2.524398 0
M  V30 29 H 1.232131 -4.802065 4.195366 0
M  V30 30 H 1.145963 -6.188581 2.998980 0
M  V30 31 H 0.432471 -4.597918 2.595117 0
M  V30 32 H 4.723898 -4.027315 1.414714 0
M  V30 33 H 5.363802 -1.659803 0.906600 0
M  V30 34 H 5.867991 1.018655 1.593541 0
M  V30 35 H 4.869964 2.029927 0.509808 0
M  V30 36 H 5.396232 0.363075 -0.071867 0
M  V30 37 H 0.779673 -0.386060 3.543616 0
M  V30 38 H 1.840825 0.896310 2.938535 0
M  V30 39 H -0.516083 -0.042653 1.763391 0
M  V30 40 H 2.044916 2.892631 -1.823579 0
M  V30 41 H -0.363763 3.130010 -3.314281 0
M  V30 42 H -2.796504 2.473712 -3.376399 0
M  V30 43 H -3.145010 -1.955533 -0.701887 0
M  V30 44 H -5.360091 -2.863753 -0.900644 0
M  V30 45 H -7.248576 -1.683649 0.046091 0
M  V30 46 H -6.907920 0.504950 1.247732 0
M  V30 47 H -4.574756 1.435341 1.441792 0
M  V30 48 H 1.076821 -2.651206 2.993172 0
M  V30 END ATOM
M  V30 BEGIN BOND
M  V30 1 1 1 2
M  V30 2 1 2 3
M  V30 3 2 3 4
M  V30 4 1 4 5
M  V30 5 2 5 6
M  V30 6 1 6 7
M  V30 7 1 7 8
M  V30 8 1 6 9
M  V30 9 1 9 10
M  V30 10 1 10 11
M  V30 11 1 11 12
M  V30 12 2 12 13
M  V30 13 1 13 14
M  V30 14 1 14 15
M  V30 15 2 15 16
M  V30 16 1 16 17
M  V30 17 2 17 18
M  V30 18 1 18 19
M  V30 19 1 19 20
M  V30 20 1 20 21
M  V30 21 2 21 22
M  V30 22 1 22 23
M  V30 23 2 23 24
M  V30 24 1 24 25
M  V30 25 2 25 26
M  V30 26 2 19 27
M  V30 27 2 9 28
M  V30 28 1 28 3
M  V30 29 1 27 12
M  V30 30 1 27 15
M  V30 31 1 26 21
M  V30 32 1 1 29
M  V30 33 1 1 30
M  V30 34 1 1 31
M  V30 35 1 4 32
M  V30 36 1 5 33
M  V30 37 1 8 34
M  V30 38 1 8 35
M  V30 39 1 8 36
M  V30 40 1 10 37
M  V30 41 1 10 38
M  V30 42 1 11 39
M  V30 43 1 14 40
M  V30 44 1 16 41
M  V30 45 1 17 42
M  V30 46 1 22 43
M  V30 47 1 23 44
M  V30 48 1 24 45
M  V30 49 1 25 46
M  V30 50 1 26 47
M  V30 51 1 28 48
M  V30 END BOND
M  V30 END CTAB
M  END
>  <Dataset>  (282) 
ChEMBL_Kinases

>  <Ligand_Instance>  (282) 
nan

>  <PDB_ID>  (282) 
nan

>  <Standardized_SMILES>  (282) 
COc1ccc(OC)c(CNc2n[nH]c3ccnc(Oc4ccccc4)c23)c1

>  <Name>  (282) 
nan

>  <Pocket>  (282) 
nan

>  <ATP_Site>  (282) 
nan

>  <Peripheral>  (282) 
nan

>  <Num_H_Atoms_ProtBoundConf>  (282) 
nan

>  <Num_Resolved_Atoms>  (282) 
nan

>  <Num_Not_Resolved_Atoms>  (282) 
nan

$$$$
CHEMBL4854673
     RDKit          3D

  0  0  0  0  0  0  0  0  0  0999 V3000
M  V30 BEGIN CTAB
M  V30 COUNTS 55 60 0 0 0
M  V30 BEGIN ATOM
M  V30 1 C 5.936543 -3.635252 4.061222 0
M  V30 2 S 6.525102 -2.133576 3.273430 0
M  V30 3 O 7.585338 -2.533060 2.280034 0
M  V30 4 O 7.132416 -1.205754 4.254522 0
M  V30 5 C 5.189701 -1.441458 2.379884 0
M  V30 6 C 4.315840 -0.530137 2.978893 0
M  V30 7 C 3.252876 0.035018 2.300722 0
M  V30 8 C 3.057342 -0.324445 0.976260 0
M  V30 9 C 1.941367 0.254282 0.227906 0
M  V30 10 C 0.809227 0.543145 0.991830 0
M  V30 11 C -0.303351 1.092638 0.383574 0
M  V30 12 C -0.240973 1.333622 -0.973216 0
M  V30 13 C -1.393558 1.887778 -1.529175 0
M  V30 14 N -2.584897 2.208813 -0.815112 0
M  V30 15 C -3.183052 3.356619 -0.479785 0
M  V30 16 C -4.336238 3.068596 0.224537 0
M  V30 17 C -4.438120 1.696198 0.318088 0
M  V30 18 C -5.424153 0.948014 0.931845 0
M  V30 19 N -5.253244 -0.385407 0.859271 0
M  V30 20 C -4.201382 -0.944629 0.235936 0
M  V30 21 C -4.065938 -2.391769 0.186478 0
M  V30 22 C -4.999759 -3.217397 0.766673 0
M  V30 23 C -4.809571 -4.594078 0.683194 0
M  V30 24 F -5.699686 -5.482523 1.238148 0
M  V30 25 C -3.728489 -5.141648 0.045437 0
M  V30 26 C -2.758850 -4.331521 -0.555806 0
M  V30 27 C -2.994878 -2.979907 -0.444422 0
M  V30 28 F -2.070821 -2.150527 -1.018267 0
M  V30 29 N -3.270432 -0.167884 -0.345220 0
M  V30 30 C -3.322490 1.173984 -0.344760 0
M  V30 31 C -1.395156 2.156133 -2.900965 0
M  V30 32 C -0.256726 1.860641 -3.642423 0
M  V30 33 N 0.859785 1.319365 -3.080736 0
M  V30 34 C 0.862949 1.056815 -1.742262 0
M  V30 35 C 1.971724 0.507753 -1.128489 0
M  V30 36 C 3.893204 -1.231858 0.310897 0
M  V30 37 C 4.929536 -1.748664 1.060564 0
M  V30 38 H 5.810514 -4.446397 3.335441 0
M  V30 39 H 6.614880 -3.905753 4.912206 0
M  V30 40 H 4.931420 -3.455636 4.537983 0
M  V30 41 H 4.487605 -0.268751 4.002881 0
M  V30 42 H 2.604966 0.735556 2.807722 0
M  V30 43 H 0.740867 0.359276 2.069929 0
M  V30 44 H -1.175864 1.313794 0.980927 0
M  V30 45 H -2.744289 4.324647 -0.767156 0
M  V30 46 H -5.003640 3.841051 0.610455 0
M  V30 47 H -6.253818 1.408312 1.423132 0
M  V30 48 H -5.872012 -2.833321 1.282095 0
M  V30 49 H -3.556760 -6.221607 -0.032793 0
M  V30 50 H -1.880174 -4.691323 -1.076147 0
M  V30 51 H -2.233166 2.584950 -3.437872 0
M  V30 52 H -0.263077 2.072017 -4.711385 0
M  V30 53 H 2.869863 0.268619 -1.683104 0
M  V30 54 H 3.713700 -1.490118 -0.719604 0
M  V30 55 H 5.622882 -2.464172 0.603828 0
M  V30 END ATOM
M  V30 BEGIN BOND
M  V30 1 1 1 2
M  V30 2 2 2 3
M  V30 3 2 2 4
M  V30 4 1 2 5
M  V30 5 2 5 6
M  V30 6 1 6 7
M  V30 7 2 7 8
M  V30 8 1 8 9
M  V30 9 2 9 10
M  V30 10 1 10 11
M  V30 11 2 11 12
M  V30 12 1 12 13
M  V30 13 1 13 14
M  V30 14 1 14 15
M  V30 15 2 15 16
M  V30 16 1 16 17
M  V30 17 2 17 18
M  V30 18 1 18 19
M  V30 19 2 19 20
M  V30 20 1 20 21
M  V30 21 2 21 22
M  V30 22 1 22 23
M  V30 23 1 23 24
M  V30 24 2 23 25
M  V30 25 1 25 26
M  V30 26 2 26 27
M  V30 27 1 27 28
M  V30 28 1 20 29
M  V30 29 2 29 30
M  V30 30 2 13 31
M  V30 31 1 31 32
M  V30 32 2 32 33
M  V30 33 1 33 34
M  V30 34 2 34 35
M  V30 35 1 8 36
M  V30 36 2 36 37
M  V30 37 1 37 5
M  V30 38 1 35 9
M  V30 39 1 34 12
M  V30 40 1 30 14
M  V30 41 1 30 17
M  V30 42 1 27 21
M  V30 43 1 1 38
M  V30 44 1 1 39
M  V30 45 1 1 40
M  V30 46 1 6 41
M  V30 47 1 7 42
M  V30 48 1 10 43
M  V30 49 1 11 44
M  V30 50 1 15 45
M  V30 51 1 16 46
M  V30 52 1 18 47
M  V30 53 1 22 48
M  V30 54 1 25 49
M  V30 55 1 26 50
M  V30 56 1 31 51
M  V30 57 1 32 52
M  V30 58 1 35 53
M  V30 59 1 36 54
M  V30 60 1 37 55
M  V30 END BOND
M  V30 END CTAB
M  END
>  <Dataset>  (283) 
ChEMBL_Kinases

>  <Ligand_Instance>  (283) 
nan

>  <PDB_ID>  (283) 
nan

>  <Standardized_SMILES>  (283) 
CS(=O)(=O)c1ccc(-c2ccc3c(-n4ccc5cnc(-c6cc(F)ccc6F)nc54)ccnc3c2)cc1

>  <Name>  (283) 
nan

>  <Pocket>  (283) 
nan

>  <ATP_Site>  (283) 
nan

>  <Peripheral>  (283) 
nan

>  <Num_H_Atoms_ProtBoundConf>  (283) 
nan

>  <Num_Resolved_Atoms>  (283) 
nan

>  <Num_Not_Resolved_Atoms>  (283) 
nan

$$$$
CHEMBL4078489
     RDKit          3D

  0  0  0  0  0  0  0  0  0  0999 V3000
M  V30 BEGIN CTAB
M  V30 COUNTS 59 63 0 0 0
M  V30 BEGIN ATOM
M  V30 1 O -0.774317 -4.097324 -1.997192 0
M  V30 2 C -1.051961 -3.348627 -1.003965 0
M  V30 3 C -0.313545 -2.052212 -0.992288 0
M  V30 4 C 0.607090 -1.494054 -1.855568 0
M  V30 5 C 0.909723 -0.267710 -1.296456 0
M  V30 6 C 1.845199 0.712095 -1.840454 0
M  V30 7 C 2.543243 0.497439 -3.010897 0
M  V30 8 C 3.412345 1.505781 -3.437041 0
M  V30 9 N 3.578114 2.661998 -2.739170 0
M  V30 10 C 2.884463 2.846110 -1.599691 0
M  V30 11 N 2.974662 4.012131 -0.785977 0
M  V30 12 C 2.273070 4.281254 0.433560 0
M  V30 13 C 2.608770 5.620567 1.036729 0
M  V30 14 C 1.847108 5.679308 2.363201 0
M  V30 15 O 0.500767 5.453533 2.231291 0
M  V30 16 C 0.247842 4.165536 1.733746 0
M  V30 17 C 0.757068 4.202403 0.286340 0
M  V30 18 N 2.049208 1.872555 -1.193765 0
M  V30 19 N 0.230749 -0.051856 -0.152285 0
M  V30 20 C -0.524739 -1.138753 0.048382 0
M  V30 21 C -1.482842 -1.504299 1.139905 0
M  V30 22 C -2.518338 -2.452102 0.626534 0
M  V30 23 N -1.990050 -3.663070 0.059765 0
M  V30 24 C -2.194417 -5.078157 0.286822 0 CFG=2
M  V30 25 C -3.617467 -5.504073 0.205526 0
M  V30 26 O -4.172421 -5.238118 -1.044398 0
M  V30 27 C -1.665318 -5.529672 1.626223 0
M  V30 28 C -0.922462 -6.713912 1.668724 0
M  V30 29 C -0.349429 -7.308748 2.769688 0
M  V30 30 C -0.535889 -6.651835 3.964675 0
M  V30 31 C -1.256503 -5.479090 4.004044 0
M  V30 32 C -1.797819 -4.947634 2.862069 0
M  V30 33 H 0.989045 -1.939245 -2.760715 0
M  V30 34 H 2.414207 -0.412582 -3.562218 0
M  V30 35 H 3.983177 1.378630 -4.355070 0
M  V30 36 H 3.642310 4.761562 -1.133709 0
M  V30 37 H 2.550744 3.503100 1.183733 0
M  V30 38 H 3.689978 5.670724 1.298836 0
M  V30 39 H 2.307777 6.473814 0.427579 0
M  V30 40 H 1.994599 6.685011 2.797822 0
M  V30 41 H 2.239791 4.947634 3.093649 0
M  V30 42 H -0.812041 3.919488 1.790596 0
M  V30 43 H 0.799493 3.399237 2.321591 0
M  V30 44 H 0.353946 5.171297 -0.122912 0
M  V30 45 H 0.412270 3.355944 -0.305795 0
M  V30 46 H 0.264100 0.781992 0.473934 0
M  V30 47 H -0.964134 -1.978768 2.003868 0
M  V30 48 H -1.998197 -0.576771 1.458320 0
M  V30 49 H -3.041719 -1.895787 -0.217945 0
M  V30 50 H -3.338250 -2.595039 1.358212 0
M  V30 51 H -1.584420 -5.610062 -0.480212 0
M  V30 52 H -3.619963 -6.621725 0.288404 0
M  V30 53 H -4.221677 -5.156904 1.054476 0
M  V30 54 H -5.017798 -5.784488 -1.089772 0
M  V30 55 H -0.766394 -7.248183 0.723014 0
M  V30 56 H 0.205361 -8.230852 2.675081 0
M  V30 57 H -0.116174 -7.057197 4.872557 0
M  V30 58 H -1.438244 -4.911640 4.924698 0
M  V30 59 H -2.360820 -4.033595 2.893451 0
M  V30 END ATOM
M  V30 BEGIN BOND
M  V30 1 2 1 2
M  V30 2 1 2 3
M  V30 3 1 3 4
M  V30 4 2 4 5
M  V30 5 1 5 6
M  V30 6 2 6 7
M  V30 7 1 7 8
M  V30 8 2 8 9
M  V30 9 1 9 10
M  V30 10 1 10 11
M  V30 11 1 11 12
M  V30 12 1 12 13
M  V30 13 1 13 14
M  V30 14 1 14 15
M  V30 15 1 15 16
M  V30 16 1 16 17
M  V30 17 2 10 18
M  V30 18 1 5 19
M  V30 19 1 19 20
M  V30 20 1 20 21
M  V30 21 1 21 22
M  V30 22 1 22 23
M  V30 23 1 23 24
M  V30 24 1 24 25
M  V30 25 1 25 26
M  V30 26 1 24 27
M  V30 27 2 27 28
M  V30 28 1 28 29
M  V30 29 2 29 30
M  V30 30 1 30 31
M  V30 31 2 31 32
M  V30 32 1 23 2
M  V30 33 1 32 27
M  V30 34 2 20 3
M  V30 35 1 18 6
M  V30 36 1 17 12
M  V30 37 1 4 33
M  V30 38 1 7 34
M  V30 39 1 8 35
M  V30 40 1 11 36
M  V30 41 1 12 37
M  V30 42 1 13 38
M  V30 43 1 13 39
M  V30 44 1 14 40
M  V30 45 1 14 41
M  V30 46 1 16 42
M  V30 47 1 16 43
M  V30 48 1 17 44
M  V30 49 1 17 45
M  V30 50 1 19 46
M  V30 51 1 21 47
M  V30 52 1 21 48
M  V30 53 1 22 49
M  V30 54 1 22 50
M  V30 55 1 24 51 CFG=3
M  V30 56 1 25 52
M  V30 57 1 25 53
M  V30 58 1 26 54
M  V30 59 1 28 55
M  V30 60 1 29 56
M  V30 61 1 30 57
M  V30 62 1 31 58
M  V30 63 1 32 59
M  V30 END BOND
M  V30 END CTAB
M  END
>  <Dataset>  (284) 
ChEMBL_Kinases

>  <Ligand_Instance>  (284) 
nan

>  <PDB_ID>  (284) 
nan

>  <Standardized_SMILES>  (284) 
O=C1c2cc(-c3ccnc(NC4CCOCC4)n3)[nH]c2CCN1[C@H](CO)c1ccccc1

>  <Name>  (284) 
nan

>  <Pocket>  (284) 
nan

>  <ATP_Site>  (284) 
nan

>  <Peripheral>  (284) 
nan

>  <Num_H_Atoms_ProtBoundConf>  (284) 
nan

>  <Num_Resolved_Atoms>  (284) 
nan

>  <Num_Not_Resolved_Atoms>  (284) 
nan

$$$$
CHEMBL4078441
     RDKit          3D

  0  0  0  0  0  0  0  0  0  0999 V3000
M  V30 BEGIN CTAB
M  V30 COUNTS 46 49 0 0 0
M  V30 BEGIN ATOM
M  V30 1 O 0.083063 -6.459308 1.783786 0
M  V30 2 C 0.322083 -5.239405 1.620492 0
M  V30 3 N 1.367052 -4.574843 2.308019 0
M  V30 4 C 1.301693 -3.210855 1.846682 0
M  V30 5 C 2.073865 -2.117632 2.174216 0
M  V30 6 C 1.822795 -0.876099 1.590331 0
M  V30 7 C 0.799993 -0.721101 0.677238 0
M  V30 8 C 0.482227 0.542638 0.027990 0
M  V30 9 O -0.470446 0.658677 -0.809588 0
M  V30 10 N 1.183301 1.733662 0.258907 0
M  V30 11 C 1.054089 3.054863 -0.248862 0 CFG=2
M  V30 12 C 2.289446 3.651894 -0.827249 0
M  V30 13 O 2.743013 2.888687 -1.887246 0
M  V30 14 C 0.643255 3.939840 0.894064 0
M  V30 15 C 1.255456 3.889684 2.127789 0
M  V30 16 C 0.892178 4.688374 3.185753 0
M  V30 17 C -0.136419 5.593158 3.023751 0
M  V30 18 C -0.788910 5.691217 1.811577 0
M  V30 19 C -0.379081 4.857625 0.774091 0
M  V30 20 C 0.019868 -1.821196 0.345342 0
M  V30 21 C 0.283510 -3.041021 0.933282 0
M  V30 22 C -0.387239 -4.318840 0.744836 0
M  V30 23 C -1.397060 -4.679289 -0.021485 0
M  V30 24 C -2.009812 -5.968870 -0.183860 0
M  V30 25 C -3.410836 -6.007331 -0.139902 0
M  V30 26 N -3.832655 -7.283933 -0.330817 0
M  V30 27 C -2.747752 -8.059504 -0.495183 0
M  V30 28 N -1.697475 -7.241071 -0.401271 0
M  V30 29 H 2.025462 -5.002118 2.993762 0
M  V30 30 H 2.892283 -2.217298 2.897044 0
M  V30 31 H 2.434461 -0.025683 1.854150 0
M  V30 32 H 1.981636 1.726297 0.930248 0
M  V30 33 H 0.231715 3.155454 -1.006941 0
M  V30 34 H 3.068737 3.893387 -0.077738 0
M  V30 35 H 1.995635 4.651210 -1.253033 0
M  V30 36 H 2.608047 3.332414 -2.763120 0
M  V30 37 H 2.067494 3.203047 2.315485 0
M  V30 38 H 1.397707 4.625509 4.154300 0
M  V30 39 H -0.488148 6.262037 3.804258 0
M  V30 40 H -1.614467 6.370400 1.571527 0
M  V30 41 H -0.871589 4.905404 -0.202814 0
M  V30 42 H -0.782448 -1.723402 -0.363555 0
M  V30 43 H -1.762992 -3.810966 -0.584001 0
M  V30 44 H -4.235209 -5.306245 0.003056 0
M  V30 45 H -2.714685 -9.121184 -0.667864 0
M  V30 46 H -0.704547 -7.534754 -0.499547 0
M  V30 END ATOM
M  V30 BEGIN BOND
M  V30 1 2 1 2
M  V30 2 1 2 3
M  V30 3 1 3 4
M  V30 4 2 4 5
M  V30 5 1 5 6
M  V30 6 2 6 7
M  V30 7 1 7 8
M  V30 8 2 8 9
M  V30 9 1 8 10
M  V30 10 1 10 11
M  V30 11 1 11 12
M  V30 12 1 12 13
M  V30 13 1 11 14
M  V30 14 2 14 15
M  V30 15 1 15 16
M  V30 16 2 16 17
M  V30 17 1 17 18
M  V30 18 2 18 19
M  V30 19 1 7 20
M  V30 20 2 20 21
M  V30 21 1 21 22
M  V30 22 2 22 23
M  V30 23 1 23 24
M  V30 24 2 24 25
M  V30 25 1 25 26
M  V30 26 2 26 27
M  V30 27 1 27 28
M  V30 28 1 22 2
M  V30 29 1 28 24
M  V30 30 1 21 4
M  V30 31 1 19 14
M  V30 32 1 3 29
M  V30 33 1 5 30
M  V30 34 1 6 31
M  V30 35 1 10 32
M  V30 36 1 11 33 CFG=3
M  V30 37 1 12 34
M  V30 38 1 12 35
M  V30 39 1 13 36
M  V30 40 1 15 37
M  V30 41 1 16 38
M  V30 42 1 17 39
M  V30 43 1 18 40
M  V30 44 1 19 41
M  V30 45 1 20 42
M  V30 46 1 23 43
M  V30 47 1 25 44
M  V30 48 1 27 45
M  V30 49 1 28 46
M  V30 END BOND
M  V30 END CTAB
M  END
>  <Dataset>  (285) 
ChEMBL_Kinases

>  <Ligand_Instance>  (285) 
nan

>  <PDB_ID>  (285) 
nan

>  <Standardized_SMILES>  (285) 
O=C1Nc2ccc(C(=O)N[C@H](CO)c3ccccc3)cc2/C1=C/c1cnc[nH]1

>  <Name>  (285) 
nan

>  <Pocket>  (285) 
nan

>  <ATP_Site>  (285) 
nan

>  <Peripheral>  (285) 
nan

>  <Num_H_Atoms_ProtBoundConf>  (285) 
nan

>  <Num_Resolved_Atoms>  (285) 
nan

>  <Num_Not_Resolved_Atoms>  (285) 
nan

$$$$
CHEMBL4078436
     RDKit          3D

  0  0  0  0  0  0  0  0  0  0999 V3000
M  V30 BEGIN CTAB
M  V30 COUNTS 51 54 0 0 0
M  V30 BEGIN ATOM
M  V30 1 C 1.010064 -2.270386 5.395174 0
M  V30 2 O 0.983332 -3.353453 4.501860 0
M  V30 3 C 1.166082 -3.142362 3.145878 0
M  V30 4 C 1.382240 -1.907203 2.572521 0
M  V30 5 C 1.545326 -1.881088 1.195023 0
M  V30 6 C 1.496033 -3.039540 0.413667 0
M  V30 7 C 1.668304 -2.875634 -1.051811 0
M  V30 8 C 1.274530 -1.489501 -1.517464 0
M  V30 9 N -0.071448 -1.215442 -1.041642 0
M  V30 10 C -0.574831 0.120318 -0.846409 0
M  V30 11 N -0.348080 0.866122 0.249490 0
M  V30 12 C -0.857672 2.100574 0.359923 0
M  V30 13 C -0.525939 2.809187 1.590334 0
M  V30 14 C 0.270311 2.203720 2.553474 0
M  V30 15 C 0.622449 2.832899 3.738867 0
M  V30 16 N 0.193178 4.080493 3.999823 0
M  V30 17 C -0.582120 4.705155 3.093012 0
M  V30 18 C -0.935781 4.069828 1.899163 0
M  V30 19 C -1.623650 2.658513 -0.618035 0
M  V30 20 C -1.840523 1.860081 -1.740162 0
M  V30 21 O -2.556365 2.392672 -2.644475 0
M  V30 22 N -1.327916 0.624959 -1.847495 0
M  V30 23 C -1.666504 -0.049597 -3.087837 0
M  V30 24 C -1.002141 -2.297196 -0.741175 0
M  V30 25 C -0.628599 -3.571488 -1.418882 0
M  V30 26 N 0.745031 -3.776564 -1.695061 0
M  V30 27 C 1.278235 -4.261578 1.020902 0
M  V30 28 C 1.111039 -4.307298 2.411329 0
M  V30 29 H 2.088266 -2.051614 5.625885 0
M  V30 30 H 0.519079 -2.495384 6.371985 0
M  V30 31 H 0.577715 -1.338359 5.018792 0
M  V30 32 H 1.415932 -1.042366 3.188529 0
M  V30 33 H 1.715713 -0.932488 0.748194 0
M  V30 34 H 2.696389 -3.117541 -1.322161 0
M  V30 35 H 1.189389 -1.533484 -2.620751 0
M  V30 36 H 1.983860 -0.705273 -1.266980 0
M  V30 37 H 0.644220 1.201157 2.397514 0
M  V30 38 H 1.252707 2.323456 4.472566 0
M  V30 39 H -0.934889 5.721018 3.298823 0
M  V30 40 H -1.554800 4.603443 1.206390 0
M  V30 41 H -2.034671 3.649463 -0.527549 0
M  V30 42 H -2.790414 -0.183847 -3.117310 0
M  V30 43 H -1.146994 -1.018429 -3.215647 0
M  V30 44 H -1.425431 0.630755 -3.926050 0
M  V30 45 H -1.161902 -2.338374 0.334370 0
M  V30 46 H -1.989227 -1.953788 -1.170420 0
M  V30 47 H -0.979719 -4.403077 -0.764125 0
M  V30 48 H -1.204986 -3.649745 -2.386454 0
M  V30 49 H 0.989213 -3.961838 -2.691310 0
M  V30 50 H 1.252159 -5.121073 0.344546 0
M  V30 51 H 0.941510 -5.295509 2.835828 0
M  V30 END ATOM
M  V30 BEGIN BOND
M  V30 1 1 1 2
M  V30 2 1 2 3
M  V30 3 2 3 4
M  V30 4 1 4 5
M  V30 5 2 5 6
M  V30 6 1 6 7
M  V30 7 1 7 8
M  V30 8 1 8 9
M  V30 9 1 9 10
M  V30 10 2 10 11
M  V30 11 1 11 12
M  V30 12 1 12 13
M  V30 13 2 13 14
M  V30 14 1 14 15
M  V30 15 2 15 16
M  V30 16 1 16 17
M  V30 17 2 17 18
M  V30 18 2 12 19
M  V30 19 1 19 20
M  V30 20 2 20 21
M  V30 21 1 20 22
M  V30 22 1 22 23
M  V30 23 1 9 24
M  V30 24 1 24 25
M  V30 25 1 25 26
M  V30 26 1 6 27
M  V30 27 2 27 28
M  V30 28 1 28 3
M  V30 29 1 26 7
M  V30 30 1 22 10
M  V30 31 1 18 13
M  V30 32 1 1 29
M  V30 33 1 1 30
M  V30 34 1 1 31
M  V30 35 1 4 32
M  V30 36 1 5 33
M  V30 37 1 7 34
M  V30 38 1 8 35
M  V30 39 1 8 36
M  V30 40 1 14 37
M  V30 41 1 15 38
M  V30 42 1 17 39
M  V30 43 1 18 40
M  V30 44 1 19 41
M  V30 45 1 23 42
M  V30 46 1 23 43
M  V30 47 1 23 44
M  V30 48 1 24 45
M  V30 49 1 24 46
M  V30 50 1 25 47
M  V30 51 1 25 48
M  V30 52 1 26 49
M  V30 53 1 27 50
M  V30 54 1 28 51
M  V30 END BOND
M  V30 END CTAB
M  END
>  <Dataset>  (286) 
ChEMBL_Kinases

>  <Ligand_Instance>  (286) 
nan

>  <PDB_ID>  (286) 
nan

>  <Standardized_SMILES>  (286) 
COc1ccc(C2CN(c3nc(-c4ccncc4)cc(=O)n3C)CCN2)cc1

>  <Name>  (286) 
nan

>  <Pocket>  (286) 
nan

>  <ATP_Site>  (286) 
nan

>  <Peripheral>  (286) 
nan

>  <Num_H_Atoms_ProtBoundConf>  (286) 
nan

>  <Num_Resolved_Atoms>  (286) 
nan

>  <Num_Not_Resolved_Atoms>  (286) 
nan

$$$$
CHEMBL4078430
     RDKit          3D

  0  0  0  0  0  0  0  0  0  0999 V3000
M  V30 BEGIN CTAB
M  V30 COUNTS 47 49 0 0 0
M  V30 BEGIN ATOM
M  V30 1 C -1.989744 -2.676216 5.471607 0
M  V30 2 C -0.847141 -1.947354 4.748656 0
M  V30 3 C -0.563988 -2.606055 3.442097 0
M  V30 4 N 0.478847 -2.034118 2.657383 0
M  V30 5 C 0.837668 -0.829554 2.009790 0
M  V30 6 C 1.557387 0.132455 2.685807 0
M  V30 7 F 1.960612 0.005457 3.968425 0
M  V30 8 C 1.879152 1.286169 2.004791 0
M  V30 9 C 1.514507 1.509460 0.696195 0
M  V30 10 C 1.844125 2.670442 0.016287 0
M  V30 11 O 2.507286 3.585352 0.597685 0
M  V30 12 C 1.427485 2.792103 -1.306724 0
M  V30 13 C 1.792730 4.023088 -1.988842 0
M  V30 14 O 2.448747 4.903168 -1.384924 0
M  V30 15 O 1.486074 4.357240 -3.295152 0
M  V30 16 C 0.709127 1.823799 -1.969402 0
M  V30 17 N 0.401843 0.705387 -1.287089 0
M  V30 18 C -0.342849 -0.275483 -1.994778 0
M  V30 19 C 0.375359 -1.147930 -2.772486 0
M  V30 20 C -0.304168 -2.122980 -3.490902 0
M  V30 21 C -1.701418 -2.193003 -3.405830 0
M  V30 22 F -2.357948 -3.139722 -4.102400 0
M  V30 23 C -2.366995 -1.288601 -2.608009 0
M  V30 24 C -1.737220 -0.303906 -1.876490 0
M  V30 25 C 0.796257 0.572426 -0.011481 0
M  V30 26 C 0.486731 -0.572354 0.691180 0
M  V30 27 N -0.247015 -1.613152 0.066100 0
M  V30 28 C 0.344335 -2.166981 5.642018 0
M  V30 29 O 1.453881 -2.722873 5.398462 0
M  V30 30 O 0.180505 -1.678150 6.924057 0
M  V30 31 H -1.611790 -3.552702 6.000892 0
M  V30 32 H -2.802711 -2.963940 4.782767 0
M  V30 33 H -2.446631 -2.007821 6.239745 0
M  V30 34 H -1.132261 -0.897480 4.668064 0
M  V30 35 H -1.546048 -2.628307 2.878430 0
M  V30 36 H -0.334887 -3.686900 3.588941 0
M  V30 37 H 1.345317 -2.591489 2.391386 0
M  V30 38 H 2.442556 2.044681 2.527733 0
M  V30 39 H 1.863453 5.127222 -3.809292 0
M  V30 40 H 0.444263 2.044868 -3.003579 0
M  V30 41 H 1.447254 -1.085983 -2.831856 0
M  V30 42 H 0.249508 -2.820290 -4.111714 0
M  V30 43 H -3.455471 -1.305435 -2.512747 0
M  V30 44 H -2.238167 0.411325 -1.248825 0
M  V30 45 H -0.066825 -2.597983 -0.296259 0
M  V30 46 H -0.377517 -2.553106 -0.358050 0
M  V30 47 H 0.785873 -1.929045 7.689928 0
M  V30 END ATOM
M  V30 BEGIN BOND
M  V30 1 1 1 2
M  V30 2 1 2 3
M  V30 3 1 3 4
M  V30 4 1 4 5
M  V30 5 2 5 6
M  V30 6 1 6 7
M  V30 7 1 6 8
M  V30 8 2 8 9
M  V30 9 1 9 10
M  V30 10 2 10 11
M  V30 11 1 10 12
M  V30 12 1 12 13
M  V30 13 2 13 14
M  V30 14 1 13 15
M  V30 15 2 12 16
M  V30 16 1 16 17
M  V30 17 1 17 18
M  V30 18 2 18 19
M  V30 19 1 19 20
M  V30 20 2 20 21
M  V30 21 1 21 22
M  V30 22 1 21 23
M  V30 23 2 23 24
M  V30 24 1 17 25
M  V30 25 2 25 26
M  V30 26 1 26 27
M  V30 27 1 2 28
M  V30 28 2 28 29
M  V30 29 1 28 30
M  V30 30 1 26 5
M  V30 31 1 25 9
M  V30 32 1 24 18
M  V30 33 1 1 31
M  V30 34 1 1 32
M  V30 35 1 1 33
M  V30 36 1 2 34
M  V30 37 1 3 35
M  V30 38 1 3 36
M  V30 39 1 4 37
M  V30 40 1 8 38
M  V30 41 1 15 39
M  V30 42 1 16 40
M  V30 43 1 19 41
M  V30 44 1 20 42
M  V30 45 1 23 43
M  V30 46 1 24 44
M  V30 47 1 27 45
M  V30 48 1 27 46
M  V30 49 1 30 47
M  V30 END BOND
M  V30 END CTAB
M  END
>  <Dataset>  (287) 
ChEMBL_Kinases

>  <Ligand_Instance>  (287) 
nan

>  <PDB_ID>  (287) 
nan

>  <Standardized_SMILES>  (287) 
CC(CNc1c(F)cc2c(=O)c(C(=O)O)cn(-c3ccc(F)cc3)c2c1N)C(=O)O

>  <Name>  (287) 
nan

>  <Pocket>  (287) 
nan

>  <ATP_Site>  (287) 
nan

>  <Peripheral>  (287) 
nan

>  <Num_H_Atoms_ProtBoundConf>  (287) 
nan

>  <Num_Resolved_Atoms>  (287) 
nan

>  <Num_Not_Resolved_Atoms>  (287) 
nan

$$$$
CHEMBL4078347
     RDKit          3D

  0  0  0  0  0  0  0  0  0  0999 V3000
M  V30 BEGIN CTAB
M  V30 COUNTS 26 28 0 0 0
M  V30 BEGIN ATOM
M  V30 1 O 1.384768 -4.971252 2.676206 0
M  V30 2 C 0.820960 -4.397189 1.708604 0
M  V30 3 N -0.037626 -5.034481 0.775320 0
M  V30 4 C -0.571839 -4.201627 -0.244755 0
M  V30 5 S -1.573990 -4.671471 -1.437121 0
M  V30 6 S 0.062455 -2.544260 0.028251 0
M  V30 7 C 1.034622 -2.982213 1.491555 0
M  V30 8 C 1.751744 -2.121738 2.146485 0
M  V30 9 C 1.804351 -0.705045 1.713407 0
M  V30 10 C 3.005041 -0.061789 1.835466 0
M  V30 11 S 2.520497 1.638516 1.169363 0
M  V30 12 C 0.814653 1.112251 0.873854 0
M  V30 13 C -0.259858 2.012066 0.300003 0
M  V30 14 C -1.508649 1.451510 0.146369 0
M  V30 15 C -2.478573 2.311297 -0.385724 0
M  V30 16 C -2.114791 3.608107 -0.702217 0
M  V30 17 N -0.855980 4.101641 -0.524606 0
M  V30 18 C 0.117531 3.297199 -0.009224 0
M  V30 19 N 0.791624 -0.015961 1.222706 0
M  V30 20 H -0.268585 -6.066447 0.831820 0
M  V30 21 H 2.302424 -2.503662 3.020353 0
M  V30 22 H 3.959182 -0.362758 2.188243 0
M  V30 23 H -1.702057 0.424419 0.422171 0
M  V30 24 H -3.476691 1.943882 -0.534320 0
M  V30 25 H -2.843255 4.315289 -1.120610 0
M  V30 26 H 1.098001 3.686789 0.126546 0
M  V30 END ATOM
M  V30 BEGIN BOND
M  V30 1 2 1 2
M  V30 2 1 2 3
M  V30 3 1 3 4
M  V30 4 2 4 5
M  V30 5 1 4 6
M  V30 6 1 6 7
M  V30 7 2 7 8
M  V30 8 1 8 9
M  V30 9 2 9 10
M  V30 10 1 10 11
M  V30 11 1 11 12
M  V30 12 1 12 13
M  V30 13 2 13 14
M  V30 14 1 14 15
M  V30 15 2 15 16
M  V30 16 1 16 17
M  V30 17 2 17 18
M  V30 18 2 12 19
M  V30 19 1 7 2
M  V30 20 1 19 9
M  V30 21 1 18 13
M  V30 22 1 3 20
M  V30 23 1 8 21
M  V30 24 1 10 22
M  V30 25 1 14 23
M  V30 26 1 15 24
M  V30 27 1 16 25
M  V30 28 1 18 26
M  V30 END BOND
M  V30 END CTAB
M  END
>  <Dataset>  (288) 
ChEMBL_Kinases

>  <Ligand_Instance>  (288) 
nan

>  <PDB_ID>  (288) 
nan

>  <Standardized_SMILES>  (288) 
O=C1NC(=S)S/C1=C\c1csc(-c2cccnc2)n1

>  <Name>  (288) 
nan

>  <Pocket>  (288) 
nan

>  <ATP_Site>  (288) 
nan

>  <Peripheral>  (288) 
nan

>  <Num_H_Atoms_ProtBoundConf>  (288) 
nan

>  <Num_Resolved_Atoms>  (288) 
nan

>  <Num_Not_Resolved_Atoms>  (288) 
nan

$$$$
CHEMBL4078321
     RDKit          3D

  0  0  0  0  0  0  0  0  0  0999 V3000
M  V30 BEGIN CTAB
M  V30 COUNTS 49 51 0 0 0
M  V30 BEGIN ATOM
M  V30 1 C -2.527271 -6.190754 0.589272 0
M  V30 2 N -3.278530 -5.241094 -0.211610 0
M  V30 3 C -3.313680 -4.742143 -1.524596 0
M  V30 4 C -2.553350 -3.632271 -1.818398 0
M  V30 5 C -2.571335 -3.124278 -3.100113 0
M  V30 6 O -1.906319 -2.041912 -3.626760 0
M  V30 7 C -1.047510 -1.204192 -2.954283 0
M  V30 8 C 0.316495 -1.371580 -2.829494 0
M  V30 9 C 1.148478 -0.518314 -2.151993 0
M  V30 10 C 0.519481 0.567465 -1.574649 0
M  V30 11 N 1.296590 1.514827 -0.848319 0
M  V30 12 C 1.509367 1.337175 0.543175 0
M  V30 13 O 0.971371 0.316814 1.036072 0
M  V30 14 N 2.261800 2.210671 1.365036 0
M  V30 15 C 2.523734 2.112001 2.752125 0
M  V30 16 C 2.099129 1.136345 3.619209 0
M  V30 17 C 2.385334 1.089022 4.965711 0
M  V30 18 C 3.159432 2.091415 5.510928 0
M  V30 19 O 3.467276 2.074614 6.865339 0
M  V30 20 C 2.949756 0.992110 7.630896 0
M  V30 21 C 3.601423 3.086464 4.664695 0
M  V30 22 C 3.292475 3.096722 3.323277 0
M  V30 23 C -0.836378 0.812830 -1.648894 0
M  V30 24 C -1.466249 2.002384 -1.006592 0
M  V30 25 C -1.600007 -0.088167 -2.344905 0
M  V30 26 N -3.348121 -3.748621 -4.028920 0
M  V30 27 C -4.092242 -4.826014 -3.762512 0
M  V30 28 N -4.063078 -5.311672 -2.499640 0
M  V30 29 H -3.171942 -7.041801 0.917862 0
M  V30 30 H -1.658640 -6.571047 0.006373 0
M  V30 31 H -2.184191 -5.652268 1.495855 0
M  V30 32 H -4.056470 -4.738513 0.307920 0
M  V30 33 H -1.924619 -3.091670 -1.151632 0
M  V30 34 H 0.753334 -2.260197 -3.315126 0
M  V30 35 H 2.206798 -0.704791 -2.090866 0
M  V30 36 H 1.724640 2.353973 -1.313436 0
M  V30 37 H 2.635397 2.995341 0.814268 0
M  V30 38 H 1.491349 0.331997 3.239846 0
M  V30 39 H 2.018843 0.294406 5.585048 0
M  V30 40 H 3.168112 1.079529 8.696816 0
M  V30 41 H 3.329966 0.009896 7.280263 0
M  V30 42 H 1.835711 0.957503 7.520972 0
M  V30 43 H 4.209523 3.892727 5.041029 0
M  V30 44 H 3.672356 3.911635 2.706330 0
M  V30 45 H -2.420911 2.253469 -1.531295 0
M  V30 46 H -0.812469 2.896149 -1.062483 0
M  V30 47 H -1.740452 1.817199 0.044344 0
M  V30 48 H -2.674188 0.092103 -2.412739 0
M  V30 49 H -4.707321 -5.332938 -4.467805 0
M  V30 END ATOM
M  V30 BEGIN BOND
M  V30 1 1 1 2
M  V30 2 1 2 3
M  V30 3 2 3 4
M  V30 4 1 4 5
M  V30 5 1 5 6
M  V30 6 1 6 7
M  V30 7 2 7 8
M  V30 8 1 8 9
M  V30 9 2 9 10
M  V30 10 1 10 11
M  V30 11 1 11 12
M  V30 12 2 12 13
M  V30 13 1 12 14
M  V30 14 1 14 15
M  V30 15 2 15 16
M  V30 16 1 16 17
M  V30 17 2 17 18
M  V30 18 1 18 19
M  V30 19 1 19 20
M  V30 20 1 18 21
M  V30 21 2 21 22
M  V30 22 1 10 23
M  V30 23 1 23 24
M  V30 24 2 23 25
M  V30 25 2 5 26
M  V30 26 1 26 27
M  V30 27 2 27 28
M  V30 28 1 28 3
M  V30 29 1 25 7
M  V30 30 1 22 15
M  V30 31 1 1 29
M  V30 32 1 1 30
M  V30 33 1 1 31
M  V30 34 1 2 32
M  V30 35 1 4 33
M  V30 36 1 8 34
M  V30 37 1 9 35
M  V30 38 1 11 36
M  V30 39 1 14 37
M  V30 40 1 16 38
M  V30 41 1 17 39
M  V30 42 1 20 40
M  V30 43 1 20 41
M  V30 44 1 20 42
M  V30 45 1 21 43
M  V30 46 1 22 44
M  V30 47 1 24 45
M  V30 48 1 24 46
M  V30 49 1 24 47
M  V30 50 1 25 48
M  V30 51 1 27 49
M  V30 END BOND
M  V30 END CTAB
M  END
>  <Dataset>  (289) 
ChEMBL_Kinases

>  <Ligand_Instance>  (289) 
nan

>  <PDB_ID>  (289) 
nan

>  <Standardized_SMILES>  (289) 
CNc1cc(Oc2ccc(NC(=O)Nc3ccc(OC)cc3)c(C)c2)ncn1

>  <Name>  (289) 
nan

>  <Pocket>  (289) 
nan

>  <ATP_Site>  (289) 
nan

>  <Peripheral>  (289) 
nan

>  <Num_H_Atoms_ProtBoundConf>  (289) 
nan

>  <Num_Resolved_Atoms>  (289) 
nan

>  <Num_Not_Resolved_Atoms>  (289) 
nan

$$$$
CHEMBL4078249
     RDKit          3D

  0  0  0  0  0  0  0  0  0  0999 V3000
M  V30 BEGIN CTAB
M  V30 COUNTS 66 70 0 0 0
M  V30 BEGIN ATOM
M  V30 1 O 1.713953 1.879493 6.626507 0
M  V30 2 C 1.346161 1.027852 5.785902 0
M  V30 3 N 1.792824 -0.304552 5.955407 0
M  V30 4 C 2.622488 -0.915803 6.949717 0
M  V30 5 C 2.033817 -0.818042 8.329097 0
M  V30 6 O 1.850256 0.463483 8.761805 0
M  V30 7 C 2.780850 -1.677668 9.325758 0
M  V30 8 O 2.112176 -1.766926 10.534314 0
M  V30 9 C 0.487734 1.504380 4.710490 0
M  V30 10 C 0.130155 2.835144 4.704554 0
M  V30 11 C -0.684059 3.395056 3.728431 0
M  V30 12 C -1.177930 2.609135 2.697832 0
M  V30 13 C -0.818287 1.258807 2.699017 0
M  V30 14 C -0.007664 0.730990 3.682274 0
M  V30 15 C -1.200744 0.230211 1.733551 0
M  V30 16 O -1.201640 -0.964761 2.149413 0
M  V30 17 C -1.569967 0.539414 0.344330 0
M  V30 18 C -1.740412 -0.643200 -0.340297 0
M  V30 19 C -2.088416 -0.581329 -1.671612 0
M  V30 20 C -2.275351 0.601009 -2.356028 0
M  V30 21 N -2.605920 0.711433 -3.727621 0
M  V30 22 C -2.360787 -0.162389 -4.817213 0
M  V30 23 C -3.080847 -0.103159 -5.991413 0
M  V30 24 C -2.831714 -0.938717 -7.056884 0
M  V30 25 C -1.836272 -1.892075 -7.006668 0
M  V30 26 F -1.595602 -2.706583 -8.050042 0
M  V30 27 C -1.081159 -1.992675 -5.844996 0
M  V30 28 N -0.046372 -2.964776 -5.766407 0
M  V30 29 C -0.085366 -4.300530 -5.328652 0
M  V30 30 O -1.117638 -4.860081 -4.916627 0
M  V30 31 C 1.228922 -4.880903 -5.437892 0
M  V30 32 C 1.588775 -6.250541 -5.079066 0
M  V30 33 C 2.851949 -6.685842 -5.223625 0
M  V30 34 C 3.868756 -5.730797 -5.759077 0
M  V30 35 S 2.855652 -4.198307 -6.023301 0
M  V30 36 C -1.388260 -1.115417 -4.808156 0
M  V30 37 C -2.093183 1.779605 -1.622961 0
M  V30 38 C -1.744351 1.762680 -0.288337 0
M  V30 39 C -1.600737 3.126900 0.284947 0
M  V30 40 C -2.044772 3.278568 1.693783 0
M  V30 41 H 1.405472 -0.910233 5.165764 0
M  V30 42 H 3.668564 -0.526090 6.926386 0
M  V30 43 H 2.702803 -1.991864 6.713328 0
M  V30 44 H 1.007502 -1.279395 8.263724 0
M  V30 45 H 1.153827 0.542770 9.461454 0
M  V30 46 H 2.899865 -2.698903 8.919498 0
M  V30 47 H 3.790194 -1.251744 9.576213 0
M  V30 48 H 1.702949 -2.645382 10.652040 0
M  V30 49 H 0.454687 3.550532 5.458968 0
M  V30 50 H -0.966119 4.424815 3.715528 0
M  V30 51 H 0.240089 -0.307609 3.640018 0
M  V30 52 H -1.600055 -1.608088 0.170983 0
M  V30 53 H -2.224036 -1.522473 -2.172418 0
M  V30 54 H -3.130458 1.596325 -4.010298 0
M  V30 55 H -3.885335 0.626919 -6.101973 0
M  V30 56 H -3.429887 -0.846738 -7.954466 0
M  V30 57 H 0.735073 -2.385946 -6.128056 0
M  V30 58 H 0.798235 -6.875317 -4.701218 0
M  V30 59 H 3.161209 -7.684523 -4.971991 0
M  V30 60 H 4.939596 -6.107993 -5.878567 0
M  V30 61 H -0.741375 -1.266080 -3.959541 0
M  V30 62 H -2.230913 2.750702 -2.120156 0
M  V30 63 H -0.553285 3.490357 0.217292 0
M  V30 64 H -2.207201 3.819740 -0.330157 0
M  V30 65 H -3.081506 2.892247 1.863131 0
M  V30 66 H -2.040133 4.360578 1.921495 0
M  V30 END ATOM
M  V30 BEGIN BOND
M  V30 1 2 1 2
M  V30 2 1 2 3
M  V30 3 1 3 4
M  V30 4 1 4 5
M  V30 5 1 5 6
M  V30 6 1 5 7
M  V30 7 1 7 8
M  V30 8 1 2 9
M  V30 9 2 9 10
M  V30 10 1 10 11
M  V30 11 2 11 12
M  V30 12 1 12 13
M  V30 13 2 13 14
M  V30 14 1 13 15
M  V30 15 2 15 16
M  V30 16 1 15 17
M  V30 17 2 17 18
M  V30 18 1 18 19
M  V30 19 2 19 20
M  V30 20 1 20 21
M  V30 21 1 21 22
M  V30 22 2 22 23
M  V30 23 1 23 24
M  V30 24 2 24 25
M  V30 25 1 25 26
M  V30 26 1 25 27
M  V30 27 1 27 28
M  V30 28 1 28 29
M  V30 29 2 29 30
M  V30 30 1 29 31
M  V30 31 2 31 32
M  V30 32 1 32 33
M  V30 33 2 33 34
M  V30 34 1 34 35
M  V30 35 2 27 36
M  V30 36 1 20 37
M  V30 37 2 37 38
M  V30 38 1 38 39
M  V30 39 1 39 40
M  V30 40 1 14 9
M  V30 41 1 38 17
M  V30 42 1 40 12
M  V30 43 1 36 22
M  V30 44 1 35 31
M  V30 45 1 3 41
M  V30 46 1 4 42
M  V30 47 1 4 43
M  V30 48 1 5 44
M  V30 49 1 6 45
M  V30 50 1 7 46
M  V30 51 1 7 47
M  V30 52 1 8 48
M  V30 53 1 10 49
M  V30 54 1 11 50
M  V30 55 1 14 51
M  V30 56 1 18 52
M  V30 57 1 19 53
M  V30 58 1 21 54
M  V30 59 1 23 55
M  V30 60 1 24 56
M  V30 61 1 28 57
M  V30 62 1 32 58
M  V30 63 1 33 59
M  V30 64 1 34 60
M  V30 65 1 36 61
M  V30 66 1 37 62
M  V30 67 1 39 63
M  V30 68 1 39 64
M  V30 69 1 40 65
M  V30 70 1 40 66
M  V30 END BOND
M  V30 END CTAB
M  END
>  <Dataset>  (290) 
ChEMBL_Kinases

>  <Ligand_Instance>  (290) 
nan

>  <PDB_ID>  (290) 
nan

>  <Standardized_SMILES>  (290) 
O=C(NCC(O)CO)c1ccc2c(c1)C(=O)c1ccc(Nc3ccc(F)c(NC(=O)c4cccs4)c3)cc1CC2

>  <Name>  (290) 
nan

>  <Pocket>  (290) 
nan

>  <ATP_Site>  (290) 
nan

>  <Peripheral>  (290) 
nan

>  <Num_H_Atoms_ProtBoundConf>  (290) 
nan

>  <Num_Resolved_Atoms>  (290) 
nan

>  <Num_Not_Resolved_Atoms>  (290) 
nan

$$$$
CHEMBL4078207
     RDKit          3D

  0  0  0  0  0  0  0  0  0  0999 V3000
M  V30 BEGIN CTAB
M  V30 COUNTS 73 74 0 0 0
M  V30 BEGIN ATOM
M  V30 1 C 3.945556 0.051476 3.933203 0
M  V30 2 C 3.569318 -0.043065 2.456000 0
M  V30 3 C 3.844183 -1.454577 2.011427 0
M  V30 4 C 3.484948 -1.638708 0.523654 0
M  V30 5 C 3.790068 -3.048734 0.165762 0
M  V30 6 C 3.505305 -3.521639 -1.207041 0
M  V30 7 C 4.163563 -2.934542 -2.374919 0
M  V30 8 C 3.970291 -1.521440 -2.739232 0
M  V30 9 C 2.516845 -1.171845 -3.005296 0
M  V30 10 C 2.313660 0.240747 -3.381911 0
M  V30 11 C 2.710246 1.297839 -2.403501 0
M  V30 12 C 1.965365 1.298871 -1.162196 0
M  V30 13 O 1.170542 0.397602 -1.641384 0
M  V30 14 N 1.572846 1.616629 0.121939 0
M  V30 15 N 0.458343 0.952311 0.630490 0
M  V30 16 C -0.730138 1.646541 0.295883 0
M  V30 17 O -0.478335 2.672026 -0.364142 0
M  V30 18 C -2.096618 1.293866 0.628113 0
M  V30 19 C -3.038097 2.188404 0.141442 0
M  V30 20 O -2.745381 3.331170 -0.595153 0
M  V30 21 C -4.378608 1.891928 0.429610 0
M  V30 22 C -5.335249 2.772638 -0.052695 0
M  V30 23 C -6.666216 2.529425 0.195832 0
M  V30 24 C -7.098207 1.435631 0.911914 0
M  V30 25 C -6.123965 0.572572 1.382445 0
M  V30 26 C -4.766906 0.784145 1.151404 0
M  V30 27 N -3.832522 -0.071969 1.615218 0
M  V30 28 C -4.207541 -1.217627 2.358950 0
M  V30 29 C -4.425894 -2.347429 1.404521 0
M  V30 30 C -3.951385 -3.559473 1.159342 0
M  V30 31 C -4.486054 -4.408943 0.035108 0
M  V30 32 C -2.862312 -4.141498 1.996842 0
M  V30 33 C -2.541577 0.212473 1.339068 0
M  V30 34 O -1.686594 -0.594939 1.780491 0
M  V30 35 H 4.189201 1.102391 4.202528 0
M  V30 36 H 4.806183 -0.585950 4.184351 0
M  V30 37 H 3.035958 -0.244616 4.525065 0
M  V30 38 H 2.519078 0.232361 2.362250 0
M  V30 39 H 4.180650 0.648794 1.831370 0
M  V30 40 H 4.924116 -1.663721 2.129482 0
M  V30 41 H 3.200006 -2.116163 2.637280 0
M  V30 42 H 2.419841 -1.392937 0.433434 0
M  V30 43 H 4.074116 -0.890459 -0.004550 0
M  V30 44 H 4.832240 -3.336368 0.504185 0
M  V30 45 H 3.149037 -3.683928 0.869056 0
M  V30 46 H 2.373790 -3.545842 -1.309565 0
M  V30 47 H 3.784221 -4.636172 -1.202072 0
M  V30 48 H 5.291505 -3.060033 -2.202934 0
M  V30 49 H 4.008339 -3.555077 -3.311242 0
M  V30 50 H 4.491682 -0.771435 -2.163368 0
M  V30 51 H 4.447396 -1.421893 -3.787338 0
M  V30 52 H 2.203678 -1.795339 -3.904804 0
M  V30 53 H 1.945028 -1.559965 -2.182164 0
M  V30 54 H 2.749663 0.446766 -4.391160 0
M  V30 55 H 1.197197 0.364945 -3.544354 0
M  V30 56 H 2.623367 2.281353 -2.962352 0
M  V30 57 H 3.815501 1.187171 -2.269505 0
M  V30 58 H 2.358498 2.328546 0.261852 0
M  V30 59 H 0.413921 0.078840 1.180657 0
M  V30 60 H -3.086912 3.306920 -1.560405 0
M  V30 61 H -5.116724 3.657422 -0.624129 0
M  V30 62 H -7.446297 3.190088 -0.162959 0
M  V30 63 H -8.152755 1.212335 1.133503 0
M  V30 64 H -6.463942 -0.298504 1.949530 0
M  V30 65 H -3.294855 -1.537143 2.943727 0
M  V30 66 H -5.016184 -1.199465 3.039661 0
M  V30 67 H -5.236695 -1.990642 0.743553 0
M  V30 68 H -4.789518 -5.416468 0.401792 0
M  V30 69 H -5.395900 -3.959844 -0.411874 0
M  V30 70 H -3.658040 -4.517105 -0.674703 0
M  V30 71 H -2.789848 -5.242216 1.842631 0
M  V30 72 H -2.983710 -3.907324 3.072389 0
M  V30 73 H -1.891578 -3.724813 1.643121 0
M  V30 END ATOM
M  V30 BEGIN BOND
M  V30 1 1 1 2
M  V30 2 1 2 3
M  V30 3 1 3 4
M  V30 4 1 4 5
M  V30 5 1 5 6
M  V30 6 1 6 7
M  V30 7 1 7 8
M  V30 8 1 8 9
M  V30 9 1 9 10
M  V30 10 1 10 11
M  V30 11 1 11 12
M  V30 12 2 12 13
M  V30 13 1 12 14
M  V30 14 1 14 15
M  V30 15 1 15 16
M  V30 16 2 16 17
M  V30 17 1 16 18
M  V30 18 2 18 19
M  V30 19 1 19 20
M  V30 20 1 19 21
M  V30 21 2 21 22
M  V30 22 1 22 23
M  V30 23 2 23 24
M  V30 24 1 24 25
M  V30 25 2 25 26
M  V30 26 1 26 27
M  V30 27 1 27 28
M  V30 28 1 28 29
M  V30 29 2 29 30 CFG=2
M  V30 30 1 30 31
M  V30 31 1 30 32
M  V30 32 1 27 33
M  V30 33 2 33 34
M  V30 34 1 33 18
M  V30 35 1 26 21
M  V30 36 1 1 35
M  V30 37 1 1 36
M  V30 38 1 1 37
M  V30 39 1 2 38
M  V30 40 1 2 39
M  V30 41 1 3 40
M  V30 42 1 3 41
M  V30 43 1 4 42
M  V30 44 1 4 43
M  V30 45 1 5 44
M  V30 46 1 5 45
M  V30 47 1 6 46
M  V30 48 1 6 47
M  V30 49 1 7 48
M  V30 50 1 7 49
M  V30 51 1 8 50
M  V30 52 1 8 51
M  V30 53 1 9 52
M  V30 54 1 9 53
M  V30 55 1 10 54
M  V30 56 1 10 55
M  V30 57 1 11 56
M  V30 58 1 11 57
M  V30 59 1 14 58
M  V30 60 1 15 59
M  V30 61 1 20 60
M  V30 62 1 22 61
M  V30 63 1 23 62
M  V30 64 1 24 63
M  V30 65 1 25 64
M  V30 66 1 28 65
M  V30 67 1 28 66
M  V30 68 1 29 67
M  V30 69 1 31 68
M  V30 70 1 31 69
M  V30 71 1 31 70
M  V30 72 1 32 71
M  V30 73 1 32 72
M  V30 74 1 32 73
M  V30 END BOND
M  V30 END CTAB
M  END
>  <Dataset>  (291) 
ChEMBL_Kinases

>  <Ligand_Instance>  (291) 
nan

>  <PDB_ID>  (291) 
nan

>  <Standardized_SMILES>  (291) 
CCCCCCCCCCCC(=O)NNC(=O)c1c(O)c2ccccc2n(CC=C(C)C)c1=O

>  <Name>  (291) 
nan

>  <Pocket>  (291) 
nan

>  <ATP_Site>  (291) 
nan

>  <Peripheral>  (291) 
nan

>  <Num_H_Atoms_ProtBoundConf>  (291) 
nan

>  <Num_Resolved_Atoms>  (291) 
nan

>  <Num_Not_Resolved_Atoms>  (291) 
nan

$$$$
CHEMBL4855899
     RDKit          3D

  0  0  0  0  0  0  0  0  0  0999 V3000
M  V30 BEGIN CTAB
M  V30 COUNTS 60 64 0 0 0
M  V30 BEGIN ATOM
M  V30 1 C 2.978839 -0.164723 3.655771 0
M  V30 2 C 4.102697 -1.113837 3.354294 0
M  V30 3 O 4.442702 -1.217458 2.030997 0
M  V30 4 C 4.857315 -0.056455 1.427368 0
M  V30 5 C 6.311526 -0.172520 0.987276 0
M  V30 6 N 4.010920 0.278414 0.281059 0
M  V30 7 C 2.780498 0.820257 0.324579 0
M  V30 8 C 2.371705 0.957854 -0.990523 0
M  V30 9 C 1.063347 1.519619 -1.398918 0
M  V30 10 C 0.843173 2.223782 -2.571889 0
M  V30 11 C -0.430516 2.690726 -2.824553 0
M  V30 12 C -1.478187 2.477934 -1.951206 0
M  V30 13 C -1.267278 1.768035 -0.763574 0
M  V30 14 C -2.396163 1.561417 0.136985 0
M  V30 15 N -3.291162 2.492756 0.503818 0
M  V30 16 N -4.176175 1.955656 1.327501 0
M  V30 17 C -3.899663 0.647992 1.536513 0
M  V30 18 C -4.431898 -0.406099 2.262354 0
M  V30 19 C -3.836540 -1.659366 2.217896 0
M  V30 20 C -2.692673 -1.880310 1.442636 0
M  V30 21 C -2.255634 -3.263241 1.562599 0
M  V30 22 N -1.580553 -3.922221 2.520014 0
M  V30 23 N -1.456888 -5.183948 2.099673 0
M  V30 24 C -2.049898 -5.305040 0.893104 0
M  V30 25 N -2.560019 -4.086228 0.545908 0
M  V30 26 C -3.212232 -4.133350 -0.734905 0
M  V30 27 C -3.691395 -2.818282 -1.244237 0
M  V30 28 C -2.265200 -4.704080 -1.797009 0
M  V30 29 C -2.176667 -0.819559 0.726817 0
M  V30 30 C -2.789550 0.408603 0.792021 0
M  V30 31 C -0.002875 1.322622 -0.545558 0
M  V30 32 C 3.382299 0.487977 -1.804784 0
M  V30 33 N 4.381243 0.075341 -0.985885 0
M  V30 34 H 2.050107 -0.398404 3.135023 0
M  V30 35 H 2.760343 -0.257464 4.741516 0
M  V30 36 H 3.332917 0.888766 3.529493 0
M  V30 37 H 4.957797 -0.867400 4.016457 0
M  V30 38 H 3.745079 -2.133888 3.667613 0
M  V30 39 H 4.834228 0.766977 2.154989 0
M  V30 40 H 6.993369 0.178880 1.788081 0
M  V30 41 H 6.598062 -1.198261 0.717249 0
M  V30 42 H 6.458380 0.529350 0.123741 0
M  V30 43 H 2.201112 1.101612 1.166519 0
M  V30 44 H 1.702545 2.363054 -3.224611 0
M  V30 45 H -0.592067 3.247517 -3.758158 0
M  V30 46 H -2.479073 2.862618 -2.182172 0
M  V30 47 H -4.997971 2.438518 1.782077 0
M  V30 48 H -5.319895 -0.178739 2.846926 0
M  V30 49 H -4.364146 -2.387009 2.837137 0
M  V30 50 H -1.961442 -6.338380 0.523825 0
M  V30 51 H -4.072523 -4.838537 -0.727010 0
M  V30 52 H -4.368141 -3.062019 -2.120709 0
M  V30 53 H -4.337397 -2.247092 -0.561855 0
M  V30 54 H -2.876295 -2.211170 -1.700913 0
M  V30 55 H -2.627708 -4.430172 -2.799558 0
M  V30 56 H -2.231637 -5.798097 -1.662040 0
M  V30 57 H -1.244110 -4.280637 -1.702021 0
M  V30 58 H -1.296635 -1.120883 0.171466 0
M  V30 59 H 0.156283 0.775965 0.371896 0
M  V30 60 H 3.350394 0.467661 -2.886235 0
M  V30 END ATOM
M  V30 BEGIN BOND
M  V30 1 1 1 2
M  V30 2 1 2 3
M  V30 3 1 3 4
M  V30 4 1 4 5
M  V30 5 1 4 6
M  V30 6 1 6 7
M  V30 7 2 7 8
M  V30 8 1 8 9
M  V30 9 2 9 10
M  V30 10 1 10 11
M  V30 11 2 11 12
M  V30 12 1 12 13
M  V30 13 1 13 14
M  V30 14 2 14 15
M  V30 15 1 15 16
M  V30 16 1 16 17
M  V30 17 2 17 18
M  V30 18 1 18 19
M  V30 19 2 19 20
M  V30 20 1 20 21
M  V30 21 2 21 22
M  V30 22 1 22 23
M  V30 23 2 23 24
M  V30 24 1 24 25
M  V30 25 1 25 26
M  V30 26 1 26 27
M  V30 27 1 26 28
M  V30 28 1 20 29
M  V30 29 2 29 30
M  V30 30 2 13 31
M  V30 31 1 8 32
M  V30 32 2 32 33
M  V30 33 1 33 6
M  V30 34 1 31 9
M  V30 35 1 30 14
M  V30 36 1 30 17
M  V30 37 1 25 21
M  V30 38 1 1 34
M  V30 39 1 1 35
M  V30 40 1 1 36
M  V30 41 1 2 37
M  V30 42 1 2 38
M  V30 43 1 4 39
M  V30 44 1 5 40
M  V30 45 1 5 41
M  V30 46 1 5 42
M  V30 47 1 7 43
M  V30 48 1 10 44
M  V30 49 1 11 45
M  V30 50 1 12 46
M  V30 51 1 16 47
M  V30 52 1 18 48
M  V30 53 1 19 49
M  V30 54 1 24 50
M  V30 55 1 26 51
M  V30 56 1 27 52
M  V30 57 1 27 53
M  V30 58 1 27 54
M  V30 59 1 28 55
M  V30 60 1 28 56
M  V30 61 1 28 57
M  V30 62 1 29 58
M  V30 63 1 31 59
M  V30 64 1 32 60
M  V30 END BOND
M  V30 END CTAB
M  END
>  <Dataset>  (292) 
ChEMBL_Kinases

>  <Ligand_Instance>  (292) 
nan

>  <PDB_ID>  (292) 
nan

>  <Standardized_SMILES>  (292) 
CCOC(C)n1cc(-c2cccc(-c3n[nH]c4ccc(-c5nncn5C(C)C)cc34)c2)cn1

>  <Name>  (292) 
nan

>  <Pocket>  (292) 
nan

>  <ATP_Site>  (292) 
nan

>  <Peripheral>  (292) 
nan

>  <Num_H_Atoms_ProtBoundConf>  (292) 
nan

>  <Num_Resolved_Atoms>  (292) 
nan

>  <Num_Not_Resolved_Atoms>  (292) 
nan

$$$$
CHEMBL4078171
     RDKit          3D

  0  0  0  0  0  0  0  0  0  0999 V3000
M  V30 BEGIN CTAB
M  V30 COUNTS 22 23 0 0 0
M  V30 BEGIN ATOM
M  V30 1 C -0.978332 -0.412581 3.799929 0
M  V30 2 N -0.341717 -0.508151 2.536339 0
M  V30 3 C 0.290099 -0.603055 1.282284 0
M  V30 4 N 0.746611 -1.695627 0.658264 0
M  V30 5 C 1.362626 -1.703155 -0.517672 0
M  V30 6 N 1.806472 -2.929759 -1.083242 0
M  V30 7 N 1.514921 -0.506865 -1.082244 0
M  V30 8 C 1.111632 0.665140 -0.579508 0
M  V30 9 N 1.231281 1.896276 -1.103122 0
M  V30 10 C 0.655635 2.711617 -0.199861 0
M  V30 11 C 0.201760 1.938601 0.851650 0
M  V30 12 C -0.474973 2.497329 1.981109 0
M  V30 13 N -1.027199 2.960387 2.876421 0
M  V30 14 C 0.478630 0.604230 0.644799 0
M  V30 15 H -2.096704 -0.593068 3.784872 0
M  V30 16 H -0.892968 0.642909 4.228813 0
M  V30 17 H -0.513421 -1.008213 4.638632 0
M  V30 18 H -0.407237 -1.562206 2.731887 0
M  V30 19 H 2.402762 -3.623487 -0.541856 0
M  V30 20 H 1.563141 -3.208834 -2.070818 0
M  V30 21 H 1.676662 2.130331 -2.009418 0
M  V30 22 H 0.576846 3.800600 -0.310999 0
M  V30 END ATOM
M  V30 BEGIN BOND
M  V30 1 1 1 2
M  V30 2 1 2 3
M  V30 3 2 3 4
M  V30 4 1 4 5
M  V30 5 1 5 6
M  V30 6 2 5 7
M  V30 7 1 7 8
M  V30 8 1 8 9
M  V30 9 1 9 10
M  V30 10 2 10 11
M  V30 11 1 11 12
M  V30 12 3 12 13
M  V30 13 1 11 14
M  V30 14 1 14 3
M  V30 15 2 14 8
M  V30 16 1 1 15
M  V30 17 1 1 16
M  V30 18 1 1 17
M  V30 19 1 2 18
M  V30 20 1 6 19
M  V30 21 1 6 20
M  V30 22 1 9 21
M  V30 23 1 10 22
M  V30 END BOND
M  V30 END CTAB
M  END
>  <Dataset>  (293) 
ChEMBL_Kinases

>  <Ligand_Instance>  (293) 
nan

>  <PDB_ID>  (293) 
nan

>  <Standardized_SMILES>  (293) 
CNc1nc(N)nc2[nH]cc(C#N)c12

>  <Name>  (293) 
nan

>  <Pocket>  (293) 
nan

>  <ATP_Site>  (293) 
nan

>  <Peripheral>  (293) 
nan

>  <Num_H_Atoms_ProtBoundConf>  (293) 
nan

>  <Num_Resolved_Atoms>  (293) 
nan

>  <Num_Not_Resolved_Atoms>  (293) 
nan

$$$$
CHEMBL4855907
     RDKit          3D

  0  0  0  0  0  0  0  0  0  0999 V3000
M  V30 BEGIN CTAB
M  V30 COUNTS 57 61 0 0 0
M  V30 BEGIN ATOM
M  V30 1 C 4.135015 -4.866069 1.252338 0
M  V30 2 C 3.405062 -3.574193 1.234470 0
M  V30 3 C 3.799429 -2.580905 2.102384 0
M  V30 4 C 3.155749 -1.366923 2.124581 0
M  V30 5 F 3.528405 -0.382941 2.967746 0
M  V30 6 C 2.095754 -1.055970 1.304420 0
M  V30 7 C 1.317869 0.172759 1.210272 0
M  V30 8 O 0.345102 0.327235 0.391316 0
M  V30 9 N 1.463351 1.369283 1.951551 0
M  V30 10 C 0.544705 2.404478 1.629368 0
M  V30 11 C 0.722034 3.385347 0.681400 0
M  V30 12 C -0.249582 4.347682 0.454025 0
M  V30 13 C -1.368775 4.251053 1.223184 0
M  V30 14 C -1.576002 3.290377 2.172213 0
M  V30 15 C -2.823747 3.275497 2.950271 0
M  V30 16 N -3.010374 3.707182 4.223153 0
M  V30 17 N -4.288313 3.519544 4.560536 0
M  V30 18 C -4.884005 2.965395 3.473941 0
M  V30 19 N -3.996087 2.808984 2.475161 0
M  V30 20 C -4.199524 2.263340 1.154169 0 CFG=1
M  V30 21 C -3.234833 1.154329 0.812874 0
M  V30 22 C -5.657254 1.797645 1.044127 0
M  V30 23 F -5.966169 0.838728 1.964443 0
M  V30 24 F -5.928909 1.353384 -0.230154 0
M  V30 25 F -6.412956 2.959206 1.203941 0
M  V30 26 N -0.594621 2.373873 2.354387 0
M  V30 27 C 1.698411 -2.056219 0.430228 0
M  V30 28 C 2.343652 -3.273006 0.408047 0
M  V30 29 N 1.909899 -4.279760 -0.503017 0
M  V30 30 C 1.676571 -5.584249 -0.210373 0
M  V30 31 N 1.281294 -6.234434 -1.314732 0
M  V30 32 C 1.246820 -5.374859 -2.351062 0
M  V30 33 C 0.864879 -5.666691 -3.763271 0
M  V30 34 C 0.262516 -4.530459 -4.539564 0
M  V30 35 C 1.644899 -4.935939 -4.879583 0
M  V30 36 C 1.640454 -4.160280 -1.833076 0
M  V30 37 H 4.093157 -5.361468 0.276973 0
M  V30 38 H 3.731555 -5.546531 2.033040 0
M  V30 39 H 5.209696 -4.726305 1.490312 0
M  V30 40 H 4.611845 -2.684766 2.799224 0
M  V30 41 H 2.220740 1.402541 2.667081 0
M  V30 42 H 1.656280 3.346433 0.141648 0
M  V30 43 H -0.076961 5.098530 -0.294256 0
M  V30 44 H -2.154945 4.977214 1.084124 0
M  V30 45 H -5.937826 2.693340 3.439442 0
M  V30 46 H -4.105698 3.047333 0.350575 0
M  V30 47 H -2.341091 1.526386 0.264514 0
M  V30 48 H -3.755283 0.450768 0.128783 0
M  V30 49 H -2.918510 0.588235 1.724455 0
M  V30 50 H 0.869169 -1.925564 -0.268535 0
M  V30 51 H 1.776075 -6.081251 0.745420 0
M  V30 52 H 0.578663 -6.699062 -3.986727 0
M  V30 53 H -0.501962 -4.724287 -5.320877 0
M  V30 54 H 0.121613 -3.564760 -4.017639 0
M  V30 55 H 1.892185 -5.512847 -5.789878 0
M  V30 56 H 2.462524 -4.246174 -4.548794 0
M  V30 57 H 1.740072 -3.213943 -2.357508 0
M  V30 END ATOM
M  V30 BEGIN BOND
M  V30 1 1 1 2
M  V30 2 2 2 3
M  V30 3 1 3 4
M  V30 4 1 4 5
M  V30 5 2 4 6
M  V30 6 1 6 7
M  V30 7 2 7 8
M  V30 8 1 7 9
M  V30 9 1 9 10
M  V30 10 2 10 11
M  V30 11 1 11 12
M  V30 12 2 12 13
M  V30 13 1 13 14
M  V30 14 1 14 15
M  V30 15 2 15 16
M  V30 16 1 16 17
M  V30 17 2 17 18
M  V30 18 1 18 19
M  V30 19 1 19 20
M  V30 20 1 20 21
M  V30 21 1 20 22
M  V30 22 1 22 23
M  V30 23 1 22 24
M  V30 24 1 22 25
M  V30 25 2 14 26
M  V30 26 1 6 27
M  V30 27 2 27 28
M  V30 28 1 28 29
M  V30 29 1 29 30
M  V30 30 2 30 31
M  V30 31 1 31 32
M  V30 32 1 32 33
M  V30 33 1 33 34
M  V30 34 1 34 35
M  V30 35 2 32 36
M  V30 36 1 28 2
M  V30 37 1 36 29
M  V30 38 1 26 10
M  V30 39 1 35 33
M  V30 40 1 19 15
M  V30 41 1 1 37
M  V30 42 1 1 38
M  V30 43 1 1 39
M  V30 44 1 3 40
M  V30 45 1 9 41
M  V30 46 1 11 42
M  V30 47 1 12 43
M  V30 48 1 13 44
M  V30 49 1 18 45
M  V30 50 1 20 46 CFG=3
M  V30 51 1 21 47
M  V30 52 1 21 48
M  V30 53 1 21 49
M  V30 54 1 27 50
M  V30 55 1 30 51
M  V30 56 1 33 52
M  V30 57 1 34 53
M  V30 58 1 34 54
M  V30 59 1 35 55
M  V30 60 1 35 56
M  V30 61 1 36 57
M  V30 END BOND
M  V30 END CTAB
M  END
>  <Dataset>  (294) 
ChEMBL_Kinases

>  <Ligand_Instance>  (294) 
nan

>  <PDB_ID>  (294) 
nan

>  <Standardized_SMILES>  (294) 
Cc1cc(F)c(C(=O)Nc2cccc(-c3nncn3[C@@H](C)C(F)(F)F)n2)cc1-n1cnc(C2CC2)c1

>  <Name>  (294) 
nan

>  <Pocket>  (294) 
nan

>  <ATP_Site>  (294) 
nan

>  <Peripheral>  (294) 
nan

>  <Num_H_Atoms_ProtBoundConf>  (294) 
nan

>  <Num_Resolved_Atoms>  (294) 
nan

>  <Num_Not_Resolved_Atoms>  (294) 
nan

$$$$
CHEMBL4855417
     RDKit          3D

  0  0  0  0  0  0  0  0  0  0999 V3000
M  V30 BEGIN CTAB
M  V30 COUNTS 48 52 0 0 0
M  V30 BEGIN ATOM
M  V30 1 C -0.359912 -3.300225 6.728425 0
M  V30 2 O 0.766133 -2.460233 6.559686 0
M  V30 3 C 1.394252 -2.260418 5.328312 0
M  V30 4 C 2.484998 -1.437601 5.206760 0
M  V30 5 C 3.082812 -1.260517 3.980767 0
M  V30 6 C 2.619372 -1.889284 2.847722 0
M  V30 7 C 3.110722 -1.825262 1.445028 0
M  V30 8 N 2.377971 -0.797518 0.766626 0
M  V30 9 C 2.518418 0.585961 0.794527 0
M  V30 10 O 3.496417 0.827745 1.585871 0
M  V30 11 C 1.866916 1.709404 0.184214 0
M  V30 12 C 2.412304 2.968335 0.413590 0
M  V30 13 N 1.671270 3.885664 -0.230240 0
M  V30 14 C 0.667158 3.270352 -0.867173 0
M  V30 15 C -0.358433 3.752393 -1.653880 0
M  V30 16 C -1.245840 2.827543 -2.163135 0
M  V30 17 C -1.096360 1.485786 -1.886125 0
M  V30 18 C -2.040296 0.514469 -2.426213 0
M  V30 19 C -2.713927 0.590304 -3.624499 0
M  V30 20 C -3.584940 -0.398664 -4.018857 0
M  V30 21 C -3.806315 -1.507631 -3.207502 0
M  V30 22 O -4.567765 -2.555420 -3.357272 0
M  V30 23 C -4.428279 -3.337228 -2.294866 0
M  V30 24 N -3.554143 -2.773896 -1.443200 0
M  V30 25 C -3.144582 -1.622257 -1.987705 0
M  V30 26 C -2.278947 -0.604082 -1.633669 0
M  V30 27 C -0.044445 1.090827 -1.092449 0
M  V30 28 N 0.823912 1.968537 -0.590802 0
M  V30 29 C 1.503498 -2.716377 3.034226 0
M  V30 30 C 0.861961 -2.930492 4.250408 0
M  V30 31 H -1.135478 -3.104472 5.952008 0
M  V30 32 H -0.021906 -4.373047 6.657958 0
M  V30 33 H -0.755284 -3.122595 7.746234 0
M  V30 34 H 2.904407 -0.911620 6.048847 0
M  V30 35 H 3.944745 -0.633919 3.816798 0
M  V30 36 H 4.213754 -1.666102 1.409871 0
M  V30 37 H 2.948895 -2.811683 0.965103 0
M  V30 38 H 1.612203 -1.124784 0.143695 0
M  V30 39 H 3.254115 3.431382 0.954078 0
M  V30 40 H -0.446886 4.830499 -1.854051 0
M  V30 41 H -2.037226 3.216151 -2.772261 0
M  V30 42 H -2.508326 1.470814 -4.218175 0
M  V30 43 H -4.098762 -0.306643 -4.969725 0
M  V30 44 H -4.854339 -4.289618 -1.989494 0
M  V30 45 H -1.807222 -0.783453 -0.659927 0
M  V30 46 H 0.035668 0.058566 -0.900302 0
M  V30 47 H 1.057086 -3.263762 2.195785 0
M  V30 48 H 0.004654 -3.583143 4.319711 0
M  V30 END ATOM
M  V30 BEGIN BOND
M  V30 1 1 1 2
M  V30 2 1 2 3
M  V30 3 2 3 4
M  V30 4 1 4 5
M  V30 5 2 5 6
M  V30 6 1 6 7
M  V30 7 1 7 8
M  V30 8 1 8 9
M  V30 9 2 9 10
M  V30 10 1 9 11
M  V30 11 2 11 12
M  V30 12 1 12 13
M  V30 13 2 13 14
M  V30 14 1 14 15
M  V30 15 2 15 16
M  V30 16 1 16 17
M  V30 17 1 17 18
M  V30 18 2 18 19
M  V30 19 1 19 20
M  V30 20 2 20 21
M  V30 21 1 21 22
M  V30 22 1 22 23
M  V30 23 2 23 24
M  V30 24 1 24 25
M  V30 25 2 25 26
M  V30 26 2 17 27
M  V30 27 1 27 28
M  V30 28 1 6 29
M  V30 29 2 29 30
M  V30 30 1 30 3
M  V30 31 1 28 11
M  V30 32 1 28 14
M  V30 33 1 26 18
M  V30 34 1 25 21
M  V30 35 1 1 31
M  V30 36 1 1 32
M  V30 37 1 1 33
M  V30 38 1 4 34
M  V30 39 1 5 35
M  V30 40 1 7 36
M  V30 41 1 7 37
M  V30 42 1 8 38
M  V30 43 1 12 39
M  V30 44 1 15 40
M  V30 45 1 16 41
M  V30 46 1 19 42
M  V30 47 1 20 43
M  V30 48 1 23 44
M  V30 49 1 26 45
M  V30 50 1 27 46
M  V30 51 1 29 47
M  V30 52 1 30 48
M  V30 END BOND
M  V30 END CTAB
M  END
>  <Dataset>  (295) 
ChEMBL_Kinases

>  <Ligand_Instance>  (295) 
nan

>  <PDB_ID>  (295) 
nan

>  <Standardized_SMILES>  (295) 
COc1ccc(CNC(=O)c2cnc3ccc(-c4ccc5ocnc5c4)cn23)cc1

>  <Name>  (295) 
nan

>  <Pocket>  (295) 
nan

>  <ATP_Site>  (295) 
nan

>  <Peripheral>  (295) 
nan

>  <Num_H_Atoms_ProtBoundConf>  (295) 
nan

>  <Num_Resolved_Atoms>  (295) 
nan

>  <Num_Not_Resolved_Atoms>  (295) 
nan

$$$$
CHEMBL4078073
     RDKit          3D

  0  0  0  0  0  0  0  0  0  0999 V3000
M  V30 BEGIN CTAB
M  V30 COUNTS 45 49 0 0 0
M  V30 BEGIN ATOM
M  V30 1 C 0.722635 -0.017167 -1.489037 0
M  V30 2 C 1.547226 0.108200 -0.239540 0 CFG=1
M  V30 3 C 2.961312 0.371336 -0.766828 0
M  V30 4 C 3.111243 1.091659 -1.926381 0
M  V30 5 C 4.396784 1.303986 -2.365588 0
M  V30 6 C 5.517793 0.845218 -1.722302 0
M  V30 7 F 6.793562 1.031217 -2.117928 0
M  V30 8 C 5.359944 0.126633 -0.564581 0
M  V30 9 C 4.089390 -0.102789 -0.099573 0
M  V30 10 N 1.101670 1.263213 0.497500 0
M  V30 11 N 1.745070 2.432959 0.353274 0
M  V30 12 N 1.229117 3.382139 1.088889 0
M  V30 13 C 0.190208 2.839288 1.763821 0
M  V30 14 C -0.658423 3.440015 2.660563 0
M  V30 15 N -1.602487 2.620170 3.168300 0
M  V30 16 C -1.697301 1.326285 2.819702 0
M  V30 17 C -2.692789 0.561545 3.384971 0
M  V30 18 C -2.768527 -0.762057 3.007771 0
M  V30 19 C -1.899902 -1.355212 2.095567 0
M  V30 20 C -2.146618 -2.771463 1.829500 0
M  V30 21 C -2.650568 -3.540991 2.858204 0
M  V30 22 C -2.921939 -4.884183 2.707727 0
M  V30 23 C -2.701789 -5.528303 1.514455 0
M  V30 24 C -2.202067 -4.770995 0.490029 0
M  V30 25 C -1.926678 -3.417336 0.636078 0
M  V30 26 C -0.904517 -0.540861 1.546940 0
M  V30 27 C -0.821415 0.772585 1.915981 0
M  V30 28 C 0.149888 1.530009 1.366316 0
M  V30 29 H -0.081678 -0.780607 -1.438742 0
M  V30 30 H 1.325592 -0.269656 -2.393770 0
M  V30 31 H 0.203029 0.928570 -1.751621 0
M  V30 32 H 1.698642 -0.804965 0.338034 0
M  V30 33 H 2.300310 1.498065 -2.506472 0
M  V30 34 H 4.609167 1.865074 -3.275745 0
M  V30 35 H 6.104736 -0.315923 0.082967 0
M  V30 36 H 3.840026 -0.662202 0.811165 0
M  V30 37 H -0.622348 4.464655 2.967921 0
M  V30 38 H -3.370264 1.015448 4.093086 0
M  V30 39 H -3.560558 -1.313725 3.475243 0
M  V30 40 H -2.882095 -3.186721 3.874041 0
M  V30 41 H -3.323199 -5.518453 3.511975 0
M  V30 42 H -2.883923 -6.559105 1.315741 0
M  V30 43 H -1.981769 -5.150916 -0.505077 0
M  V30 44 H -1.529833 -2.804473 -0.169471 0
M  V30 45 H -0.337825 -1.133172 0.877038 0
M  V30 END ATOM
M  V30 BEGIN BOND
M  V30 1 1 1 2
M  V30 2 1 2 3
M  V30 3 2 3 4
M  V30 4 1 4 5
M  V30 5 2 5 6
M  V30 6 1 6 7
M  V30 7 1 6 8
M  V30 8 2 8 9
M  V30 9 1 2 10
M  V30 10 1 10 11
M  V30 11 2 11 12
M  V30 12 1 12 13
M  V30 13 2 13 14
M  V30 14 1 14 15
M  V30 15 2 15 16
M  V30 16 1 16 17
M  V30 17 2 17 18
M  V30 18 1 18 19
M  V30 19 1 19 20
M  V30 20 2 20 21
M  V30 21 1 21 22
M  V30 22 2 22 23
M  V30 23 1 23 24
M  V30 24 2 24 25
M  V30 25 2 19 26
M  V30 26 1 26 27
M  V30 27 2 27 28
M  V30 28 1 9 3
M  V30 29 1 28 10
M  V30 30 1 28 13
M  V30 31 1 27 16
M  V30 32 1 25 20
M  V30 33 1 1 29
M  V30 34 1 1 30
M  V30 35 1 1 31
M  V30 36 1 2 32 CFG=1
M  V30 37 1 4 33
M  V30 38 1 5 34
M  V30 39 1 8 35
M  V30 40 1 9 36
M  V30 41 1 14 37
M  V30 42 1 17 38
M  V30 43 1 18 39
M  V30 44 1 21 40
M  V30 45 1 22 41
M  V30 46 1 23 42
M  V30 47 1 24 43
M  V30 48 1 25 44
M  V30 49 1 26 45
M  V30 END BOND
M  V30 END CTAB
M  END
>  <Dataset>  (296) 
ChEMBL_Kinases

>  <Ligand_Instance>  (296) 
nan

>  <PDB_ID>  (296) 
nan

>  <Standardized_SMILES>  (296) 
C[C@@H](c1ccc(F)cc1)n1nnc2cnc3ccc(-c4ccccc4)cc3c21

>  <Name>  (296) 
nan

>  <Pocket>  (296) 
nan

>  <ATP_Site>  (296) 
nan

>  <Peripheral>  (296) 
nan

>  <Num_H_Atoms_ProtBoundConf>  (296) 
nan

>  <Num_Resolved_Atoms>  (296) 
nan

>  <Num_Not_Resolved_Atoms>  (296) 
nan

$$$$
CHEMBL4078031
     RDKit          3D

  0  0  0  0  0  0  0  0  0  0999 V3000
M  V30 BEGIN CTAB
M  V30 COUNTS 42 45 0 0 0
M  V30 BEGIN ATOM
M  V30 1 C -0.244827 -6.651861 1.335499 0
M  V30 2 C 1.203163 -6.308233 1.444659 0
M  V30 3 N 2.211459 -7.117111 1.825141 0
M  V30 4 N 3.357844 -6.474728 1.804005 0
M  V30 5 C 3.167170 -5.184154 1.401607 0
M  V30 6 C 1.822000 -5.103352 1.183991 0
M  V30 7 C 1.139159 -3.904072 0.737080 0
M  V30 8 C 1.593657 -2.680066 0.447173 0
M  V30 9 C 0.717356 -1.714713 0.040291 0
M  V30 10 N 0.927845 -0.428998 -0.302748 0
M  V30 11 C -0.073177 0.380830 -0.682448 0
M  V30 12 C 0.233317 1.786566 -1.046411 0
M  V30 13 N 0.161880 2.648270 0.079847 0
M  V30 14 C 0.437562 4.022897 -0.151875 0
M  V30 15 C 1.113455 4.592214 1.080445 0
M  V30 16 C 0.662049 3.767364 2.266318 0
M  V30 17 C -0.800357 3.418233 2.117774 0
M  V30 18 C -0.917271 2.408831 0.993556 0
M  V30 19 N -1.367859 0.024427 -0.765816 0
M  V30 20 C -1.670407 -1.243748 -0.441158 0
M  V30 21 O -2.806337 -1.754056 -0.456910 0
M  V30 22 C -0.625249 -2.078663 -0.047800 0
M  V30 23 S -0.604523 -3.842771 0.467578 0
M  V30 24 H -0.860386 -5.978934 1.953181 0
M  V30 25 H -0.367595 -7.696970 1.681428 0
M  V30 26 H -0.583442 -6.628241 0.279950 0
M  V30 27 H 4.274134 -6.894319 2.058129 0
M  V30 28 H 3.945413 -4.438988 1.297480 0
M  V30 29 H 2.655842 -2.497882 0.547576 0
M  V30 30 H 1.269123 1.799110 -1.442991 0
M  V30 31 H -0.421049 2.085484 -1.889581 0
M  V30 32 H -0.451803 4.655803 -0.384383 0
M  V30 33 H 1.139092 4.111027 -1.007591 0
M  V30 34 H 0.818000 5.651313 1.270707 0
M  V30 35 H 2.214316 4.540915 0.938338 0
M  V30 36 H 0.882715 4.309548 3.191185 0
M  V30 37 H 1.224912 2.796541 2.327212 0
M  V30 38 H -1.144842 2.998541 3.089765 0
M  V30 39 H -1.406439 4.300192 1.839668 0
M  V30 40 H -0.877489 1.416500 1.466679 0
M  V30 41 H -1.923440 2.491857 0.539144 0
M  V30 42 H -2.160079 0.622854 -1.053979 0
M  V30 END ATOM
M  V30 BEGIN BOND
M  V30 1 1 1 2
M  V30 2 2 2 3
M  V30 3 1 3 4
M  V30 4 1 4 5
M  V30 5 2 5 6
M  V30 6 1 6 7
M  V30 7 2 7 8
M  V30 8 1 8 9
M  V30 9 1 9 10
M  V30 10 2 10 11
M  V30 11 1 11 12
M  V30 12 1 12 13
M  V30 13 1 13 14
M  V30 14 1 14 15
M  V30 15 1 15 16
M  V30 16 1 16 17
M  V30 17 1 17 18
M  V30 18 1 11 19
M  V30 19 1 19 20
M  V30 20 2 20 21
M  V30 21 1 20 22
M  V30 22 1 22 23
M  V30 23 1 6 2
M  V30 24 1 23 7
M  V30 25 2 22 9
M  V30 26 1 18 13
M  V30 27 1 1 24
M  V30 28 1 1 25
M  V30 29 1 1 26
M  V30 30 1 4 27
M  V30 31 1 5 28
M  V30 32 1 8 29
M  V30 33 1 12 30
M  V30 34 1 12 31
M  V30 35 1 14 32
M  V30 36 1 14 33
M  V30 37 1 15 34
M  V30 38 1 15 35
M  V30 39 1 16 36
M  V30 40 1 16 37
M  V30 41 1 17 38
M  V30 42 1 17 39
M  V30 43 1 18 40
M  V30 44 1 18 41
M  V30 45 1 19 42
M  V30 END BOND
M  V30 END CTAB
M  END
>  <Dataset>  (297) 
ChEMBL_Kinases

>  <Ligand_Instance>  (297) 
nan

>  <PDB_ID>  (297) 
nan

>  <Standardized_SMILES>  (297) 
Cc1n[nH]cc1-c1cc2nc(CN3CCCCC3)[nH]c(=O)c2s1

>  <Name>  (297) 
nan

>  <Pocket>  (297) 
nan

>  <ATP_Site>  (297) 
nan

>  <Peripheral>  (297) 
nan

>  <Num_H_Atoms_ProtBoundConf>  (297) 
nan

>  <Num_Resolved_Atoms>  (297) 
nan

>  <Num_Not_Resolved_Atoms>  (297) 
nan

$$$$
CHEMBL485592
     RDKit          3D

  0  0  0  0  0  0  0  0  0  0999 V3000
M  V30 BEGIN CTAB
M  V30 COUNTS 51 55 0 0 0
M  V30 BEGIN ATOM
M  V30 1 C 0.589616 -2.638281 3.135016 0
M  V30 2 C 0.122271 -2.534735 1.743677 0
M  V30 3 C 0.409396 -1.449532 1.076305 0
M  V30 4 C 1.142478 -0.268929 1.477266 0
M  V30 5 O 1.351783 0.733490 0.709860 0
M  V30 6 N 1.818253 0.259185 2.589045 0
M  V30 7 C 2.349458 1.554245 2.297846 0
M  V30 8 C 1.448277 2.559313 2.600699 0
M  V30 9 C 1.822845 3.883111 2.370845 0
M  V30 10 C 3.083168 4.134942 1.848346 0
M  V30 11 N 3.703755 5.282486 1.529957 0
M  V30 12 N 4.922286 5.029954 1.054399 0
M  V30 13 C 5.139282 3.682359 1.047481 0
M  V30 14 C 3.980794 3.131824 1.546808 0
M  V30 15 C 3.593690 1.829615 1.780419 0
M  V30 16 C -0.073929 -1.342789 -0.351099 0
M  V30 17 C -0.921244 -0.113515 -0.502976 0
M  V30 18 C -0.720678 1.072172 -1.175461 0
M  V30 19 C -1.687717 2.044557 -1.114468 0
M  V30 20 C -2.851902 1.890330 -0.411685 0
M  V30 21 F -3.683969 2.958191 -0.469022 0
M  V30 22 C -3.071284 0.710550 0.267370 0
M  V30 23 C -2.102724 -0.298639 0.223427 0
M  V30 24 N -0.784337 -2.511965 -0.749083 0
M  V30 25 C -1.046390 -3.547845 -0.082999 0
M  V30 26 C -1.798867 -4.620585 -0.724584 0
M  V30 27 C -2.139608 -5.788868 -0.098340 0
M  V30 28 C -2.847309 -6.820756 -0.670869 0
M  V30 29 C -3.250702 -6.666321 -1.994698 0
M  V30 30 C -2.887000 -5.470998 -2.593711 0
M  V30 31 N -2.196057 -4.488708 -2.000938 0
M  V30 32 N -0.597708 -3.634180 1.252261 0
M  V30 33 H 0.073320 -1.850084 3.706134 0
M  V30 34 H 1.679747 -2.659630 3.179333 0
M  V30 35 H 0.249926 -3.596522 3.615434 0
M  V30 36 H 1.792180 -0.402302 3.393919 0
M  V30 37 H 0.447105 2.412318 3.012588 0
M  V30 38 H 1.156354 4.702906 2.590256 0
M  V30 39 H 3.352287 6.243454 1.614098 0
M  V30 40 H 5.998524 3.104328 0.736027 0
M  V30 41 H 4.221349 0.978923 1.578481 0
M  V30 42 H 0.828338 -1.240294 -0.988278 0
M  V30 43 H 0.225554 1.058819 -1.695611 0
M  V30 44 H -1.430905 2.950818 -1.683845 0
M  V30 45 H -4.006338 0.643460 0.804537 0
M  V30 46 H -2.421546 -1.156942 0.803487 0
M  V30 47 H -1.850976 -5.958441 0.928240 0
M  V30 48 H -3.090391 -7.714596 -0.142997 0
M  V30 49 H -3.810837 -7.422763 -2.528812 0
M  V30 50 H -3.184997 -5.316576 -3.625830 0
M  V30 51 H -0.796917 -4.463264 1.816407 0
M  V30 END ATOM
M  V30 BEGIN BOND
M  V30 1 1 1 2
M  V30 2 2 2 3
M  V30 3 1 3 4
M  V30 4 2 4 5
M  V30 5 1 4 6
M  V30 6 1 6 7
M  V30 7 2 7 8
M  V30 8 1 8 9
M  V30 9 2 9 10
M  V30 10 1 10 11
M  V30 11 1 11 12
M  V30 12 2 12 13
M  V30 13 1 13 14
M  V30 14 2 14 15
M  V30 15 1 3 16
M  V30 16 1 16 17
M  V30 17 2 17 18
M  V30 18 1 18 19
M  V30 19 2 19 20
M  V30 20 1 20 21
M  V30 21 1 20 22
M  V30 22 2 22 23
M  V30 23 1 16 24
M  V30 24 2 24 25
M  V30 25 1 25 26
M  V30 26 2 26 27
M  V30 27 1 27 28
M  V30 28 2 28 29
M  V30 29 1 29 30
M  V30 30 2 30 31
M  V30 31 1 25 32
M  V30 32 1 32 2
M  V30 33 1 15 7
M  V30 34 1 23 17
M  V30 35 1 31 26
M  V30 36 1 14 10
M  V30 37 1 1 33
M  V30 38 1 1 34
M  V30 39 1 1 35
M  V30 40 1 6 36
M  V30 41 1 8 37
M  V30 42 1 9 38
M  V30 43 1 11 39
M  V30 44 1 13 40
M  V30 45 1 15 41
M  V30 46 1 16 42
M  V30 47 1 18 43
M  V30 48 1 19 44
M  V30 49 1 22 45
M  V30 50 1 23 46
M  V30 51 1 27 47
M  V30 52 1 28 48
M  V30 53 1 29 49
M  V30 54 1 30 50
M  V30 55 1 32 51
M  V30 END BOND
M  V30 END CTAB
M  END
>  <Dataset>  (298) 
ChEMBL_Kinases

>  <Ligand_Instance>  (298) 
nan

>  <PDB_ID>  (298) 
nan

>  <Standardized_SMILES>  (298) 
CC1=C(C(=O)Nc2ccc3[nH]ncc3c2)C(c2ccc(F)cc2)N=C(c2ccccn2)N1

>  <Name>  (298) 
nan

>  <Pocket>  (298) 
nan

>  <ATP_Site>  (298) 
nan

>  <Peripheral>  (298) 
nan

>  <Num_H_Atoms_ProtBoundConf>  (298) 
nan

>  <Num_Resolved_Atoms>  (298) 
nan

>  <Num_Not_Resolved_Atoms>  (298) 
nan

$$$$
CHEMBL4855933
     RDKit          3D

  0  0  0  0  0  0  0  0  0  0999 V3000
M  V30 BEGIN CTAB
M  V30 COUNTS 44 47 0 0 0
M  V30 BEGIN ATOM
M  V30 1 N -1.427498 -4.225429 5.235147 0
M  V30 2 C -0.619551 -4.063123 4.393924 0
M  V30 3 C 0.361400 -3.848264 3.346346 0
M  V30 4 C 1.712549 -3.946960 3.593096 0
M  V30 5 C 2.602941 -3.734082 2.565629 0
M  V30 6 C 2.185281 -3.422217 1.282900 0
M  V30 7 C 0.832523 -3.326595 1.048695 0
M  V30 8 N 0.258309 -3.008703 -0.184717 0
M  V30 9 C 0.732419 -2.695738 -1.482332 0
M  V30 10 C 0.988348 -1.584325 -2.199641 0
M  V30 11 C 0.758670 -0.272937 -1.590472 0
M  V30 12 C 0.053478 0.754309 -2.196777 0
M  V30 13 C -0.096244 1.975780 -1.580690 0
M  V30 14 C 0.439000 2.249415 -0.341998 0
M  V30 15 O 0.388726 3.403999 0.422794 0
M  V30 16 C -0.490481 3.665703 1.435918 0
M  V30 17 C 0.086022 3.329059 2.639514 0
M  V30 18 C -0.555290 3.475839 3.874186 0
M  V30 19 C -1.850690 3.994553 3.854463 0
M  V30 20 C -2.402485 4.322627 2.633165 0
M  V30 21 C -1.762848 4.173183 1.438316 0
M  V30 22 C 1.151962 1.212604 0.270387 0
M  V30 23 C 1.304244 -0.022647 -0.347580 0
M  V30 24 C 1.487773 -1.986954 -3.524770 0
M  V30 25 O 1.758010 -0.991860 -4.280380 0
M  V30 26 N 1.536061 -3.394501 -3.613486 0
M  V30 27 C 1.063094 -3.836018 -2.335197 0
M  V30 28 O 1.011735 -5.102136 -2.161075 0
M  V30 29 C -0.065312 -3.539664 2.077843 0
M  V30 30 H 2.043625 -4.186934 4.586769 0
M  V30 31 H 3.676481 -3.807122 2.752987 0
M  V30 32 H 2.868938 -3.249910 0.467183 0
M  V30 33 H -0.772608 -2.951549 -0.334750 0
M  V30 34 H -0.383423 0.587289 -3.169206 0
M  V30 35 H -0.634426 2.809633 -2.001017 0
M  V30 36 H 1.085425 2.917987 2.836640 0
M  V30 37 H -0.177632 3.239982 4.837887 0
M  V30 38 H -2.411464 4.136354 4.773846 0
M  V30 39 H -3.422948 4.733559 2.608035 0
M  V30 40 H -2.131067 4.407371 0.451440 0
M  V30 41 H 1.641607 1.254203 1.242597 0
M  V30 42 H 1.855838 -0.819233 0.118850 0
M  V30 43 H 1.868932 -3.824256 -4.495933 0
M  V30 44 H -1.151536 -3.473109 1.929050 0
M  V30 END ATOM
M  V30 BEGIN BOND
M  V30 1 3 1 2
M  V30 2 1 2 3
M  V30 3 2 3 4
M  V30 4 1 4 5
M  V30 5 2 5 6
M  V30 6 1 6 7
M  V30 7 1 7 8
M  V30 8 1 8 9
M  V30 9 2 9 10
M  V30 10 1 10 11
M  V30 11 2 11 12
M  V30 12 1 12 13
M  V30 13 2 13 14
M  V30 14 1 14 15
M  V30 15 1 15 16
M  V30 16 2 16 17
M  V30 17 1 17 18
M  V30 18 2 18 19
M  V30 19 1 19 20
M  V30 20 2 20 21
M  V30 21 1 14 22
M  V30 22 2 22 23
M  V30 23 1 10 24
M  V30 24 2 24 25
M  V30 25 1 24 26
M  V30 26 1 26 27
M  V30 27 2 27 28
M  V30 28 2 7 29
M  V30 29 1 29 3
M  V30 30 1 27 9
M  V30 31 1 23 11
M  V30 32 1 21 16
M  V30 33 1 4 30
M  V30 34 1 5 31
M  V30 35 1 6 32
M  V30 36 1 8 33
M  V30 37 1 12 34
M  V30 38 1 13 35
M  V30 39 1 17 36
M  V30 40 1 18 37
M  V30 41 1 19 38
M  V30 42 1 20 39
M  V30 43 1 21 40
M  V30 44 1 22 41
M  V30 45 1 23 42
M  V30 46 1 26 43
M  V30 47 1 29 44
M  V30 END BOND
M  V30 END CTAB
M  END
>  <Dataset>  (299) 
ChEMBL_Kinases

>  <Ligand_Instance>  (299) 
nan

>  <PDB_ID>  (299) 
nan

>  <Standardized_SMILES>  (299) 
N#Cc1cccc(NC2=C(c3ccc(Oc4ccccc4)cc3)C(=O)NC2=O)c1

>  <Name>  (299) 
nan

>  <Pocket>  (299) 
nan

>  <ATP_Site>  (299) 
nan

>  <Peripheral>  (299) 
nan

>  <Num_H_Atoms_ProtBoundConf>  (299) 
nan

>  <Num_Resolved_Atoms>  (299) 
nan

>  <Num_Not_Resolved_Atoms>  (299) 
nan

$$$$
CHEMBL4855972
     RDKit          3D

  0  0  0  0  0  0  0  0  0  0999 V3000
M  V30 BEGIN CTAB
M  V30 COUNTS 45 46 0 0 0
M  V30 BEGIN ATOM
M  V30 1 C -2.685093 -3.749563 -0.576996 0
M  V30 2 O -2.566289 -3.235838 0.710907 0
M  V30 3 C -1.544536 -2.503456 1.236861 0
M  V30 4 C -0.493144 -2.234907 0.389459 0
M  V30 5 C 0.573944 -1.498419 0.857485 0
M  V30 6 N 1.688043 -1.190349 0.026683 0
M  V30 7 C 1.594385 0.031186 -0.717699 0
M  V30 8 O 0.440383 0.400282 -0.306142 0
M  V30 9 C 2.707299 0.423576 -1.602708 0 CFG=2
M  V30 10 N 3.660513 -0.711539 -1.603408 0
M  V30 11 C 3.450080 1.630215 -1.207960 0
M  V30 12 C 2.796252 2.931773 -1.097587 0
M  V30 13 C 3.905418 3.933591 -0.682632 0
M  V30 14 C 1.686303 3.142885 -0.156085 0
M  V30 15 C 0.530978 -1.064933 2.164459 0
M  V30 16 C -0.539135 -1.356111 2.975870 0
M  V30 17 C -1.623553 -2.089688 2.542816 0
M  V30 18 C -2.690301 -2.331420 3.490626 0
M  V30 19 C -3.863741 -3.019923 3.323313 0
M  V30 20 C -4.815237 -3.188846 4.302420 0
M  V30 21 N -4.612114 -2.655927 5.515969 0
M  V30 22 C -3.475172 -1.982369 5.696597 0
M  V30 23 N -2.560869 -1.829622 4.728359 0
M  V30 24 H -3.532193 -4.443322 -0.635084 0
M  V30 25 H -1.730501 -4.319267 -0.773940 0
M  V30 26 H -2.696035 -2.933805 -1.322545 0
M  V30 27 H -0.480184 -2.583024 -0.627028 0
M  V30 28 H 2.520702 -1.865366 -0.003071 0
M  V30 29 H 2.376957 0.437942 -2.685083 0
M  V30 30 H 3.108511 -1.561666 -1.930150 0
M  V30 31 H 4.358012 -0.571273 -2.367869 0
M  V30 32 H 4.034477 1.395377 -0.259944 0
M  V30 33 H 4.297941 1.755394 -1.955488 0
M  V30 34 H 2.470383 3.304334 -2.101771 0
M  V30 35 H 4.650225 3.428794 -0.033032 0
M  V30 36 H 3.479463 4.767609 -0.087495 0
M  V30 37 H 4.395914 4.371764 -1.574848 0
M  V30 38 H 1.725605 4.200452 0.267895 0
M  V30 39 H 0.658761 3.076217 -0.549071 0
M  V30 40 H 1.754363 2.514662 0.753803 0
M  V30 41 H 1.363968 -0.496919 2.510035 0
M  V30 42 H -0.459979 -0.958757 3.991711 0
M  V30 43 H -4.051543 -3.457680 2.358679 0
M  V30 44 H -5.714124 -3.753513 4.067608 0
M  V30 45 H -3.266302 -1.531559 6.666229 0
M  V30 END ATOM
M  V30 BEGIN BOND
M  V30 1 1 1 2
M  V30 2 1 2 3
M  V30 3 2 3 4
M  V30 4 1 4 5
M  V30 5 1 5 6
M  V30 6 1 6 7
M  V30 7 2 7 8
M  V30 8 1 7 9
M  V30 9 1 9 10
M  V30 10 1 9 11
M  V30 11 1 11 12
M  V30 12 1 12 13
M  V30 13 1 12 14
M  V30 14 2 5 15
M  V30 15 1 15 16
M  V30 16 2 16 17
M  V30 17 1 17 18
M  V30 18 2 18 19
M  V30 19 1 19 20
M  V30 20 2 20 21
M  V30 21 1 21 22
M  V30 22 2 22 23
M  V30 23 1 17 3
M  V30 24 1 23 18
M  V30 25 1 1 24
M  V30 26 1 1 25
M  V30 27 1 1 26
M  V30 28 1 4 27
M  V30 29 1 6 28
M  V30 30 1 9 29 CFG=3
M  V30 31 1 10 30
M  V30 32 1 10 31
M  V30 33 1 11 32
M  V30 34 1 11 33
M  V30 35 1 12 34
M  V30 36 1 13 35
M  V30 37 1 13 36
M  V30 38 1 13 37
M  V30 39 1 14 38
M  V30 40 1 14 39
M  V30 41 1 14 40
M  V30 42 1 15 41
M  V30 43 1 16 42
M  V30 44 1 19 43
M  V30 45 1 20 44
M  V30 46 1 22 45
M  V30 END BOND
M  V30 END CTAB
M  END
>  <Dataset>  (300) 
ChEMBL_Kinases

>  <Ligand_Instance>  (300) 
nan

>  <PDB_ID>  (300) 
nan

>  <Standardized_SMILES>  (300) 
COc1cc(NC(=O)[C@H](N)CC(C)C)ccc1-c1ccncn1

>  <Name>  (300) 
nan

>  <Pocket>  (300) 
nan

>  <ATP_Site>  (300) 
nan

>  <Peripheral>  (300) 
nan

>  <Num_H_Atoms_ProtBoundConf>  (300) 
nan

>  <Num_Resolved_Atoms>  (300) 
nan

>  <Num_Not_Resolved_Atoms>  (300) 
nan

$$$$
CHEMBL4077934
     RDKit          3D

  0  0  0  0  0  0  0  0  0  0999 V3000
M  V30 BEGIN CTAB
M  V30 COUNTS 75 80 0 0 0
M  V30 BEGIN ATOM
M  V30 1 C 8.246498 -2.498480 8.635684 0
M  V30 2 O 7.388292 -1.514336 8.129199 0
M  V30 3 C 7.391849 -1.130247 6.799643 0
M  V30 4 C 8.151078 -1.553189 5.725796 0
M  V30 5 C 7.920087 -0.973952 4.500160 0
M  V30 6 C 6.971442 0.003575 4.293930 0
M  V30 7 N 6.590596 0.688486 3.187733 0
M  V30 8 C 5.607264 1.532610 3.546694 0
M  V30 9 C 4.934031 2.452564 2.572937 0
M  V30 10 N 3.792934 1.698590 2.021808 0
M  V30 11 C 2.897642 2.205367 1.073126 0
M  V30 12 O 3.015951 3.363054 0.607126 0
M  V30 13 C 1.762990 1.461193 0.540084 0
M  V30 14 C 1.030954 1.910023 -0.537241 0
M  V30 15 C -0.063690 1.243685 -1.051980 0
M  V30 16 C -0.471965 0.055305 -0.472990 0
M  V30 17 C -1.618894 -0.776982 -0.902209 0
M  V30 18 C -1.356252 -2.152963 -0.822753 0
M  V30 19 N -2.338898 -2.996030 -1.163842 0
M  V30 20 C -3.549302 -2.604862 -1.573611 0
M  V30 21 N -4.649050 -3.425515 -1.928455 0
M  V30 22 C -4.708218 -4.826760 -1.847990 0
M  V30 23 C -5.852639 -5.520657 -2.255137 0
M  V30 24 C -5.986752 -6.885415 -2.196231 0
M  V30 25 C -4.963071 -7.649027 -1.716957 0
M  V30 26 C -3.795343 -7.032444 -1.294063 0
M  V30 27 C -3.728993 -5.671869 -1.380253 0
M  V30 28 N -3.734754 -1.289907 -1.628224 0
M  V30 29 C -2.870770 -0.327739 -1.326725 0
M  V30 30 O -2.855828 1.023549 -1.310812 0
M  V30 31 C -3.878050 1.863285 -1.663902 0
M  V30 32 C -4.384383 1.847352 -3.057206 0
M  V30 33 C -3.319111 2.183274 -4.084539 0
M  V30 34 C -3.833149 1.703389 -5.442055 0
M  V30 35 N -5.258290 1.930232 -5.551464 0
M  V30 36 C -6.052294 1.117440 -4.672136 0
M  V30 37 C -5.143609 0.661119 -3.516004 0
M  V30 38 C 0.278239 -0.388637 0.617673 0
M  V30 39 C 1.369109 0.278270 1.127538 0
M  V30 40 N 5.369081 1.385110 4.859502 0
M  V30 41 C 6.190299 0.448463 5.365368 0
M  V30 42 C 6.423001 -0.138652 6.613659 0
M  V30 43 H 8.757339 -2.115683 9.550338 0
M  V30 44 H 9.028849 -2.835278 7.948457 0
M  V30 45 H 7.705846 -3.412914 8.962980 0
M  V30 46 H 8.852212 -2.310739 5.998866 0
M  V30 47 H 8.554965 -1.351320 3.684607 0
M  V30 48 H 4.596725 3.339458 3.148155 0
M  V30 49 H 5.645829 2.753421 1.773899 0
M  V30 50 H 3.602304 0.720871 2.328196 0
M  V30 51 H 1.330844 2.840855 -1.008926 0
M  V30 52 H -0.650980 1.569478 -1.888295 0
M  V30 53 H -0.441475 -2.634192 -0.513967 0
M  V30 54 H -5.530946 -2.970436 -2.296610 0
M  V30 55 H -6.713386 -4.971162 -2.650729 0
M  V30 56 H -6.876393 -7.384452 -2.515270 0
M  V30 57 H -5.058566 -8.723869 -1.665933 0
M  V30 58 H -2.991038 -7.645475 -0.916696 0
M  V30 59 H -2.807767 -5.259847 -1.039293 0
M  V30 60 H -3.549884 2.923547 -1.401097 0
M  V30 61 H -4.795065 1.749225 -1.003159 0
M  V30 62 H -5.124685 2.719136 -3.115629 0
M  V30 63 H -2.358423 1.713513 -3.876364 0
M  V30 64 H -3.217870 3.284235 -4.168253 0
M  V30 65 H -3.547699 0.652206 -5.559557 0
M  V30 66 H -3.276371 2.272865 -6.204698 0
M  V30 67 H -5.488227 1.733279 -6.567872 0
M  V30 68 H -6.931140 1.665727 -4.270778 0
M  V30 69 H -6.397606 0.185196 -5.179055 0
M  V30 70 H -4.532709 -0.148826 -3.973544 0
M  V30 71 H -5.777637 0.183757 -2.738070 0
M  V30 72 H -0.040626 -1.334533 1.083252 0
M  V30 73 H 1.851766 -0.181767 1.974821 0
M  V30 74 H 4.662717 1.903873 5.425217 0
M  V30 75 H 5.757184 0.290462 7.354973 0
M  V30 END ATOM
M  V30 BEGIN BOND
M  V30 1 1 1 2
M  V30 2 1 2 3
M  V30 3 2 3 4
M  V30 4 1 4 5
M  V30 5 2 5 6
M  V30 6 1 6 7
M  V30 7 2 7 8
M  V30 8 1 8 9
M  V30 9 1 9 10
M  V30 10 1 10 11
M  V30 11 2 11 12
M  V30 12 1 11 13
M  V30 13 2 13 14
M  V30 14 1 14 15
M  V30 15 2 15 16
M  V30 16 1 16 17
M  V30 17 2 17 18
M  V30 18 1 18 19
M  V30 19 2 19 20
M  V30 20 1 20 21
M  V30 21 1 21 22
M  V30 22 2 22 23
M  V30 23 1 23 24
M  V30 24 2 24 25
M  V30 25 1 25 26
M  V30 26 2 26 27
M  V30 27 1 20 28
M  V30 28 2 28 29
M  V30 29 1 29 30
M  V30 30 1 30 31
M  V30 31 1 31 32
M  V30 32 1 32 33
M  V30 33 1 33 34
M  V30 34 1 34 35
M  V30 35 1 35 36
M  V30 36 1 36 37
M  V30 37 1 16 38
M  V30 38 2 38 39
M  V30 39 1 8 40
M  V30 40 1 40 41
M  V30 41 2 41 42
M  V30 42 1 42 3
M  V30 43 1 41 6
M  V30 44 1 39 13
M  V30 45 1 29 17
M  V30 46 1 37 32
M  V30 47 1 27 22
M  V30 48 1 1 43
M  V30 49 1 1 44
M  V30 50 1 1 45
M  V30 51 1 4 46
M  V30 52 1 5 47
M  V30 53 1 9 48
M  V30 54 1 9 49
M  V30 55 1 10 50
M  V30 56 1 14 51
M  V30 57 1 15 52
M  V30 58 1 18 53
M  V30 59 1 21 54
M  V30 60 1 23 55
M  V30 61 1 24 56
M  V30 62 1 25 57
M  V30 63 1 26 58
M  V30 64 1 27 59
M  V30 65 1 31 60
M  V30 66 1 31 61
M  V30 67 1 32 62
M  V30 68 1 33 63
M  V30 69 1 33 64
M  V30 70 1 34 65
M  V30 71 1 34 66
M  V30 72 1 35 67
M  V30 73 1 36 68
M  V30 74 1 36 69
M  V30 75 1 37 70
M  V30 76 1 37 71
M  V30 77 1 38 72
M  V30 78 1 39 73
M  V30 79 1 40 74
M  V30 80 1 42 75
M  V30 END BOND
M  V30 END CTAB
M  END
>  <Dataset>  (301) 
ChEMBL_Kinases

>  <Ligand_Instance>  (301) 
nan

>  <PDB_ID>  (301) 
nan

>  <Standardized_SMILES>  (301) 
COc1ccc2nc(CNC(=O)c3ccc(-c4cnc(Nc5ccccc5)nc4OCC4CCNCC4)cc3)[nH]c2c1

>  <Name>  (301) 
nan

>  <Pocket>  (301) 
nan

>  <ATP_Site>  (301) 
nan

>  <Peripheral>  (301) 
nan

>  <Num_H_Atoms_ProtBoundConf>  (301) 
nan

>  <Num_Resolved_Atoms>  (301) 
nan

>  <Num_Not_Resolved_Atoms>  (301) 
nan

$$$$
CHEMBL4077867
     RDKit          3D

  0  0  0  0  0  0  0  0  0  0999 V3000
M  V30 BEGIN CTAB
M  V30 COUNTS 63 67 0 0 0
M  V30 BEGIN ATOM
M  V30 1 C -1.404604 1.837477 2.299769 0
M  V30 2 O -0.890238 1.155519 1.153098 0
M  V30 3 C 0.257272 0.394445 1.308123 0
M  V30 4 C 0.895007 0.294782 2.543863 0
M  V30 5 C 2.032079 -0.449285 2.731694 0
M  V30 6 F 2.612814 -0.514459 3.947629 0
M  V30 7 C 2.560650 -1.128216 1.631437 0
M  V30 8 C 1.906002 -1.004525 0.439420 0
M  V30 9 C 0.762274 -0.267180 0.213083 0
M  V30 10 C 0.061706 -0.141483 -1.086051 0
M  V30 11 C -1.054982 -1.134031 -1.246582 0
M  V30 12 N -0.538583 -2.453908 -1.006632 0
M  V30 13 C -0.998684 -3.108997 0.163828 0
M  V30 14 N -1.843629 -2.373540 0.905366 0
M  V30 15 C -2.396625 -2.823488 2.070874 0
M  V30 16 C -3.299049 -1.959539 2.806508 0
M  V30 17 C -3.902317 -2.318692 3.982481 0
M  V30 18 C -4.759380 -1.478927 4.667549 0
M  V30 19 N -4.982706 -0.269341 4.122752 0
M  V30 20 C -4.409889 0.125715 2.966547 0
M  V30 21 N -3.588700 -0.729644 2.347188 0
M  V30 22 C -2.057666 -4.077764 2.473636 0
M  V30 23 C -1.199960 -4.841378 1.732994 0
M  V30 24 O -0.877233 -6.000650 2.091023 0
M  V30 25 N -0.694461 -4.331077 0.595412 0
M  V30 26 C 0.199534 -5.141220 -0.169906 0
M  V30 27 C 0.357576 -2.771077 -2.068012 0
M  V30 28 C 0.740321 -1.566866 -2.896400 0
M  V30 29 N 1.008568 -0.390404 -2.114922 0
M  V30 30 C 1.508452 0.702947 -2.854118 0
M  V30 31 C 1.784322 1.942969 -2.135211 0
M  V30 32 C 0.833579 2.944664 -2.000206 0
M  V30 33 C 1.038247 4.134871 -1.334136 0
M  V30 34 C 2.282728 4.334652 -0.763947 0
M  V30 35 C 3.299111 3.390363 -0.845627 0
M  V30 36 C 3.001586 2.212911 -1.540495 0
M  V30 37 H -2.332373 2.357238 2.047603 0
M  V30 38 H -1.532027 1.026593 3.071676 0
M  V30 39 H -0.644608 2.528346 2.747419 0
M  V30 40 H 0.488608 0.820980 3.401376 0
M  V30 41 H 3.460154 -1.729601 1.733641 0
M  V30 42 H 2.341705 -1.539447 -0.393190 0
M  V30 43 H -0.342740 0.867491 -1.125431 0
M  V30 44 H -1.935546 -0.893857 -0.613873 0
M  V30 45 H -1.424411 -1.078709 -2.283648 0
M  V30 46 H -3.701715 -3.288665 4.386883 0
M  V30 47 H -5.226098 -1.790071 5.602043 0
M  V30 48 H -4.612919 1.115454 2.551261 0
M  V30 49 H -2.447154 -4.508394 3.379010 0
M  V30 50 H -0.054139 -5.225906 -1.243504 0
M  V30 51 H 1.267188 -4.890404 0.026696 0
M  V30 52 H 0.118436 -6.212126 0.206683 0
M  V30 53 H 1.250146 -3.308180 -1.708319 0
M  V30 54 H -0.150612 -3.464279 -2.800738 0
M  V30 55 H 0.013227 -1.347314 -3.694034 0
M  V30 56 H 1.700948 -1.831047 -3.396625 0
M  V30 57 H 2.452499 0.348271 -3.364943 0
M  V30 58 H 0.804619 0.853202 -3.725862 0
M  V30 59 H -0.173216 2.845174 -2.434320 0
M  V30 60 H 0.267557 4.890503 -1.252899 0
M  V30 61 H 2.433697 5.278090 -0.241272 0
M  V30 62 H 4.265681 3.558831 -0.397383 0
M  V30 63 H 3.814504 1.489634 -1.589986 0
M  V30 END ATOM
M  V30 BEGIN BOND
M  V30 1 1 1 2
M  V30 2 1 2 3
M  V30 3 2 3 4
M  V30 4 1 4 5
M  V30 5 1 5 6
M  V30 6 2 5 7
M  V30 7 1 7 8
M  V30 8 2 8 9
M  V30 9 1 9 10
M  V30 10 1 10 11
M  V30 11 1 11 12
M  V30 12 1 12 13
M  V30 13 2 13 14
M  V30 14 1 14 15
M  V30 15 1 15 16
M  V30 16 2 16 17
M  V30 17 1 17 18
M  V30 18 2 18 19
M  V30 19 1 19 20
M  V30 20 2 20 21
M  V30 21 2 15 22
M  V30 22 1 22 23
M  V30 23 2 23 24
M  V30 24 1 23 25
M  V30 25 1 25 26
M  V30 26 1 12 27
M  V30 27 1 27 28
M  V30 28 1 28 29
M  V30 29 1 29 30
M  V30 30 1 30 31
M  V30 31 2 31 32
M  V30 32 1 32 33
M  V30 33 2 33 34
M  V30 34 1 34 35
M  V30 35 2 35 36
M  V30 36 1 9 3
M  V30 37 1 29 10
M  V30 38 1 36 31
M  V30 39 1 25 13
M  V30 40 1 21 16
M  V30 41 1 1 37
M  V30 42 1 1 38
M  V30 43 1 1 39
M  V30 44 1 4 40
M  V30 45 1 7 41
M  V30 46 1 8 42
M  V30 47 1 10 43
M  V30 48 1 11 44
M  V30 49 1 11 45
M  V30 50 1 17 46
M  V30 51 1 18 47
M  V30 52 1 20 48
M  V30 53 1 22 49
M  V30 54 1 26 50
M  V30 55 1 26 51
M  V30 56 1 26 52
M  V30 57 1 27 53
M  V30 58 1 27 54
M  V30 59 1 28 55
M  V30 60 1 28 56
M  V30 61 1 30 57
M  V30 62 1 30 58
M  V30 63 1 32 59
M  V30 64 1 33 60
M  V30 65 1 34 61
M  V30 66 1 35 62
M  V30 67 1 36 63
M  V30 END BOND
M  V30 END CTAB
M  END
>  <Dataset>  (302) 
ChEMBL_Kinases

>  <Ligand_Instance>  (302) 
nan

>  <PDB_ID>  (302) 
nan

>  <Standardized_SMILES>  (302) 
COc1cc(F)ccc1C1CN(c2nc(-c3ccncn3)cc(=O)n2C)CCN1Cc1ccccc1

>  <Name>  (302) 
nan

>  <Pocket>  (302) 
nan

>  <ATP_Site>  (302) 
nan

>  <Peripheral>  (302) 
nan

>  <Num_H_Atoms_ProtBoundConf>  (302) 
nan

>  <Num_Resolved_Atoms>  (302) 
nan

>  <Num_Not_Resolved_Atoms>  (302) 
nan

$$$$
CHEMBL4077722
     RDKit          3D

  0  0  0  0  0  0  0  0  0  0999 V3000
M  V30 BEGIN CTAB
M  V30 COUNTS 42 45 0 0 0
M  V30 BEGIN ATOM
M  V30 1 C 2.302490 -3.025851 1.092657 0
M  V30 2 O 2.262933 -1.828228 0.381204 0
M  V30 3 C 2.075881 -1.674980 -0.959182 0
M  V30 4 C 1.914429 -2.832614 -1.663483 0
M  V30 5 C 1.720707 -2.757320 -3.048295 0
M  V30 6 C 1.697337 -1.511610 -3.673008 0
M  V30 7 C 1.859221 -0.334119 -2.971887 0
M  V30 8 N 1.859500 0.888300 -3.512078 0
M  V30 9 C 2.030991 2.020443 -2.814478 0
M  V30 10 C 2.214381 1.868798 -1.456693 0
M  V30 11 C 2.228050 0.629497 -0.804637 0
M  V30 12 N 2.428614 0.721141 0.595359 0
M  V30 13 C 1.676190 0.424416 1.790144 0
M  V30 14 C 2.321875 0.341703 3.003653 0
M  V30 15 C 1.506857 0.077674 4.076269 0
M  V30 16 N 0.177594 -0.093040 3.988617 0
M  V30 17 C -0.491750 -0.021086 2.828240 0
M  V30 18 C -1.923902 -0.219207 2.836198 0
M  V30 19 C -2.518451 -0.474273 4.067296 0
M  V30 20 C -3.874900 -0.679929 4.202719 0
M  V30 21 Cl -4.578177 -0.997341 5.770735 0
M  V30 22 C -4.713303 -0.642018 3.113932 0
M  V30 23 C -4.150065 -0.394010 1.902350 0
M  V30 24 C -2.802377 -0.192387 1.787054 0
M  V30 25 F -2.323467 0.044938 0.568705 0
M  V30 26 C 0.310416 0.241796 1.751070 0
M  V30 27 C 2.044802 -0.466484 -1.616424 0
M  V30 28 H 3.066832 -3.678431 0.619261 0
M  V30 29 H 2.681648 -2.801068 2.112441 0
M  V30 30 H 1.336418 -3.569368 1.109678 0
M  V30 31 H 1.920188 -3.838604 -1.252415 0
M  V30 32 H 1.579531 -3.615759 -3.719523 0
M  V30 33 H 1.546108 -1.442968 -4.760127 0
M  V30 34 H 2.026335 2.994435 -3.284520 0
M  V30 35 H 2.352066 2.817852 -0.914010 0
M  V30 36 H 3.402688 1.114648 0.756083 0
M  V30 37 H 3.384772 0.482402 3.044152 0
M  V30 38 H 1.963214 0.001862 5.056321 0
M  V30 39 H -1.944510 -0.525691 4.993346 0
M  V30 40 H -5.770838 -0.802574 3.221049 0
M  V30 41 H -4.794437 -0.360956 1.037502 0
M  V30 42 H -0.140999 0.317463 0.776439 0
M  V30 END ATOM
M  V30 BEGIN BOND
M  V30 1 1 1 2
M  V30 2 1 2 3
M  V30 3 2 3 4
M  V30 4 1 4 5
M  V30 5 2 5 6
M  V30 6 1 6 7
M  V30 7 2 7 8
M  V30 8 1 8 9
M  V30 9 2 9 10
M  V30 10 1 10 11
M  V30 11 1 11 12
M  V30 12 1 12 13
M  V30 13 2 13 14
M  V30 14 1 14 15
M  V30 15 2 15 16
M  V30 16 1 16 17
M  V30 17 1 17 18
M  V30 18 2 18 19
M  V30 19 1 19 20
M  V30 20 1 20 21
M  V30 21 2 20 22
M  V30 22 1 22 23
M  V30 23 2 23 24
M  V30 24 1 24 25
M  V30 25 2 17 26
M  V30 26 2 11 27
M  V30 27 1 27 3
M  V30 28 1 27 7
M  V30 29 1 26 13
M  V30 30 1 24 18
M  V30 31 1 1 28
M  V30 32 1 1 29
M  V30 33 1 1 30
M  V30 34 1 4 31
M  V30 35 1 5 32
M  V30 36 1 6 33
M  V30 37 1 9 34
M  V30 38 1 10 35
M  V30 39 1 12 36
M  V30 40 1 14 37
M  V30 41 1 15 38
M  V30 42 1 19 39
M  V30 43 1 22 40
M  V30 44 1 23 41
M  V30 45 1 26 42
M  V30 END BOND
M  V30 END CTAB
M  END
>  <Dataset>  (303) 
ChEMBL_Kinases

>  <Ligand_Instance>  (303) 
nan

>  <PDB_ID>  (303) 
nan

>  <Standardized_SMILES>  (303) 
COc1cccc2nccc(Nc3ccnc(-c4cc(Cl)ccc4F)c3)c12

>  <Name>  (303) 
nan

>  <Pocket>  (303) 
nan

>  <ATP_Site>  (303) 
nan

>  <Peripheral>  (303) 
nan

>  <Num_H_Atoms_ProtBoundConf>  (303) 
nan

>  <Num_Resolved_Atoms>  (303) 
nan

>  <Num_Not_Resolved_Atoms>  (303) 
nan

$$$$
CHEMBL4855979
     RDKit          3D

  0  0  0  0  0  0  0  0  0  0999 V3000
M  V30 BEGIN CTAB
M  V30 COUNTS 54 57 0 0 0
M  V30 BEGIN ATOM
M  V30 1 C 7.113745 -4.317087 1.096504 0
M  V30 2 N 6.270460 -3.757874 0.056931 0
M  V30 3 C 5.790835 -2.430716 -0.020991 0
M  V30 4 O 6.127773 -1.665417 0.897351 0
M  V30 5 C 4.952164 -2.090515 -1.164724 0
M  V30 6 C 4.507515 -0.784822 -1.198620 0
M  V30 7 C 3.711573 -0.399555 -2.252304 0
M  V30 8 O 3.132702 0.850047 -2.525471 0
M  V30 9 C 1.856129 1.015108 -1.970709 0
M  V30 10 C 1.874314 1.550984 -0.698420 0
M  V30 11 C 0.692106 1.774015 -0.017758 0
M  V30 12 C -0.485661 1.429943 -0.686532 0
M  V30 13 N -1.703532 1.671419 0.042537 0
M  V30 14 C -2.125136 0.539177 0.850947 0
M  V30 15 O -1.104138 0.004962 0.391466 0
M  V30 16 C -3.344630 0.715621 1.610867 0
M  V30 17 N -4.097283 1.791845 1.637493 0
M  V30 18 C -5.057204 2.037275 2.186905 0
M  V30 19 N -5.859142 3.262084 2.179564 0
M  V30 20 C -6.909286 3.347673 1.170657 0
M  V30 21 S -5.291426 0.403619 3.095420 0
M  V30 22 C -3.785235 -0.337783 2.396287 0
M  V30 23 C -3.446640 -1.691034 2.781726 0
M  V30 24 C -4.309187 -2.312587 3.660311 0
M  V30 25 C -4.048457 -3.622085 4.079402 0
M  V30 26 C -2.947509 -4.312189 3.636281 0
M  V30 27 F -2.728409 -5.576909 4.063593 0
M  V30 28 C -2.057752 -3.734415 2.758966 0
M  V30 29 C -2.382595 -2.451448 2.396186 0
M  V30 30 C -0.510944 0.896662 -1.951748 0
M  V30 31 C 0.677455 0.679829 -2.618456 0
M  V30 32 C 3.385967 -1.331317 -3.237534 0
M  V30 33 C 3.852042 -2.639649 -3.171341 0
M  V30 34 N 4.626144 -2.971643 -2.124843 0
M  V30 35 H 7.245543 -3.561734 1.902191 0
M  V30 36 H 8.080057 -4.637949 0.638370 0
M  V30 37 H 6.645248 -5.208210 1.574591 0
M  V30 38 H 6.083807 -4.540401 -0.634223 0
M  V30 39 H 4.690737 0.010439 -0.506392 0
M  V30 40 H 2.772728 1.825446 -0.159734 0
M  V30 41 H 0.656105 2.191562 0.979966 0
M  V30 42 H -2.211249 2.633967 -0.047669 0
M  V30 43 H -5.762502 4.084327 2.818759 0
M  V30 44 H -6.872041 4.304054 0.602815 0
M  V30 45 H -7.916318 3.255234 1.586422 0
M  V30 46 H -6.801719 2.547638 0.408920 0
M  V30 47 H -5.222751 -1.938698 4.118891 0
M  V30 48 H -4.701760 -4.137540 4.765280 0
M  V30 49 H -1.183184 -4.240344 2.387638 0
M  V30 50 H -1.690940 -2.005973 1.715895 0
M  V30 51 H -1.442277 0.641282 -2.440867 0
M  V30 52 H 0.755997 0.266249 -3.612148 0
M  V30 53 H 2.765205 -1.161668 -4.125865 0
M  V30 54 H 3.623513 -3.394355 -3.914081 0
M  V30 END ATOM
M  V30 BEGIN BOND
M  V30 1 1 1 2
M  V30 2 1 2 3
M  V30 3 2 3 4
M  V30 4 1 3 5
M  V30 5 2 5 6
M  V30 6 1 6 7
M  V30 7 1 7 8
M  V30 8 1 8 9
M  V30 9 2 9 10
M  V30 10 1 10 11
M  V30 11 2 11 12
M  V30 12 1 12 13
M  V30 13 1 13 14
M  V30 14 2 14 15
M  V30 15 1 14 16
M  V30 16 1 16 17
M  V30 17 2 17 18
M  V30 18 1 18 19
M  V30 19 1 19 20
M  V30 20 1 18 21
M  V30 21 1 21 22
M  V30 22 1 22 23
M  V30 23 2 23 24
M  V30 24 1 24 25
M  V30 25 2 25 26
M  V30 26 1 26 27
M  V30 27 1 26 28
M  V30 28 2 28 29
M  V30 29 1 12 30
M  V30 30 2 30 31
M  V30 31 2 7 32
M  V30 32 1 32 33
M  V30 33 2 33 34
M  V30 34 1 34 5
M  V30 35 1 31 9
M  V30 36 2 22 16
M  V30 37 1 29 23
M  V30 38 1 1 35
M  V30 39 1 1 36
M  V30 40 1 1 37
M  V30 41 1 2 38
M  V30 42 1 6 39
M  V30 43 1 10 40
M  V30 44 1 11 41
M  V30 45 1 13 42
M  V30 46 1 19 43
M  V30 47 1 20 44
M  V30 48 1 20 45
M  V30 49 1 20 46
M  V30 50 1 24 47
M  V30 51 1 25 48
M  V30 52 1 28 49
M  V30 53 1 29 50
M  V30 54 1 30 51
M  V30 55 1 31 52
M  V30 56 1 32 53
M  V30 57 1 33 54
M  V30 END BOND
M  V30 END CTAB
M  END
>  <Dataset>  (304) 
ChEMBL_Kinases

>  <Ligand_Instance>  (304) 
nan

>  <PDB_ID>  (304) 
nan

>  <Standardized_SMILES>  (304) 
CNC(=O)c1cc(Oc2ccc(NC(=O)c3nc(NC)sc3-c3ccc(F)cc3)cc2)ccn1

>  <Name>  (304) 
nan

>  <Pocket>  (304) 
nan

>  <ATP_Site>  (304) 
nan

>  <Peripheral>  (304) 
nan

>  <Num_H_Atoms_ProtBoundConf>  (304) 
nan

>  <Num_Resolved_Atoms>  (304) 
nan

>  <Num_Not_Resolved_Atoms>  (304) 
nan

$$$$
CHEMBL4077675
     RDKit          3D

  0  0  0  0  0  0  0  0  0  0999 V3000
M  V30 BEGIN CTAB
M  V30 COUNTS 63 64 0 0 0
M  V30 BEGIN ATOM
M  V30 1 C 1.701170 -0.294952 6.014472 0
M  V30 2 C 2.017298 0.892718 5.133149 0
M  V30 3 C 3.092463 0.566056 4.094433 0
M  V30 4 C 3.299209 1.824262 3.294899 0
M  V30 5 C 4.326932 1.715457 2.219585 0
M  V30 6 C 4.007762 0.643183 1.197843 0
M  V30 7 C 5.085542 0.585544 0.147969 0
M  V30 8 C 4.827578 -0.470408 -0.872201 0
M  V30 9 C 3.557010 -0.309580 -1.646661 0
M  V30 10 C 3.445438 -1.456601 -2.611088 0
M  V30 11 C 2.219739 -1.446941 -3.459491 0
M  V30 12 C 0.969584 -1.484833 -2.666241 0
M  V30 13 O 0.768955 -1.430764 -1.402032 0
M  V30 14 N -0.281085 -1.604029 -3.346307 0
M  V30 15 N -1.460531 -1.641377 -2.617718 0
M  V30 16 C -2.442005 -0.764048 -2.172770 0
M  V30 17 O -2.251118 0.454269 -2.516159 0
M  V30 18 C -3.616727 -1.082690 -1.388907 0
M  V30 19 C -3.988760 -2.284697 -0.810392 0
M  V30 20 O -3.110002 -3.341843 -0.986165 0
M  V30 21 C -5.127252 -2.498064 -0.097390 0
M  V30 22 C -5.351337 -3.772261 0.425794 0
M  V30 23 C -6.512951 -3.990760 1.165001 0
M  V30 24 Br -6.760068 -5.752307 1.856749 0
M  V30 25 C -7.372757 -2.947257 1.337366 0
M  V30 26 C -7.157601 -1.690738 0.823835 0
M  V30 27 C -5.997085 -1.444851 0.077974 0
M  V30 28 N -5.673500 -0.259216 -0.467452 0
M  V30 29 C -6.613487 0.814248 -0.259969 0
M  V30 30 C -4.538947 -0.087685 -1.166030 0
M  V30 31 O -4.369305 1.091751 -1.621316 0
M  V30 32 H 0.670418 -0.163551 6.419297 0
M  V30 33 H 1.726240 -1.262165 5.496095 0
M  V30 34 H 2.374423 -0.322401 6.905391 0
M  V30 35 H 2.411524 1.714466 5.768272 0
M  V30 36 H 1.116622 1.239830 4.597833 0
M  V30 37 H 4.006235 0.248033 4.611226 0
M  V30 38 H 2.709649 -0.265915 3.471487 0
M  V30 39 H 3.646192 2.606420 4.004180 0
M  V30 40 H 2.327069 2.104465 2.828658 0
M  V30 41 H 4.308409 2.698638 1.673753 0
M  V30 42 H 5.362794 1.614135 2.589301 0
M  V30 43 H 4.019298 -0.335204 1.751779 0
M  V30 44 H 3.012151 0.756521 0.771399 0
M  V30 45 H 5.099661 1.575759 -0.357588 0
M  V30 46 H 6.044886 0.362200 0.659166 0
M  V30 47 H 5.675018 -0.423386 -1.622123 0
M  V30 48 H 4.923374 -1.506705 -0.450666 0
M  V30 49 H 3.681081 0.624619 -2.270503 0
M  V30 50 H 2.696276 -0.223516 -0.974089 0
M  V30 51 H 4.316863 -1.349645 -3.318149 0
M  V30 52 H 3.557278 -2.441198 -2.123266 0
M  V30 53 H 2.242973 -2.395228 -4.069283 0
M  V30 54 H 2.200380 -0.621955 -4.191651 0
M  V30 55 H -0.286797 -1.659869 -4.391014 0
M  V30 56 H -1.520412 -2.654182 -2.402750 0
M  V30 57 H -3.371553 -4.130129 -1.570359 0
M  V30 58 H -4.642195 -4.575740 0.267183 0
M  V30 59 H -8.251248 -3.172790 1.917565 0
M  V30 60 H -7.854372 -0.873832 0.967139 0
M  V30 61 H -6.086768 1.769617 -0.541769 0
M  V30 62 H -6.923076 0.931680 0.788221 0
M  V30 63 H -7.542022 0.666873 -0.865223 0
M  V30 END ATOM
M  V30 BEGIN BOND
M  V30 1 1 1 2
M  V30 2 1 2 3
M  V30 3 1 3 4
M  V30 4 1 4 5
M  V30 5 1 5 6
M  V30 6 1 6 7
M  V30 7 1 7 8
M  V30 8 1 8 9
M  V30 9 1 9 10
M  V30 10 1 10 11
M  V30 11 1 11 12
M  V30 12 2 12 13
M  V30 13 1 12 14
M  V30 14 1 14 15
M  V30 15 1 15 16
M  V30 16 2 16 17
M  V30 17 1 16 18
M  V30 18 2 18 19
M  V30 19 1 19 20
M  V30 20 1 19 21
M  V30 21 2 21 22
M  V30 22 1 22 23
M  V30 23 1 23 24
M  V30 24 2 23 25
M  V30 25 1 25 26
M  V30 26 2 26 27
M  V30 27 1 27 28
M  V30 28 1 28 29
M  V30 29 1 28 30
M  V30 30 2 30 31
M  V30 31 1 30 18
M  V30 32 1 27 21
M  V30 33 1 1 32
M  V30 34 1 1 33
M  V30 35 1 1 34
M  V30 36 1 2 35
M  V30 37 1 2 36
M  V30 38 1 3 37
M  V30 39 1 3 38
M  V30 40 1 4 39
M  V30 41 1 4 40
M  V30 42 1 5 41
M  V30 43 1 5 42
M  V30 44 1 6 43
M  V30 45 1 6 44
M  V30 46 1 7 45
M  V30 47 1 7 46
M  V30 48 1 8 47
M  V30 49 1 8 48
M  V30 50 1 9 49
M  V30 51 1 9 50
M  V30 52 1 10 51
M  V30 53 1 10 52
M  V30 54 1 11 53
M  V30 55 1 11 54
M  V30 56 1 14 55
M  V30 57 1 15 56
M  V30 58 1 20 57
M  V30 59 1 22 58
M  V30 60 1 25 59
M  V30 61 1 26 60
M  V30 62 1 29 61
M  V30 63 1 29 62
M  V30 64 1 29 63
M  V30 END BOND
M  V30 END CTAB
M  END
>  <Dataset>  (305) 
ChEMBL_Kinases

>  <Ligand_Instance>  (305) 
nan

>  <PDB_ID>  (305) 
nan

>  <Standardized_SMILES>  (305) 
CCCCCCCCCCCC(=O)NNC(=O)c1c(O)c2cc(Br)ccc2n(C)c1=O

>  <Name>  (305) 
nan

>  <Pocket>  (305) 
nan

>  <ATP_Site>  (305) 
nan

>  <Peripheral>  (305) 
nan

>  <Num_H_Atoms_ProtBoundConf>  (305) 
nan

>  <Num_Resolved_Atoms>  (305) 
nan

>  <Num_Not_Resolved_Atoms>  (305) 
nan

$$$$
CHEMBL4077627
     RDKit          3D

  0  0  0  0  0  0  0  0  0  0999 V3000
M  V30 BEGIN CTAB
M  V30 COUNTS 50 53 0 0 0
M  V30 BEGIN ATOM
M  V30 1 C 5.931063 6.201705 3.875284 0
M  V30 2 C 4.889337 5.265274 3.259408 0
M  V30 3 O 5.464670 4.072059 2.870695 0
M  V30 4 C 4.508297 3.215057 2.365563 0
M  V30 5 C 3.770366 3.691992 1.150667 0
M  V30 6 N 2.796386 2.785340 0.655289 0
M  V30 7 C 2.910987 1.431522 0.159292 0
M  V30 8 O 4.134021 1.043752 0.203032 0
M  V30 9 C 1.807123 0.620365 -0.321538 0
M  V30 10 C 2.195779 -0.633904 -0.757893 0
M  V30 11 C 1.261950 -1.531150 -1.247300 0
M  V30 12 C -0.060776 -1.151359 -1.292689 0
M  V30 13 O -1.196097 -1.820462 -1.725914 0
M  V30 14 C -1.860610 -2.683362 -0.802715 0
M  V30 15 S -1.260471 -2.926516 0.805712 0
M  V30 16 C -2.565288 -4.079831 1.320155 0
M  V30 17 C -2.589809 -4.668327 2.646274 0
M  V30 18 N -1.578305 -4.356013 3.589808 0
M  V30 19 O -3.419629 -5.473664 3.148611 0
M  V30 20 C -3.334417 -4.160867 0.197409 0
M  V30 21 C -2.951312 -3.426530 -0.897030 0
M  V30 22 C -3.820114 -3.528258 -2.115528 0
M  V30 23 S -3.706930 -2.776014 -3.651317 0
M  V30 24 N -5.252125 -3.572248 -4.338736 0
M  V30 25 C -5.658201 -4.341130 -3.238571 0
M  V30 26 C -4.905711 -4.307836 -2.096272 0
M  V30 27 C -5.359570 -5.135449 -0.959574 0
M  V30 28 C -4.525633 -5.037531 0.247671 0
M  V30 29 C -0.431521 0.106600 -0.852600 0
M  V30 30 N 0.512786 0.974601 -0.372634 0
M  V30 31 H 5.538227 7.228963 3.951683 0
M  V30 32 H 6.859705 6.127385 3.275858 0
M  V30 33 H 6.164752 5.811846 4.897734 0
M  V30 34 H 4.081339 5.040801 3.966160 0
M  V30 35 H 4.533651 5.801608 2.338078 0
M  V30 36 H 3.803065 2.909400 3.178571 0
M  V30 37 H 5.064582 2.262281 2.116872 0
M  V30 38 H 4.464221 3.952983 0.317512 0
M  V30 39 H 3.264036 4.663768 1.403022 0
M  V30 40 H 1.771870 3.084755 0.611414 0
M  V30 41 H 3.203729 -1.055187 -0.774726 0
M  V30 42 H 1.407329 -2.518696 -1.617458 0
M  V30 43 H -0.890772 -4.845672 4.164832 0
M  V30 44 H -0.831653 -4.737027 4.222498 0
M  V30 45 H -6.531855 -4.790183 -3.634141 0
M  V30 46 H -6.447128 -4.939548 -0.703568 0
M  V30 47 H -5.406912 -6.233938 -1.253335 0
M  V30 48 H -5.218069 -4.710983 1.090144 0
M  V30 49 H -4.237328 -6.084304 0.596593 0
M  V30 50 H -1.397513 0.592494 -0.803038 0
M  V30 END ATOM
M  V30 BEGIN BOND
M  V30 1 1 1 2
M  V30 2 1 2 3
M  V30 3 1 3 4
M  V30 4 1 4 5
M  V30 5 1 5 6
M  V30 6 1 6 7
M  V30 7 2 7 8
M  V30 8 1 7 9
M  V30 9 2 9 10
M  V30 10 1 10 11
M  V30 11 2 11 12
M  V30 12 1 12 13
M  V30 13 1 13 14
M  V30 14 1 14 15
M  V30 15 1 15 16
M  V30 16 1 16 17
M  V30 17 1 17 18
M  V30 18 2 17 19
M  V30 19 2 16 20
M  V30 20 1 20 21
M  V30 21 1 21 22
M  V30 22 1 22 23
M  V30 23 1 23 24
M  V30 24 2 24 25
M  V30 25 1 25 26
M  V30 26 1 26 27
M  V30 27 1 27 28
M  V30 28 1 12 29
M  V30 29 2 29 30
M  V30 30 1 30 9
M  V30 31 2 21 14
M  V30 32 2 26 22
M  V30 33 1 28 20
M  V30 34 1 1 31
M  V30 35 1 1 32
M  V30 36 1 1 33
M  V30 37 1 2 34
M  V30 38 1 2 35
M  V30 39 1 4 36
M  V30 40 1 4 37
M  V30 41 1 5 38
M  V30 42 1 5 39
M  V30 43 1 6 40
M  V30 44 1 10 41
M  V30 45 1 11 42
M  V30 46 1 18 43
M  V30 47 1 18 44
M  V30 48 1 25 45
M  V30 49 1 27 46
M  V30 50 1 27 47
M  V30 51 1 28 48
M  V30 52 1 28 49
M  V30 53 1 29 50
M  V30 END BOND
M  V30 END CTAB
M  END
>  <Dataset>  (306) 
ChEMBL_Kinases

>  <Ligand_Instance>  (306) 
nan

>  <PDB_ID>  (306) 
nan

>  <Standardized_SMILES>  (306) 
CCOCCNC(=O)c1ccc(Oc2sc(C(N)=O)c3c2-c2sncc2CC3)cn1

>  <Name>  (306) 
nan

>  <Pocket>  (306) 
nan

>  <ATP_Site>  (306) 
nan

>  <Peripheral>  (306) 
nan

>  <Num_H_Atoms_ProtBoundConf>  (306) 
nan

>  <Num_Resolved_Atoms>  (306) 
nan

>  <Num_Not_Resolved_Atoms>  (306) 
nan

$$$$
CHEMBL4077602
     RDKit          3D

  0  0  0  0  0  0  0  0  0  0999 V3000
M  V30 BEGIN CTAB
M  V30 COUNTS 61 65 0 0 0
M  V30 BEGIN ATOM
M  V30 1 C 6.759175 2.257747 6.490444 0
M  V30 2 N 6.263478 1.692295 5.262060 0
M  V30 3 C 5.115782 2.214822 4.591988 0
M  V30 4 O 4.601094 3.189470 5.170176 0
M  V30 5 C 4.623177 1.633103 3.347781 0
M  V30 6 C 5.180875 0.560161 2.700534 0
M  V30 7 C 4.659403 0.062455 1.524086 0
M  V30 8 C 3.538817 0.642389 0.953930 0
M  V30 9 C 2.984928 1.729110 1.621806 0
M  V30 10 C 3.495640 2.241784 2.803961 0
M  V30 11 C 1.796646 2.512885 1.217752 0
M  V30 12 O 1.680834 3.690909 1.697969 0
M  V30 13 C 0.762473 2.020634 0.312250 0
M  V30 14 C -0.222419 2.946230 0.147634 0
M  V30 15 C -1.297321 2.706480 -0.656955 0
M  V30 16 C -1.463788 1.527840 -1.352281 0
M  V30 17 N -2.577740 1.301480 -2.195654 0
M  V30 18 C -3.201548 0.139865 -2.682790 0
M  V30 19 C -3.981954 0.162411 -3.810244 0
M  V30 20 C -4.614638 -0.940912 -4.303267 0
M  V30 21 C -4.497982 -2.161990 -3.677560 0
M  V30 22 F -5.125422 -3.252295 -4.168299 0
M  V30 23 C -3.728000 -2.257174 -2.537283 0
M  V30 24 N -3.593937 -3.507952 -1.875354 0
M  V30 25 C -4.442682 -3.997372 -0.841773 0
M  V30 26 O -5.393251 -3.211728 -0.512961 0
M  V30 27 C -4.208605 -5.305563 -0.230114 0
M  V30 28 C -3.200206 -6.181081 -0.551908 0
M  V30 29 C -3.121585 -7.384265 0.127754 0
M  V30 30 C -4.012737 -7.749696 1.119488 0
M  V30 31 C -5.038105 -6.879556 1.459187 0
M  V30 32 C -5.101336 -5.679129 0.768042 0
M  V30 33 C -3.117476 -1.103986 -2.094444 0
M  V30 34 C -0.442797 0.624293 -1.154299 0
M  V30 35 C 0.663033 0.815301 -0.354095 0
M  V30 36 C 1.604431 -0.314765 -0.319523 0
M  V30 37 C 3.047779 0.050276 -0.300386 0
M  V30 38 H 7.722274 2.776144 6.372150 0
M  V30 39 H 5.977460 2.914241 6.956057 0
M  V30 40 H 6.912997 1.422917 7.215425 0
M  V30 41 H 6.785934 0.876431 4.881064 0
M  V30 42 H 6.055494 0.103303 3.140401 0
M  V30 43 H 5.089231 -0.779097 1.007970 0
M  V30 44 H 3.026103 3.088434 3.281567 0
M  V30 45 H -0.135734 3.893358 0.676462 0
M  V30 46 H -2.043408 3.504400 -0.733318 0
M  V30 47 H -3.029291 2.204377 -2.523338 0
M  V30 48 H -4.125963 1.083744 -4.362715 0
M  V30 49 H -5.228096 -0.873342 -5.208406 0
M  V30 50 H -2.780109 -4.063627 -2.229552 0
M  V30 51 H -2.524312 -5.873184 -1.323104 0
M  V30 52 H -2.320091 -8.062940 -0.138599 0
M  V30 53 H -3.934228 -8.707401 1.646770 0
M  V30 54 H -5.743919 -7.140221 2.226819 0
M  V30 55 H -5.920397 -5.011893 1.056701 0
M  V30 56 H -2.540765 -1.249660 -1.191777 0
M  V30 57 H -0.443806 -0.335490 -1.649795 0
M  V30 58 H 1.396058 -1.040120 0.504611 0
M  V30 59 H 1.446421 -0.911393 -1.254586 0
M  V30 60 H 3.329246 0.638134 -1.198384 0
M  V30 61 H 3.607050 -0.912204 -0.414644 0
M  V30 END ATOM
M  V30 BEGIN BOND
M  V30 1 1 1 2
M  V30 2 1 2 3
M  V30 3 2 3 4
M  V30 4 1 3 5
M  V30 5 2 5 6
M  V30 6 1 6 7
M  V30 7 2 7 8
M  V30 8 1 8 9
M  V30 9 2 9 10
M  V30 10 1 9 11
M  V30 11 2 11 12
M  V30 12 1 11 13
M  V30 13 2 13 14
M  V30 14 1 14 15
M  V30 15 2 15 16
M  V30 16 1 16 17
M  V30 17 1 17 18
M  V30 18 2 18 19
M  V30 19 1 19 20
M  V30 20 2 20 21
M  V30 21 1 21 22
M  V30 22 1 21 23
M  V30 23 1 23 24
M  V30 24 1 24 25
M  V30 25 2 25 26
M  V30 26 1 25 27
M  V30 27 2 27 28
M  V30 28 1 28 29
M  V30 29 2 29 30
M  V30 30 1 30 31
M  V30 31 2 31 32
M  V30 32 2 23 33
M  V30 33 1 16 34
M  V30 34 2 34 35
M  V30 35 1 35 36
M  V30 36 1 36 37
M  V30 37 1 10 5
M  V30 38 1 35 13
M  V30 39 1 37 8
M  V30 40 1 33 18
M  V30 41 1 32 27
M  V30 42 1 1 38
M  V30 43 1 1 39
M  V30 44 1 1 40
M  V30 45 1 2 41
M  V30 46 1 6 42
M  V30 47 1 7 43
M  V30 48 1 10 44
M  V30 49 1 14 45
M  V30 50 1 15 46
M  V30 51 1 17 47
M  V30 52 1 19 48
M  V30 53 1 20 49
M  V30 54 1 24 50
M  V30 55 1 28 51
M  V30 56 1 29 52
M  V30 57 1 30 53
M  V30 58 1 31 54
M  V30 59 1 32 55
M  V30 60 1 33 56
M  V30 61 1 34 57
M  V30 62 1 36 58
M  V30 63 1 36 59
M  V30 64 1 37 60
M  V30 65 1 37 61
M  V30 END BOND
M  V30 END CTAB
M  END
>  <Dataset>  (307) 
ChEMBL_Kinases

>  <Ligand_Instance>  (307) 
nan

>  <PDB_ID>  (307) 
nan

>  <Standardized_SMILES>  (307) 
CNC(=O)c1ccc2c(c1)C(=O)c1ccc(Nc3ccc(F)c(NC(=O)c4ccccc4)c3)cc1CC2

>  <Name>  (307) 
nan

>  <Pocket>  (307) 
nan

>  <ATP_Site>  (307) 
nan

>  <Peripheral>  (307) 
nan

>  <Num_H_Atoms_ProtBoundConf>  (307) 
nan

>  <Num_Resolved_Atoms>  (307) 
nan

>  <Num_Not_Resolved_Atoms>  (307) 
nan

$$$$
CHEMBL4078098
     RDKit          3D

  0  0  0  0  0  0  0  0  0  0999 V3000
M  V30 BEGIN CTAB
M  V30 COUNTS 81 86 0 0 0
M  V30 BEGIN ATOM
M  V30 1 C 2.465228 -0.107503 5.259436 0
M  V30 2 C 2.199356 0.214103 3.832151 0
M  V30 3 C 2.867413 1.523813 3.362270 0 CFG=2
M  V30 4 C 2.272687 2.583012 4.260353 0
M  V30 5 C 2.622112 3.064291 5.485259 0
M  V30 6 C 3.794043 2.779850 6.257304 0
M  V30 7 N 4.724908 2.547772 6.894721 0
M  V30 8 N 1.634007 3.909885 5.855120 0
M  V30 9 C 0.728857 3.919535 4.857925 0
M  V30 10 N 1.115965 3.092220 3.842264 0
M  V30 11 C 0.448701 3.004049 2.596104 0
M  V30 12 C -0.775942 3.576296 2.339687 0
M  V30 13 N -1.256978 3.379892 1.107943 0
M  V30 14 C -0.635656 2.678944 0.136130 0
M  V30 15 N -1.194533 2.491081 -1.155909 0
M  V30 16 C -1.789519 1.309338 -1.606553 0
M  V30 17 C -1.782117 0.213667 -0.773611 0
M  V30 18 C -2.335097 -0.978336 -1.173651 0
M  V30 19 F -2.309695 -2.020006 -0.328235 0
M  V30 20 C -2.935159 -1.173400 -2.423435 0
M  V30 21 C -3.524746 -2.398740 -2.921937 0
M  V30 22 O -4.149482 -2.381941 -4.030864 0
M  V30 23 N -3.511432 -3.671483 -2.342665 0
M  V30 24 C -3.977244 -4.963748 -2.587192 0
M  V30 25 C -4.612953 -5.748460 -1.532276 0
M  V30 26 C -3.698639 -6.319983 -0.489570 0
M  V30 27 N -2.317248 -6.279824 -0.735120 0
M  V30 28 C -1.574222 -5.723821 0.340542 0
M  V30 29 C -1.810712 -6.137923 -2.035087 0
M  V30 30 C -2.787090 -5.795129 -3.098303 0
M  V30 31 C -2.932088 -0.063400 -3.241229 0
M  V30 32 C -2.375971 1.133687 -2.838852 0
M  V30 33 O -2.412249 2.226987 -3.734532 0
M  V30 34 C -3.007576 2.084882 -5.008530 0
M  V30 35 N 0.556076 2.137968 0.430242 0
M  V30 36 C 1.134871 2.265731 1.620325 0
M  V30 37 N 2.384648 1.743852 2.042666 0
M  V30 38 C 3.316060 1.400909 0.990360 0
M  V30 39 C 3.693651 -0.038252 0.909502 0
M  V30 40 C 4.485032 -0.296083 -0.367500 0
M  V30 41 C 5.236593 0.971107 -0.762248 0
M  V30 42 C 4.181659 1.930649 -1.263103 0
M  V30 43 C 2.938354 1.877564 -0.366039 0
M  V30 44 H 2.011880 0.598749 5.952390 0
M  V30 45 H 1.961117 -1.104456 5.449381 0
M  V30 46 H 3.542764 -0.321947 5.427968 0
M  V30 47 H 1.085806 0.301226 3.680250 0
M  V30 48 H 2.521875 -0.656012 3.233221 0
M  V30 49 H 3.925765 1.405709 3.477712 0
M  V30 50 H -0.143351 4.553970 4.992029 0
M  V30 51 H -1.265782 4.132293 3.113834 0
M  V30 52 H -1.163934 3.303812 -1.842484 0
M  V30 53 H -1.343035 0.265783 0.209265 0
M  V30 54 H -3.017349 -3.804588 -1.437069 0
M  V30 55 H -4.650785 -4.924510 -3.495657 0
M  V30 56 H -5.526840 -5.266061 -1.073897 0
M  V30 57 H -5.084139 -6.640268 -2.050915 0
M  V30 58 H -3.894884 -5.814465 0.488459 0
M  V30 59 H -3.959183 -7.402342 -0.261566 0
M  V30 60 H -2.176680 -5.672261 1.251471 0
M  V30 61 H -1.121123 -4.727243 0.136117 0
M  V30 62 H -0.723966 -6.406597 0.550814 0
M  V30 63 H -0.979738 -5.359298 -2.030174 0
M  V30 64 H -1.270780 -7.077398 -2.318265 0
M  V30 65 H -3.185351 -6.694439 -3.601510 0
M  V30 66 H -2.250150 -5.218109 -3.901364 0
M  V30 67 H -3.379086 -0.132359 -4.230513 0
M  V30 68 H -4.054639 1.702027 -4.817718 0
M  V30 69 H -3.016128 3.096549 -5.472767 0
M  V30 70 H -2.460650 1.385902 -5.655037 0
M  V30 71 H 4.285511 1.943097 1.241642 0
M  V30 72 H 2.766298 -0.648121 0.869795 0
M  V30 73 H 4.324563 -0.414047 1.709386 0
M  V30 74 H 5.282044 -1.076749 -0.213316 0
M  V30 75 H 3.790928 -0.584900 -1.184951 0
M  V30 76 H 5.936186 0.751041 -1.613696 0
M  V30 77 H 5.842572 1.361805 0.060572 0
M  V30 78 H 4.641301 2.942241 -1.282476 0
M  V30 79 H 3.944917 1.640158 -2.301868 0
M  V30 80 H 2.247460 1.221420 -0.912777 0
M  V30 81 H 2.623195 2.950403 -0.318973 0
M  V30 END ATOM
M  V30 BEGIN BOND
M  V30 1 1 1 2
M  V30 2 1 2 3
M  V30 3 1 3 4
M  V30 4 2 4 5
M  V30 5 1 5 6
M  V30 6 3 6 7
M  V30 7 1 5 8
M  V30 8 2 8 9
M  V30 9 1 9 10
M  V30 10 1 10 11
M  V30 11 2 11 12
M  V30 12 1 12 13
M  V30 13 2 13 14
M  V30 14 1 14 15
M  V30 15 1 15 16
M  V30 16 2 16 17
M  V30 17 1 17 18
M  V30 18 1 18 19
M  V30 19 2 18 20
M  V30 20 1 20 21
M  V30 21 2 21 22
M  V30 22 1 21 23
M  V30 23 1 23 24
M  V30 24 1 24 25
M  V30 25 1 25 26
M  V30 26 1 26 27
M  V30 27 1 27 28
M  V30 28 1 27 29
M  V30 29 1 29 30
M  V30 30 1 20 31
M  V30 31 2 31 32
M  V30 32 1 32 33
M  V30 33 1 33 34
M  V30 34 1 14 35
M  V30 35 2 35 36
M  V30 36 1 36 37
M  V30 37 1 37 38
M  V30 38 1 38 39
M  V30 39 1 39 40
M  V30 40 1 40 41
M  V30 41 1 41 42
M  V30 42 1 42 43
M  V30 43 1 37 3
M  V30 44 1 43 38
M  V30 45 1 10 4
M  V30 46 1 36 11
M  V30 47 1 32 16
M  V30 48 1 30 24
M  V30 49 1 1 44
M  V30 50 1 1 45
M  V30 51 1 1 46
M  V30 52 1 2 47
M  V30 53 1 2 48
M  V30 54 1 3 49 CFG=3
M  V30 55 1 9 50
M  V30 56 1 12 51
M  V30 57 1 15 52
M  V30 58 1 17 53
M  V30 59 1 23 54
M  V30 60 1 24 55
M  V30 61 1 25 56
M  V30 62 1 25 57
M  V30 63 1 26 58
M  V30 64 1 26 59
M  V30 65 1 28 60
M  V30 66 1 28 61
M  V30 67 1 28 62
M  V30 68 1 29 63
M  V30 69 1 29 64
M  V30 70 1 30 65
M  V30 71 1 30 66
M  V30 72 1 31 67
M  V30 73 1 34 68
M  V30 74 1 34 69
M  V30 75 1 34 70
M  V30 76 1 38 71
M  V30 77 1 39 72
M  V30 78 1 39 73
M  V30 79 1 40 74
M  V30 80 1 40 75
M  V30 81 1 41 76
M  V30 82 1 41 77
M  V30 83 1 42 78
M  V30 84 1 42 79
M  V30 85 1 43 80
M  V30 86 1 43 81
M  V30 END BOND
M  V30 END CTAB
M  END
>  <Dataset>  (308) 
ChEMBL_Kinases

>  <Ligand_Instance>  (308) 
nan

>  <PDB_ID>  (308) 
nan

>  <Standardized_SMILES>  (308) 
CC[C@@H]1c2c(C#N)ncn2-c2cnc(Nc3cc(F)c(C(=O)NC4CCN(C)CC4)cc3OC)nc2N1C1CCCCC1

>  <Name>  (308) 
nan

>  <Pocket>  (308) 
nan

>  <ATP_Site>  (308) 
nan

>  <Peripheral>  (308) 
nan

>  <Num_H_Atoms_ProtBoundConf>  (308) 
nan

>  <Num_Resolved_Atoms>  (308) 
nan

>  <Num_Not_Resolved_Atoms>  (308) 
nan

$$$$
CHEMBL4855547
     RDKit          3D

  0  0  0  0  0  0  0  0  0  0999 V3000
M  V30 BEGIN CTAB
M  V30 COUNTS 37 39 0 0 0
M  V30 BEGIN ATOM
M  V30 1 C 0.229460 -3.414620 4.894397 0
M  V30 2 O 1.017741 -3.512901 3.725286 0
M  V30 3 C 0.718498 -4.458749 2.763307 0
M  V30 4 O -0.278947 -5.202297 3.001621 0
M  V30 5 C 1.444171 -4.699078 1.472791 0
M  V30 6 C 2.581959 -3.714015 1.396381 0
M  V30 7 O 2.210545 -2.376260 1.426816 0
M  V30 8 C 1.450965 -1.709318 0.519009 0
M  V30 9 C 0.807543 -1.972007 -0.667454 0
M  V30 10 C 0.079161 -1.061812 -1.394316 0
M  V30 11 C -0.013982 0.219568 -0.894152 0
M  V30 12 C 0.596180 0.585364 0.289148 0
M  V30 13 C 1.328106 -0.386914 0.990830 0
M  V30 14 N 0.281244 1.884899 0.435683 0
M  V30 15 C -0.477933 2.317993 -0.584633 0
M  V30 16 C -1.035309 3.548038 -0.869651 0
M  V30 17 C -0.835314 4.713268 0.050094 0
M  V30 18 N -1.771553 3.723866 -1.983392 0
M  V30 19 C -1.982863 2.699322 -2.850035 0
M  V30 20 C -1.445263 1.435875 -2.614329 0
M  V30 21 C -0.692327 1.277125 -1.464620 0
M  V30 22 H -0.526373 -4.235206 4.907022 0
M  V30 23 H -0.320084 -2.455072 4.846511 0
M  V30 24 H 0.906342 -3.486331 5.787444 0
M  V30 25 H 1.867506 -5.729686 1.462921 0
M  V30 26 H 0.759708 -4.605017 0.632271 0
M  V30 27 H 3.066071 -3.924673 0.388403 0
M  V30 28 H 3.366069 -3.963354 2.149681 0
M  V30 29 H 0.953253 -2.986125 -0.974777 0
M  V30 30 H -0.349225 -1.460684 -2.297414 0
M  V30 31 H 1.737294 0.067426 1.890658 0
M  V30 32 H 0.596130 2.461425 1.243627 0
M  V30 33 H -1.690068 4.716261 0.769343 0
M  V30 34 H 0.120741 4.695802 0.575251 0
M  V30 35 H -0.938319 5.651995 -0.540278 0
M  V30 36 H -2.571605 2.805860 -3.757976 0
M  V30 37 H -1.591876 0.593607 -3.282494 0
M  V30 END ATOM
M  V30 BEGIN BOND
M  V30 1 1 1 2
M  V30 2 1 2 3
M  V30 3 2 3 4
M  V30 4 1 3 5
M  V30 5 1 5 6
M  V30 6 1 6 7
M  V30 7 1 7 8
M  V30 8 2 8 9
M  V30 9 1 9 10
M  V30 10 2 10 11
M  V30 11 1 11 12
M  V30 12 2 12 13
M  V30 13 1 12 14
M  V30 14 1 14 15
M  V30 15 2 15 16
M  V30 16 1 16 17
M  V30 17 1 16 18
M  V30 18 2 18 19
M  V30 19 1 19 20
M  V30 20 2 20 21
M  V30 21 1 13 8
M  V30 22 1 21 15
M  V30 23 1 21 11
M  V30 24 1 1 22
M  V30 25 1 1 23
M  V30 26 1 1 24
M  V30 27 1 5 25
M  V30 28 1 5 26
M  V30 29 1 6 27
M  V30 30 1 6 28
M  V30 31 1 9 29
M  V30 32 1 10 30
M  V30 33 1 13 31
M  V30 34 1 14 32
M  V30 35 1 17 33
M  V30 36 1 17 34
M  V30 37 1 17 35
M  V30 38 1 19 36
M  V30 39 1 20 37
M  V30 END BOND
M  V30 END CTAB
M  END
>  <Dataset>  (309) 
ChEMBL_Kinases

>  <Ligand_Instance>  (309) 
nan

>  <PDB_ID>  (309) 
nan

>  <Standardized_SMILES>  (309) 
COC(=O)CCOc1ccc2c(c1)[nH]c1c(C)nccc12

>  <Name>  (309) 
nan

>  <Pocket>  (309) 
nan

>  <ATP_Site>  (309) 
nan

>  <Peripheral>  (309) 
nan

>  <Num_H_Atoms_ProtBoundConf>  (309) 
nan

>  <Num_Resolved_Atoms>  (309) 
nan

>  <Num_Not_Resolved_Atoms>  (309) 
nan

$$$$
CHEMBL4855560
     RDKit          3D

  0  0  0  0  0  0  0  0  0  0999 V3000
M  V30 BEGIN CTAB
M  V30 COUNTS 40 43 0 0 0
M  V30 BEGIN ATOM
M  V30 1 O -1.709289 -3.143069 -2.513825 0
M  V30 2 S -0.629304 -2.098645 -2.501620 0
M  V30 3 O -0.892971 -1.072540 -3.548039 0
M  V30 4 N 0.875012 -2.927668 -2.782493 0
M  V30 5 C 2.045494 -2.129764 -2.743151 0
M  V30 6 C 3.086313 -2.709953 -2.013589 0
M  V30 7 C 4.315788 -2.079922 -1.860191 0
M  V30 8 C 4.526973 -0.853145 -2.436245 0
M  V30 9 C 3.491085 -0.268694 -3.166128 0
M  V30 10 C 2.282150 -0.901974 -3.309543 0
M  V30 11 C -0.609473 -1.399301 -0.892799 0
M  V30 12 C -0.110019 -0.103461 -0.790398 0
M  V30 13 C -0.018892 0.606299 0.400665 0
M  V30 14 C -0.462503 -0.052445 1.528869 0
M  V30 15 C -0.368175 0.690722 2.782741 0
M  V30 16 N 0.714981 1.399937 3.155937 0
M  V30 17 N 0.523465 1.972689 4.341316 0
M  V30 18 C -0.722982 1.643986 4.785527 0
M  V30 19 C -1.423816 1.959219 5.931586 0
M  V30 20 C -2.688316 1.461408 6.087649 0
M  V30 21 F -3.449663 1.714756 7.172925 0
M  V30 22 C -3.245969 0.659888 5.113328 0
M  V30 23 C -2.554208 0.327713 3.944429 0
M  V30 24 C -1.280197 0.840005 3.806435 0
M  V30 25 C -0.963739 -1.337089 1.465289 0
M  V30 26 C -1.039949 -2.012725 0.265941 0
M  V30 27 H 0.932578 -3.951122 -2.970482 0
M  V30 28 H 3.041958 -3.675340 -1.511452 0
M  V30 29 H 5.130222 -2.509819 -1.302291 0
M  V30 30 H 5.476921 -0.340089 -2.331860 0
M  V30 31 H 3.593938 0.682327 -3.637078 0
M  V30 32 H 1.434860 -0.508918 -3.860770 0
M  V30 33 H 0.243259 0.424789 -1.679759 0
M  V30 34 H 0.382614 1.614867 0.400865 0
M  V30 35 H 1.211068 2.577154 4.854691 0
M  V30 36 H -0.978051 2.587425 6.688027 0
M  V30 37 H -4.249902 0.214146 5.146688 0
M  V30 38 H -2.981462 -0.300188 3.173184 0
M  V30 39 H -1.305285 -1.831998 2.364360 0
M  V30 40 H -1.421035 -3.017904 0.147087 0
M  V30 END ATOM
M  V30 BEGIN BOND
M  V30 1 2 1 2
M  V30 2 2 2 3
M  V30 3 1 2 4
M  V30 4 1 4 5
M  V30 5 2 5 6
M  V30 6 1 6 7
M  V30 7 2 7 8
M  V30 8 1 8 9
M  V30 9 2 9 10
M  V30 10 1 2 11
M  V30 11 2 11 12
M  V30 12 1 12 13
M  V30 13 2 13 14
M  V30 14 1 14 15
M  V30 15 2 15 16
M  V30 16 1 16 17
M  V30 17 1 17 18
M  V30 18 2 18 19
M  V30 19 1 19 20
M  V30 20 1 20 21
M  V30 21 2 20 22
M  V30 22 1 22 23
M  V30 23 2 23 24
M  V30 24 1 14 25
M  V30 25 2 25 26
M  V30 26 1 10 5
M  V30 27 1 26 11
M  V30 28 1 24 15
M  V30 29 1 24 18
M  V30 30 1 4 27
M  V30 31 1 6 28
M  V30 32 1 7 29
M  V30 33 1 8 30
M  V30 34 1 9 31
M  V30 35 1 10 32
M  V30 36 1 12 33
M  V30 37 1 13 34
M  V30 38 1 17 35
M  V30 39 1 19 36
M  V30 40 1 22 37
M  V30 41 1 23 38
M  V30 42 1 25 39
M  V30 43 1 26 40
M  V30 END BOND
M  V30 END CTAB
M  END
>  <Dataset>  (310) 
ChEMBL_Kinases

>  <Ligand_Instance>  (310) 
nan

>  <PDB_ID>  (310) 
nan

>  <Standardized_SMILES>  (310) 
O=S(=O)(Nc1ccccc1)c1ccc(-c2n[nH]c3cc(F)ccc23)cc1

>  <Name>  (310) 
nan

>  <Pocket>  (310) 
nan

>  <ATP_Site>  (310) 
nan

>  <Peripheral>  (310) 
nan

>  <Num_H_Atoms_ProtBoundConf>  (310) 
nan

>  <Num_Resolved_Atoms>  (310) 
nan

>  <Num_Not_Resolved_Atoms>  (310) 
nan

$$$$
CHEMBL4855590
     RDKit          3D

  0  0  0  0  0  0  0  0  0  0999 V3000
M  V30 BEGIN CTAB
M  V30 COUNTS 56 58 0 0 0
M  V30 BEGIN ATOM
M  V30 1 C -1.685855 -3.009939 1.773210 0
M  V30 2 N -0.450914 -3.782340 1.682793 0
M  V30 3 C 0.709147 -3.633013 2.537711 0
M  V30 4 C 1.661216 -2.608856 1.937426 0
M  V30 5 N 1.018126 -1.318628 1.806374 0
M  V30 6 C 1.821052 -0.281527 1.248213 0
M  V30 7 C 3.123860 -0.529201 0.864444 0
M  V30 8 C 3.964274 0.420970 0.317214 0
M  V30 9 C 3.454688 1.676657 0.154474 0
M  V30 10 N 3.944850 2.824048 -0.324293 0
M  V30 11 C 3.004105 3.785142 -0.257864 0
M  V30 12 C 1.866832 3.190365 0.295801 0
M  V30 13 C 0.618872 3.925145 0.530251 0
M  V30 14 C 0.025606 3.705087 1.757144 0
M  V30 15 C -1.165801 4.364192 2.065238 0
M  V30 16 C -1.646063 5.197083 1.078897 0
M  V30 17 C -2.886861 5.879627 1.409025 0
M  V30 18 N -3.538891 6.771374 0.525217 0
M  V30 19 O -3.838523 6.148186 2.168076 0
M  V30 20 C -1.113922 5.466205 -0.161616 0
M  V30 21 C 0.061940 4.781568 -0.398935 0
M  V30 22 N 2.199841 1.905638 0.526792 0
M  V30 23 N 1.400824 0.983474 1.052098 0
M  V30 24 C -0.384619 -4.781959 0.647393 0
M  V30 25 O 0.650169 -5.507133 0.488992 0
M  V30 26 O -1.426637 -5.011973 -0.226109 0
M  V30 27 C -1.358031 -5.985304 -1.232352 0
M  V30 28 C -0.232878 -5.719017 -2.181258 0
M  V30 29 C -1.295336 -7.376266 -0.625697 0
M  V30 30 C -2.662190 -5.950987 -2.037718 0
M  V30 31 H -1.663120 -2.283015 0.939161 0
M  V30 32 H -2.554452 -3.694916 1.693855 0
M  V30 33 H -1.682202 -2.536016 2.775668 0
M  V30 34 H 0.392887 -3.258280 3.537010 0
M  V30 35 H 1.211618 -4.592416 2.681275 0
M  V30 36 H 1.987979 -2.966603 0.943688 0
M  V30 37 H 2.521751 -2.472110 2.602072 0
M  V30 38 H 0.047173 -1.030330 2.061057 0
M  V30 39 H 3.545033 -1.519388 0.985975 0
M  V30 40 H 4.973966 0.236465 0.017711 0
M  V30 41 H 3.063715 4.840077 -0.563024 0
M  V30 42 H 0.433901 3.042493 2.506789 0
M  V30 43 H -1.720172 4.273665 2.985554 0
M  V30 44 H -3.854275 7.145652 -0.395713 0
M  V30 45 H -4.004759 7.403999 -0.144309 0
M  V30 46 H -1.581654 6.138110 -0.848986 0
M  V30 47 H 0.567255 4.925208 -1.358228 0
M  V30 48 H 0.573233 -5.084870 -1.805968 0
M  V30 49 H 0.210304 -6.653019 -2.590616 0
M  V30 50 H -0.630651 -5.174876 -3.086740 0
M  V30 51 H -2.354404 -7.627989 -0.323466 0
M  V30 52 H -1.011755 -8.116383 -1.396222 0
M  V30 53 H -0.679549 -7.447763 0.272548 0
M  V30 54 H -2.465185 -6.215173 -3.102246 0
M  V30 55 H -3.146372 -4.970504 -2.028553 0
M  V30 56 H -3.395641 -6.696500 -1.656387 0
M  V30 END ATOM
M  V30 BEGIN BOND
M  V30 1 1 1 2
M  V30 2 1 2 3
M  V30 3 1 3 4
M  V30 4 1 4 5
M  V30 5 1 5 6
M  V30 6 1 6 7
M  V30 7 2 7 8
M  V30 8 1 8 9
M  V30 9 2 9 10
M  V30 10 1 10 11
M  V30 11 2 11 12
M  V30 12 1 12 13
M  V30 13 2 13 14
M  V30 14 1 14 15
M  V30 15 2 15 16
M  V30 16 1 16 17
M  V30 17 1 17 18
M  V30 18 2 17 19
M  V30 19 1 16 20
M  V30 20 2 20 21
M  V30 21 1 12 22
M  V30 22 1 22 23
M  V30 23 1 2 24
M  V30 24 2 24 25
M  V30 25 1 24 26
M  V30 26 1 26 27
M  V30 27 1 27 28
M  V30 28 1 27 29
M  V30 29 1 27 30
M  V30 30 2 23 6
M  V30 31 1 22 9
M  V30 32 1 21 13
M  V30 33 1 1 31
M  V30 34 1 1 32
M  V30 35 1 1 33
M  V30 36 1 3 34
M  V30 37 1 3 35
M  V30 38 1 4 36
M  V30 39 1 4 37
M  V30 40 1 5 38
M  V30 41 1 7 39
M  V30 42 1 8 40
M  V30 43 1 11 41
M  V30 44 1 14 42
M  V30 45 1 15 43
M  V30 46 1 18 44
M  V30 47 1 18 45
M  V30 48 1 20 46
M  V30 49 1 21 47
M  V30 50 1 28 48
M  V30 51 1 28 49
M  V30 52 1 28 50
M  V30 53 1 29 51
M  V30 54 1 29 52
M  V30 55 1 29 53
M  V30 56 1 30 54
M  V30 57 1 30 55
M  V30 58 1 30 56
M  V30 END BOND
M  V30 END CTAB
M  END
>  <Dataset>  (311) 
ChEMBL_Kinases

>  <Ligand_Instance>  (311) 
nan

>  <PDB_ID>  (311) 
nan

>  <Standardized_SMILES>  (311) 
CN(CCNc1ccc2ncc(-c3ccc(C(N)=O)cc3)n2n1)C(=O)OC(C)(C)C

>  <Name>  (311) 
nan

>  <Pocket>  (311) 
nan

>  <ATP_Site>  (311) 
nan

>  <Peripheral>  (311) 
nan

>  <Num_H_Atoms_ProtBoundConf>  (311) 
nan

>  <Num_Resolved_Atoms>  (311) 
nan

>  <Num_Not_Resolved_Atoms>  (311) 
nan

$$$$
CHEMBL4855640
     RDKit          3D

  0  0  0  0  0  0  0  0  0  0999 V3000
M  V30 BEGIN CTAB
M  V30 COUNTS 35 38 0 0 0
M  V30 BEGIN ATOM
M  V30 1 O 3.930725 -3.570462 2.871013 0
M  V30 2 C 2.990359 -4.200437 2.296542 0
M  V30 3 O 3.027107 -5.570178 2.316033 0
M  V30 4 C 1.898946 -3.486777 1.632868 0
M  V30 5 C 0.893169 -4.202115 1.018299 0
M  V30 6 C -0.132667 -3.522227 0.394541 0
M  V30 7 C -0.118028 -2.151921 0.406455 0
M  V30 8 C 0.874179 -1.412481 1.012790 0
M  V30 9 C 1.922482 -2.087464 1.650257 0
M  V30 10 C 0.861797 -0.034070 1.007686 0
M  V30 11 C -0.157119 0.687843 0.387830 0
M  V30 12 C -0.012766 2.134471 0.446130 0
M  V30 13 C -0.034200 3.082276 -0.533964 0
M  V30 14 C 0.112168 4.414860 -0.209635 0
M  V30 15 C 0.282284 4.830926 1.086878 0
M  V30 16 N 0.304563 3.897064 2.058943 0
M  V30 17 C 0.163444 2.604970 1.754430 0
M  V30 18 C -1.142593 -0.064198 -0.213157 0
M  V30 19 C -2.144964 0.666828 -0.813277 0
M  V30 20 C -3.155980 -0.046911 -1.422849 0
M  V30 21 N -3.156942 -1.402069 -1.427014 0
M  V30 22 C -2.152646 -2.088568 -0.824779 0
M  V30 23 C -1.114944 -1.440075 -0.199126 0
M  V30 24 H 3.389645 -6.086004 3.130799 0
M  V30 25 H 0.950565 -5.291613 1.050906 0
M  V30 26 H -0.881075 -4.142092 -0.063036 0
M  V30 27 H 2.733784 -1.565863 2.145877 0
M  V30 28 H 1.682084 0.459556 1.508617 0
M  V30 29 H -0.160080 2.692200 -1.523323 0
M  V30 30 H 0.077609 5.081060 -1.082457 0
M  V30 31 H 0.379936 5.899941 1.157228 0
M  V30 32 H 0.201829 1.970120 2.638108 0
M  V30 33 H -2.171796 1.728280 -0.817618 0
M  V30 34 H -3.958201 0.490339 -1.903619 0
M  V30 35 H -2.288509 -3.146666 -0.909084 0
M  V30 END ATOM
M  V30 BEGIN BOND
M  V30 1 2 1 2
M  V30 2 1 2 3
M  V30 3 1 2 4
M  V30 4 2 4 5
M  V30 5 1 5 6
M  V30 6 2 6 7
M  V30 7 1 7 8
M  V30 8 2 8 9
M  V30 9 1 8 10
M  V30 10 2 10 11
M  V30 11 1 11 12
M  V30 12 2 12 13
M  V30 13 1 13 14
M  V30 14 2 14 15
M  V30 15 1 15 16
M  V30 16 2 16 17
M  V30 17 1 11 18
M  V30 18 2 18 19
M  V30 19 1 19 20
M  V30 20 2 20 21
M  V30 21 1 21 22
M  V30 22 2 22 23
M  V30 23 1 9 4
M  V30 24 1 17 12
M  V30 25 1 23 18
M  V30 26 1 23 7
M  V30 27 1 3 24
M  V30 28 1 5 25
M  V30 29 1 6 26
M  V30 30 1 9 27
M  V30 31 1 10 28
M  V30 32 1 13 29
M  V30 33 1 14 30
M  V30 34 1 15 31
M  V30 35 1 17 32
M  V30 36 1 19 33
M  V30 37 1 20 34
M  V30 38 1 22 35
M  V30 END BOND
M  V30 END CTAB
M  END
>  <Dataset>  (312) 
ChEMBL_Kinases

>  <Ligand_Instance>  (312) 
nan

>  <PDB_ID>  (312) 
nan

>  <Standardized_SMILES>  (312) 
O=C(O)c1ccc2c(c1)cc(-c1cccnc1)c1ccncc12

>  <Name>  (312) 
nan

>  <Pocket>  (312) 
nan

>  <ATP_Site>  (312) 
nan

>  <Peripheral>  (312) 
nan

>  <Num_H_Atoms_ProtBoundConf>  (312) 
nan

>  <Num_Resolved_Atoms>  (312) 
nan

>  <Num_Not_Resolved_Atoms>  (312) 
nan

$$$$
CHEMBL4855657
     RDKit          3D

  0  0  0  0  0  0  0  0  0  0999 V3000
M  V30 BEGIN CTAB
M  V30 COUNTS 47 50 0 0 0
M  V30 BEGIN ATOM
M  V30 1 N -1.512002 -6.133253 1.391909 0
M  V30 2 C -0.155449 -6.025046 1.760467 0
M  V30 3 O 0.282795 -7.083551 2.247148 0
M  V30 4 C 0.584119 -4.784237 1.564398 0
M  V30 5 C 1.904618 -4.790183 1.955282 0
M  V30 6 C 2.590435 -3.601950 1.762028 0
M  V30 7 C 1.966175 -2.503027 1.212762 0
M  V30 8 C 0.632560 -2.518048 0.824721 0
M  V30 9 C 0.041964 -1.398697 0.279996 0
M  V30 10 N 0.752483 -0.185193 0.087319 0
M  V30 11 C 0.060803 0.940857 -0.488722 0 CFG=2
M  V30 12 C 0.802153 2.193126 -0.612077 0
M  V30 13 N 1.316859 2.851930 0.527907 0
M  V30 14 C 2.024789 4.111387 0.241067 0
M  V30 15 C 3.049202 3.706505 1.268658 0
M  V30 16 C 2.591576 2.300963 0.923144 0
M  V30 17 C -1.264956 1.031560 0.160605 0
M  V30 18 C -2.509513 1.239849 -0.447931 0
M  V30 19 C -3.603729 1.286619 0.370799 0
M  V30 20 C -3.554836 1.144740 1.721716 0
M  V30 21 C -2.332996 0.938392 2.338136 0
M  V30 22 Cl -2.259045 0.753672 4.083318 0
M  V30 23 C -1.210173 0.887144 1.531429 0
M  V30 24 N -1.233576 -1.495758 -0.061859 0
M  V30 25 C -1.926870 -2.633941 0.112408 0
M  V30 26 N -1.365072 -3.754576 0.649154 0
M  V30 27 C -0.067902 -3.708297 1.014320 0
M  V30 28 H -2.479826 -5.760712 1.270083 0
M  V30 29 H -2.498357 -6.202283 1.126930 0
M  V30 30 H 2.292469 -5.705987 2.374137 0
M  V30 31 H 3.630436 -3.590146 2.064633 0
M  V30 32 H 2.565968 -1.617532 1.095558 0
M  V30 33 H 1.743201 0.029576 0.299782 0
M  V30 34 H -0.169221 0.608112 -1.546654 0
M  V30 35 H 0.238663 2.971621 -1.200932 0
M  V30 36 H 1.694079 1.990306 -1.282293 0
M  V30 37 H 1.451817 5.027106 0.503770 0
M  V30 38 H 2.501843 4.122067 -0.772767 0
M  V30 39 H 4.103825 3.888207 1.006876 0
M  V30 40 H 2.820351 4.010449 2.311146 0
M  V30 41 H 2.580269 1.613519 1.801736 0
M  V30 42 H 3.186461 1.944174 0.058121 0
M  V30 43 H -2.450900 1.340504 -1.522973 0
M  V30 44 H -4.541648 1.451486 -0.167541 0
M  V30 45 H -4.438132 1.187284 2.334658 0
M  V30 46 H -0.282345 0.719325 2.104722 0
M  V30 47 H -2.963282 -2.742329 -0.155499 0
M  V30 END ATOM
M  V30 BEGIN BOND
M  V30 1 1 1 2
M  V30 2 2 2 3
M  V30 3 1 2 4
M  V30 4 2 4 5
M  V30 5 1 5 6
M  V30 6 2 6 7
M  V30 7 1 7 8
M  V30 8 2 8 9
M  V30 9 1 9 10
M  V30 10 1 10 11
M  V30 11 1 11 12
M  V30 12 1 12 13
M  V30 13 1 13 14
M  V30 14 1 14 15
M  V30 15 1 15 16
M  V30 16 1 11 17
M  V30 17 2 17 18
M  V30 18 1 18 19
M  V30 19 2 19 20
M  V30 20 1 20 21
M  V30 21 1 21 22
M  V30 22 2 21 23
M  V30 23 1 9 24
M  V30 24 2 24 25
M  V30 25 1 25 26
M  V30 26 2 26 27
M  V30 27 1 27 4
M  V30 28 1 27 8
M  V30 29 1 16 13
M  V30 30 1 23 17
M  V30 31 1 1 28
M  V30 32 1 1 29
M  V30 33 1 5 30
M  V30 34 1 6 31
M  V30 35 1 7 32
M  V30 36 1 10 33
M  V30 37 1 11 34 CFG=3
M  V30 38 1 12 35
M  V30 39 1 12 36
M  V30 40 1 14 37
M  V30 41 1 14 38
M  V30 42 1 15 39
M  V30 43 1 15 40
M  V30 44 1 16 41
M  V30 45 1 16 42
M  V30 46 1 18 43
M  V30 47 1 19 44
M  V30 48 1 20 45
M  V30 49 1 23 46
M  V30 50 1 25 47
M  V30 END BOND
M  V30 END CTAB
M  END
>  <Dataset>  (313) 
ChEMBL_Kinases

>  <Ligand_Instance>  (313) 
nan

>  <PDB_ID>  (313) 
nan

>  <Standardized_SMILES>  (313) 
NC(=O)c1cccc2c(N[C@H](CN3CCC3)c3cccc(Cl)c3)ncnc12

>  <Name>  (313) 
nan

>  <Pocket>  (313) 
nan

>  <ATP_Site>  (313) 
nan

>  <Peripheral>  (313) 
nan

>  <Num_H_Atoms_ProtBoundConf>  (313) 
nan

>  <Num_Resolved_Atoms>  (313) 
nan

>  <Num_Not_Resolved_Atoms>  (313) 
nan

$$$$
CHEMBL4855669
     RDKit          3D

  0  0  0  0  0  0  0  0  0  0999 V3000
M  V30 BEGIN CTAB
M  V30 COUNTS 75 79 0 0 0
M  V30 BEGIN ATOM
M  V30 1 C 4.839795 -2.160399 5.666604 0
M  V30 2 C 4.668098 -2.513260 4.199791 0
M  V30 3 C 4.774174 -1.351975 3.316941 0
M  V30 4 O 5.882792 -0.772634 3.489566 0
M  V30 5 N 3.798091 -0.905437 2.386193 0
M  V30 6 C 2.542025 -1.594041 2.236995 0
M  V30 7 C 2.009582 -1.244249 0.858237 0
M  V30 8 C 3.183299 -1.193200 -0.085402 0
M  V30 9 C 4.097199 -0.044309 0.080458 0 CFG=1
M  V30 10 N 3.850472 1.153290 -0.619953 0
M  V30 11 C 4.771492 2.121375 -0.437622 0
M  V30 12 O 5.840470 2.116194 0.272603 0
M  V30 13 C 4.682221 3.358034 -1.043035 0
M  V30 14 C 3.600411 3.631036 -1.880998 0
M  V30 15 C 3.420316 4.952019 -2.585210 0
M  V30 16 C 2.637861 2.665377 -2.093070 0
M  V30 17 C 1.554410 2.890001 -2.912824 0
M  V30 18 N 0.655690 1.866830 -3.059438 0
M  V30 19 C 0.822003 0.693297 -2.432814 0
M  V30 20 N -0.132857 -0.345950 -2.617856 0
M  V30 21 C -1.322336 -0.684265 -1.910846 0
M  V30 22 C -1.742799 0.041220 -0.820982 0
M  V30 23 C -2.874530 -0.207954 -0.070225 0
M  V30 24 C -3.614898 -1.292401 -0.494558 0
M  V30 25 N -4.810527 -1.710506 0.151683 0
M  V30 26 C -5.651836 -2.793710 -0.375177 0
M  V30 27 C -6.931025 -2.860355 0.383027 0
M  V30 28 N -6.751055 -3.052056 1.806470 0
M  V30 29 C -7.853821 -2.380012 2.501464 0
M  V30 30 C -5.538590 -2.395854 2.286005 0
M  V30 31 C -5.355096 -1.170350 1.379374 0
M  V30 32 C -3.228727 -2.047027 -1.582916 0
M  V30 33 C -2.091484 -1.769749 -2.309670 0
M  V30 34 O -1.633407 -2.468693 -3.407100 0
M  V30 35 C -2.299278 -3.597553 -3.937788 0
M  V30 36 N 1.900265 0.548845 -1.652092 0
M  V30 37 C 2.830443 1.462114 -1.434147 0
M  V30 38 C 4.100094 0.275118 1.587300 0
M  V30 39 H 3.850209 -2.305318 6.192740 0
M  V30 40 H 5.079938 -1.089242 5.823989 0
M  V30 41 H 5.577652 -2.830624 6.141355 0
M  V30 42 H 5.491255 -3.224319 3.879284 0
M  V30 43 H 3.730756 -3.044517 4.039227 0
M  V30 44 H 2.551745 -2.661423 2.431181 0
M  V30 45 H 1.831061 -1.080780 2.954309 0
M  V30 46 H 1.356247 -0.383092 0.865329 0
M  V30 47 H 1.411882 -2.142122 0.554327 0
M  V30 48 H 3.804903 -2.096873 0.243748 0
M  V30 49 H 2.923296 -1.480229 -1.124422 0
M  V30 50 H 5.132878 -0.375145 -0.182783 0
M  V30 51 H 5.342132 4.199358 -0.975241 0
M  V30 52 H 2.375234 5.308661 -2.401329 0
M  V30 53 H 4.110010 5.700210 -2.120066 0
M  V30 54 H 3.688800 4.896011 -3.654347 0
M  V30 55 H 1.411608 3.832083 -3.421778 0
M  V30 56 H 0.160783 -0.918797 -3.434015 0
M  V30 57 H -1.153936 0.899606 -0.488659 0
M  V30 58 H -3.189218 0.368797 0.779905 0
M  V30 59 H -5.118313 -3.735364 -0.459297 0
M  V30 60 H -5.919786 -2.479531 -1.423733 0
M  V30 61 H -7.488962 -3.776688 0.039215 0
M  V30 62 H -7.591107 -2.014325 0.164788 0
M  V30 63 H -8.724407 -2.194196 1.858645 0
M  V30 64 H -7.536730 -1.383080 2.906872 0
M  V30 65 H -8.148576 -2.956410 3.418211 0
M  V30 66 H -5.699994 -2.119643 3.332184 0
M  V30 67 H -4.709375 -3.126860 2.147085 0
M  V30 68 H -4.737247 -0.408012 1.859105 0
M  V30 69 H -6.385300 -0.760517 1.217985 0
M  V30 70 H -3.740506 -2.918790 -1.996067 0
M  V30 71 H -1.870213 -3.944747 -4.877448 0
M  V30 72 H -3.364297 -3.334729 -4.146543 0
M  V30 73 H -2.323699 -4.441427 -3.221975 0
M  V30 74 H 5.078698 0.703315 1.886108 0
M  V30 75 H 3.319760 1.018829 1.853968 0
M  V30 END ATOM
M  V30 BEGIN BOND
M  V30 1 1 1 2
M  V30 2 1 2 3
M  V30 3 2 3 4
M  V30 4 1 3 5
M  V30 5 1 5 6
M  V30 6 1 6 7
M  V30 7 1 7 8
M  V30 8 1 8 9
M  V30 9 1 9 10
M  V30 10 1 10 11
M  V30 11 2 11 12
M  V30 12 1 11 13
M  V30 13 2 13 14
M  V30 14 1 14 15
M  V30 15 1 14 16
M  V30 16 2 16 17
M  V30 17 1 17 18
M  V30 18 2 18 19
M  V30 19 1 19 20
M  V30 20 1 20 21
M  V30 21 2 21 22
M  V30 22 1 22 23
M  V30 23 2 23 24
M  V30 24 1 24 25
M  V30 25 1 25 26
M  V30 26 1 26 27
M  V30 27 1 27 28
M  V30 28 1 28 29
M  V30 29 1 28 30
M  V30 30 1 30 31
M  V30 31 1 24 32
M  V30 32 2 32 33
M  V30 33 1 33 34
M  V30 34 1 34 35
M  V30 35 1 19 36
M  V30 36 2 36 37
M  V30 37 1 9 38
M  V30 38 1 38 5
M  V30 39 1 37 10
M  V30 40 1 37 16
M  V30 41 1 33 21
M  V30 42 1 31 25
M  V30 43 1 1 39
M  V30 44 1 1 40
M  V30 45 1 1 41
M  V30 46 1 2 42
M  V30 47 1 2 43
M  V30 48 1 6 44
M  V30 49 1 6 45
M  V30 50 1 7 46
M  V30 51 1 7 47
M  V30 52 1 8 48
M  V30 53 1 8 49
M  V30 54 1 9 50 CFG=3
M  V30 55 1 13 51
M  V30 56 1 15 52
M  V30 57 1 15 53
M  V30 58 1 15 54
M  V30 59 1 17 55
M  V30 60 1 20 56
M  V30 61 1 22 57
M  V30 62 1 23 58
M  V30 63 1 26 59
M  V30 64 1 26 60
M  V30 65 1 27 61
M  V30 66 1 27 62
M  V30 67 1 29 63
M  V30 68 1 29 64
M  V30 69 1 29 65
M  V30 70 1 30 66
M  V30 71 1 30 67
M  V30 72 1 31 68
M  V30 73 1 31 69
M  V30 74 1 32 70
M  V30 75 1 35 71
M  V30 76 1 35 72
M  V30 77 1 35 73
M  V30 78 1 38 74
M  V30 79 1 38 75
M  V30 END BOND
M  V30 END CTAB
M  END
>  <Dataset>  (314) 
ChEMBL_Kinases

>  <Ligand_Instance>  (314) 
nan

>  <PDB_ID>  (314) 
nan

>  <Standardized_SMILES>  (314) 
CCC(=O)N1CCC[C@@H](n2c(=O)cc(C)c3cnc(Nc4ccc(N5CCN(C)CC5)cc4OC)nc32)C1

>  <Name>  (314) 
nan

>  <Pocket>  (314) 
nan

>  <ATP_Site>  (314) 
nan

>  <Peripheral>  (314) 
nan

>  <Num_H_Atoms_ProtBoundConf>  (314) 
nan

>  <Num_Resolved_Atoms>  (314) 
nan

>  <Num_Not_Resolved_Atoms>  (314) 
nan

$$$$
CHEMBL4855684
     RDKit          3D

  0  0  0  0  0  0  0  0  0  0999 V3000
M  V30 BEGIN CTAB
M  V30 COUNTS 44 47 0 0 0
M  V30 BEGIN ATOM
M  V30 1 C 3.229853 -1.361770 0.194045 0
M  V30 2 C 2.518759 -2.456600 -0.541067 0
M  V30 3 C 1.373618 -3.054031 0.264767 0
M  V30 4 N 2.086617 -2.090524 -1.873204 0
M  V30 5 C 2.139365 -2.888723 -2.956394 0
M  V30 6 N 1.665198 -2.264497 -4.050140 0
M  V30 7 N 1.306220 -1.050092 -3.651714 0
M  V30 8 C 1.561368 -0.933620 -2.315290 0
M  V30 9 C 1.307409 0.247826 -1.500643 0
M  V30 10 C 2.011523 1.357727 -1.983364 0
M  V30 11 C 1.890317 2.579102 -1.328335 0
M  V30 12 C 1.095170 2.736915 -0.211771 0
M  V30 13 N 0.738906 3.704960 0.651864 0
M  V30 14 N -0.090159 3.242573 1.562203 0
M  V30 15 C -0.330572 1.924419 1.346714 0
M  V30 16 C -1.204153 1.089909 2.165335 0
M  V30 17 C -2.420803 1.671409 2.488870 0
M  V30 18 C -3.361210 1.013057 3.257736 0
M  V30 19 C -3.103573 -0.269043 3.731967 0
M  V30 20 C -1.882098 -0.810242 3.387197 0
M  V30 21 C -1.529755 -2.151899 3.842950 0
M  V30 22 N -2.373483 -2.973726 4.641047 0
M  V30 23 O -0.473211 -2.829288 3.642727 0
M  V30 24 C -0.943456 -0.181457 2.633040 0
M  V30 25 C 0.421158 1.623711 0.229757 0
M  V30 26 C 0.508057 0.391347 -0.384301 0
M  V30 27 H 4.158069 -1.725890 0.725326 0
M  V30 28 H 3.566173 -0.521285 -0.414382 0
M  V30 29 H 2.559716 -1.069813 1.052797 0
M  V30 30 H 3.276873 -3.288655 -0.640132 0
M  V30 31 H 1.479989 -4.147995 0.415908 0
M  V30 32 H 1.344559 -2.607836 1.296004 0
M  V30 33 H 0.395297 -2.882687 -0.249488 0
M  V30 34 H 2.513612 -3.922695 -2.988026 0
M  V30 35 H 2.671635 1.369710 -2.852405 0
M  V30 36 H 2.418955 3.456957 -1.672704 0
M  V30 37 H 1.102134 4.685587 0.568070 0
M  V30 38 H -2.731752 2.664666 2.176018 0
M  V30 39 H -4.326540 1.447392 3.527102 0
M  V30 40 H -3.781583 -0.864485 4.342867 0
M  V30 41 H -2.812390 -3.910363 4.549335 0
M  V30 42 H -2.614725 -2.523009 5.551929 0
M  V30 43 H 0.018753 -0.580827 2.348831 0
M  V30 44 H 0.018047 -0.517034 -0.103458 0
M  V30 END ATOM
M  V30 BEGIN BOND
M  V30 1 1 1 2
M  V30 2 1 2 3
M  V30 3 1 2 4
M  V30 4 1 4 5
M  V30 5 2 5 6
M  V30 6 1 6 7
M  V30 7 2 7 8
M  V30 8 1 8 9
M  V30 9 2 9 10
M  V30 10 1 10 11
M  V30 11 2 11 12
M  V30 12 1 12 13
M  V30 13 1 13 14
M  V30 14 2 14 15
M  V30 15 1 15 16
M  V30 16 2 16 17
M  V30 17 1 17 18
M  V30 18 2 18 19
M  V30 19 1 19 20
M  V30 20 1 20 21
M  V30 21 1 21 22
M  V30 22 2 21 23
M  V30 23 2 20 24
M  V30 24 1 15 25
M  V30 25 2 25 26
M  V30 26 1 8 4
M  V30 27 1 26 9
M  V30 28 1 25 12
M  V30 29 1 24 16
M  V30 30 1 1 27
M  V30 31 1 1 28
M  V30 32 1 1 29
M  V30 33 1 2 30
M  V30 34 1 3 31
M  V30 35 1 3 32
M  V30 36 1 3 33
M  V30 37 1 5 34
M  V30 38 1 10 35
M  V30 39 1 11 36
M  V30 40 1 13 37
M  V30 41 1 17 38
M  V30 42 1 18 39
M  V30 43 1 19 40
M  V30 44 1 22 41
M  V30 45 1 22 42
M  V30 46 1 24 43
M  V30 47 1 26 44
M  V30 END BOND
M  V30 END CTAB
M  END
>  <Dataset>  (315) 
ChEMBL_Kinases

>  <Ligand_Instance>  (315) 
nan

>  <PDB_ID>  (315) 
nan

>  <Standardized_SMILES>  (315) 
CC(C)n1cnnc1-c1ccc2[nH]nc(-c3cccc(C(N)=O)c3)c2c1

>  <Name>  (315) 
nan

>  <Pocket>  (315) 
nan

>  <ATP_Site>  (315) 
nan

>  <Peripheral>  (315) 
nan

>  <Num_H_Atoms_ProtBoundConf>  (315) 
nan

>  <Num_Resolved_Atoms>  (315) 
nan

>  <Num_Not_Resolved_Atoms>  (315) 
nan

$$$$
CHEMBL4855714
     RDKit          3D

  0  0  0  0  0  0  0  0  0  0999 V3000
M  V30 BEGIN CTAB
M  V30 COUNTS 64 68 0 0 0
M  V30 BEGIN ATOM
M  V30 1 O 0.820610 -2.562004 3.236745 0
M  V30 2 C 1.167413 -3.569724 2.555622 0
M  V30 3 N 2.466778 -3.423716 1.997297 0
M  V30 4 C 2.981946 -2.139620 2.399144 0
M  V30 5 C 3.719191 -1.868776 3.541043 0
M  V30 6 N 4.123240 -0.597030 3.760323 0
M  V30 7 C 3.802525 0.384213 2.865941 0
M  V30 8 C 3.058182 0.146072 1.700260 0
M  V30 9 O 2.915602 1.327246 1.033194 0
M  V30 10 C 2.228099 1.441665 -0.169769 0
M  V30 11 C 3.106197 1.948776 -1.284367 0
M  V30 12 C 2.448128 2.930807 -2.203889 0
M  V30 13 N 1.836465 4.034130 -1.531784 0
M  V30 14 C 0.918650 4.785228 -2.297303 0
M  V30 15 C -0.244434 4.070606 -2.832591 0
M  V30 16 C -1.457173 3.922986 -2.191081 0
M  V30 17 C -2.492408 3.217440 -2.810713 0
M  V30 18 C -2.291018 2.667064 -4.075277 0
M  V30 19 C -1.084680 2.808192 -4.725264 0
M  V30 20 C -0.059197 3.511639 -4.102131 0
M  V30 21 C 1.484380 3.762046 -0.167726 0
M  V30 22 C 1.011515 2.347376 -0.058266 0
M  V30 23 C 2.658674 -1.148519 1.496665 0
M  V30 24 C 0.330494 -4.770039 2.352967 0
M  V30 25 C 0.634915 -5.907938 1.624329 0
M  V30 26 C -0.293835 -6.914884 1.565465 0
M  V30 27 N -1.475953 -6.835080 2.184110 0
M  V30 28 C -1.821772 -5.741257 2.910441 0
M  V30 29 N -3.085734 -5.678964 3.559648 0
M  V30 30 C -4.029851 -5.097912 2.674457 0
M  V30 31 O -3.580711 -4.763863 1.530597 0
M  V30 32 C -5.478792 -4.842782 2.947733 0
M  V30 33 C -6.388021 -5.037990 1.778067 0
M  V30 34 C -6.145640 -3.667754 2.330433 0
M  V30 35 C -0.906740 -4.730946 2.977805 0
M  V30 36 H 2.854126 -4.216678 1.405681 0
M  V30 37 H 3.913180 -2.722177 4.176143 0
M  V30 38 H 4.226484 1.325811 3.239088 0
M  V30 39 H 1.842038 0.452037 -0.476044 0
M  V30 40 H 3.550480 1.087972 -1.803368 0
M  V30 41 H 3.960969 2.485567 -0.809760 0
M  V30 42 H 1.720018 2.392142 -2.814300 0
M  V30 43 H 3.223226 3.350472 -2.876054 0
M  V30 44 H 1.501165 5.315025 -3.099542 0
M  V30 45 H 0.523271 5.613990 -1.665040 0
M  V30 46 H -1.556701 4.375081 -1.203163 0
M  V30 47 H -3.450460 3.111905 -2.281808 0
M  V30 48 H -3.108095 2.115944 -4.552716 0
M  V30 49 H -1.001347 2.354425 -5.704196 0
M  V30 50 H 0.830570 3.548939 -4.716614 0
M  V30 51 H 2.419714 3.856795 0.443150 0
M  V30 52 H 0.789476 4.518930 0.200114 0
M  V30 53 H 0.512832 2.247515 0.926245 0
M  V30 54 H 0.297171 2.049085 -0.824864 0
M  V30 55 H 2.096890 -1.237453 0.584034 0
M  V30 56 H 1.613234 -5.873910 1.163139 0
M  V30 57 H 0.003432 -7.782183 0.978157 0
M  V30 58 H -3.461669 -5.949844 4.493908 0
M  V30 59 H -5.853960 -5.138768 3.941844 0
M  V30 60 H -7.375239 -5.511245 1.937821 0
M  V30 61 H -5.921088 -5.316223 0.795200 0
M  V30 62 H -6.984455 -3.188727 2.863628 0
M  V30 63 H -5.604941 -2.980446 1.670632 0
M  V30 64 H -1.226897 -3.876048 3.570273 0
M  V30 END ATOM
M  V30 BEGIN BOND
M  V30 1 2 1 2
M  V30 2 1 2 3
M  V30 3 1 3 4
M  V30 4 2 4 5
M  V30 5 1 5 6
M  V30 6 2 6 7
M  V30 7 1 7 8
M  V30 8 1 8 9
M  V30 9 1 9 10
M  V30 10 1 10 11
M  V30 11 1 11 12
M  V30 12 1 12 13
M  V30 13 1 13 14
M  V30 14 1 14 15
M  V30 15 2 15 16
M  V30 16 1 16 17
M  V30 17 2 17 18
M  V30 18 1 18 19
M  V30 19 2 19 20
M  V30 20 1 13 21
M  V30 21 1 21 22
M  V30 22 2 8 23
M  V30 23 1 2 24
M  V30 24 2 24 25
M  V30 25 1 25 26
M  V30 26 2 26 27
M  V30 27 1 27 28
M  V30 28 1 28 29
M  V30 29 1 29 30
M  V30 30 2 30 31
M  V30 31 1 30 32
M  V30 32 1 32 33
M  V30 33 1 33 34
M  V30 34 2 28 35
M  V30 35 1 23 4
M  V30 36 1 35 24
M  V30 37 1 22 10
M  V30 38 1 34 32
M  V30 39 1 20 15
M  V30 40 1 3 36
M  V30 41 1 5 37
M  V30 42 1 7 38
M  V30 43 1 10 39
M  V30 44 1 11 40
M  V30 45 1 11 41
M  V30 46 1 12 42
M  V30 47 1 12 43
M  V30 48 1 14 44
M  V30 49 1 14 45
M  V30 50 1 16 46
M  V30 51 1 17 47
M  V30 52 1 18 48
M  V30 53 1 19 49
M  V30 54 1 20 50
M  V30 55 1 21 51
M  V30 56 1 21 52
M  V30 57 1 22 53
M  V30 58 1 22 54
M  V30 59 1 23 55
M  V30 60 1 25 56
M  V30 61 1 26 57
M  V30 62 1 29 58
M  V30 63 1 32 59
M  V30 64 1 33 60
M  V30 65 1 33 61
M  V30 66 1 34 62
M  V30 67 1 34 63
M  V30 68 1 35 64
M  V30 END BOND
M  V30 END CTAB
M  END
>  <Dataset>  (316) 
ChEMBL_Kinases

>  <Ligand_Instance>  (316) 
nan

>  <PDB_ID>  (316) 
nan

>  <Standardized_SMILES>  (316) 
O=C(Nc1cncc(OC2CCN(Cc3ccccc3)CC2)c1)c1ccnc(NC(=O)C2CC2)c1

>  <Name>  (316) 
nan

>  <Pocket>  (316) 
nan

>  <ATP_Site>  (316) 
nan

>  <Peripheral>  (316) 
nan

>  <Num_H_Atoms_ProtBoundConf>  (316) 
nan

>  <Num_Resolved_Atoms>  (316) 
nan

>  <Num_Not_Resolved_Atoms>  (316) 
nan

$$$$
CHEMBL4078985
     RDKit          3D

  0  0  0  0  0  0  0  0  0  0999 V3000
M  V30 BEGIN CTAB
M  V30 COUNTS 24 26 0 0 0
M  V30 BEGIN ATOM
M  V30 1 C 1.355513 -1.222525 4.589002 0
M  V30 2 C 0.779974 -2.351922 4.016388 0
M  V30 3 C 0.419499 -2.197941 2.689959 0
M  V30 4 C 0.616633 -1.012527 1.988840 0
M  V30 5 C 0.207432 -0.933806 0.591112 0
M  V30 6 N -0.360959 -1.833764 -0.216437 0
M  V30 7 N -0.567470 -1.346427 -1.424709 0
M  V30 8 C -0.134973 -0.067953 -1.477230 0
M  V30 9 C -0.173620 0.776505 -2.549631 0
M  V30 10 C 0.345286 2.052060 -2.322406 0
M  V30 11 C 0.852574 2.394010 -1.083456 0
M  V30 12 C 0.853777 1.474855 -0.046938 0
M  V30 13 C 0.347961 0.180346 -0.210983 0
M  V30 14 N 1.182054 0.025340 2.631916 0
M  V30 15 C 1.563620 -0.034600 3.920174 0
M  V30 16 H 1.645405 -1.336788 5.644945 0
M  V30 17 H 0.630985 -3.269447 4.570555 0
M  V30 18 H -0.036578 -3.018921 2.153024 0
M  V30 19 H -1.007874 -1.930217 -2.177967 0
M  V30 20 H -0.565835 0.504798 -3.499296 0
M  V30 21 H 0.366893 2.807076 -3.101533 0
M  V30 22 H 1.265954 3.369843 -0.857135 0
M  V30 23 H 1.250693 1.742004 0.922888 0
M  V30 24 H 2.015196 0.821748 4.402934 0
M  V30 END ATOM
M  V30 BEGIN BOND
M  V30 1 2 1 2
M  V30 2 1 2 3
M  V30 3 2 3 4
M  V30 4 1 4 5
M  V30 5 2 5 6
M  V30 6 1 6 7
M  V30 7 1 7 8
M  V30 8 2 8 9
M  V30 9 1 9 10
M  V30 10 2 10 11
M  V30 11 1 11 12
M  V30 12 2 12 13
M  V30 13 1 4 14
M  V30 14 2 14 15
M  V30 15 1 15 1
M  V30 16 1 13 5
M  V30 17 1 13 8
M  V30 18 1 1 16
M  V30 19 1 2 17
M  V30 20 1 3 18
M  V30 21 1 7 19
M  V30 22 1 9 20
M  V30 23 1 10 21
M  V30 24 1 11 22
M  V30 25 1 12 23
M  V30 26 1 15 24
M  V30 END BOND
M  V30 END CTAB
M  END
>  <Dataset>  (317) 
ChEMBL_Kinases

>  <Ligand_Instance>  (317) 
nan

>  <PDB_ID>  (317) 
nan

>  <Standardized_SMILES>  (317) 
c1ccc(-c2n[nH]c3ccccc23)nc1

>  <Name>  (317) 
nan

>  <Pocket>  (317) 
nan

>  <ATP_Site>  (317) 
nan

>  <Peripheral>  (317) 
nan

>  <Num_H_Atoms_ProtBoundConf>  (317) 
nan

>  <Num_Resolved_Atoms>  (317) 
nan

>  <Num_Not_Resolved_Atoms>  (317) 
nan

$$$$
CHEMBL4855780
     RDKit          3D

  0  0  0  0  0  0  0  0  0  0999 V3000
M  V30 BEGIN CTAB
M  V30 COUNTS 61 65 0 0 0
M  V30 BEGIN ATOM
M  V30 1 C 4.054493 -1.722813 3.972332 0
M  V30 2 O 4.086147 -0.878187 2.864618 0
M  V30 3 C 4.136994 0.498904 2.998218 0
M  V30 4 C 4.162201 1.192135 4.200972 0
M  V30 5 C 4.212890 2.567218 4.268820 0
M  V30 6 C 4.240380 3.303661 3.085523 0
M  V30 7 F 4.290912 4.662646 3.163065 0
M  V30 8 C 4.215077 2.612461 1.892843 0
M  V30 9 C 4.164244 1.233300 1.826464 0
M  V30 10 C 4.139900 0.544352 0.524868 0
M  V30 11 C 5.305734 0.167096 -0.111243 0
M  V30 12 C 5.163463 -0.472549 -1.325933 0
M  V30 13 N 3.972844 -0.741143 -1.908508 0
M  V30 14 C 2.815413 -0.385019 -1.311735 0
M  V30 15 N 1.513409 -0.505067 -1.621189 0
M  V30 16 C 0.729803 0.037580 -0.648490 0
M  V30 17 C -0.736770 0.115022 -0.594122 0
M  V30 18 C -1.267461 0.697064 0.466880 0
M  V30 19 C -2.744179 0.794956 0.558690 0
M  V30 20 N -3.461864 0.051808 -0.416504 0
M  V30 21 C -4.121652 -1.104341 0.032293 0 CFG=1
M  V30 22 C -4.892062 -1.788911 -1.069338 0
M  V30 23 C -4.156875 -2.926324 -1.711688 0
M  V30 24 C -3.612909 -3.938486 -0.757128 0 CFG=2
M  V30 25 C -4.251065 -5.266403 -0.940010 0
M  V30 26 O -4.896848 -5.855639 -0.033284 0
M  V30 27 O -4.178903 -5.959027 -2.139109 0
M  V30 28 C -3.846825 -3.470443 0.668124 0
M  V30 29 C -3.298343 -2.067363 0.830661 0
M  V30 30 C -2.877213 0.101026 -1.693425 0
M  V30 31 C -1.477511 -0.471453 -1.739538 0
M  V30 32 C 1.643758 0.509227 0.298400 0
M  V30 33 C 2.940189 0.255567 -0.096584 0
M  V30 34 H 3.522834 -2.694847 3.754524 0
M  V30 35 H 5.107409 -2.041198 4.190168 0
M  V30 36 H 3.528228 -1.316851 4.855496 0
M  V30 37 H 4.140528 0.609812 5.105352 0
M  V30 38 H 4.229996 3.040438 5.240559 0
M  V30 39 H 4.236645 3.192319 0.958746 0
M  V30 40 H 6.270761 0.368032 0.329224 0
M  V30 41 H 6.115294 -0.754600 -1.796730 0
M  V30 42 H 1.131632 -0.948325 -2.481378 0
M  V30 43 H -0.688275 1.108719 1.278009 0
M  V30 44 H -3.021489 0.441133 1.581958 0
M  V30 45 H -2.979880 1.897252 0.495867 0
M  V30 46 H -4.927923 -0.747680 0.750421 0
M  V30 47 H -5.198916 -1.091972 -1.876018 0
M  V30 48 H -5.830181 -2.249261 -0.634886 0
M  V30 49 H -3.386997 -2.628311 -2.445943 0
M  V30 50 H -4.935415 -3.450926 -2.346346 0
M  V30 51 H -2.519944 -4.072625 -0.912642 0
M  V30 52 H -4.848788 -6.675719 -2.399071 0
M  V30 53 H -4.886875 -3.584383 0.988138 0
M  V30 54 H -3.177168 -4.130775 1.292323 0
M  V30 55 H -3.398127 -1.855704 1.933878 0
M  V30 56 H -2.238105 -2.126229 0.570944 0
M  V30 57 H -2.723212 1.203783 -1.924088 0
M  V30 58 H -3.494344 -0.240520 -2.544022 0
M  V30 59 H -0.956674 -0.145143 -2.669579 0
M  V30 60 H -1.427099 -1.560249 -1.603233 0
M  V30 61 H 1.360901 1.002353 1.208819 0
M  V30 END ATOM
M  V30 BEGIN BOND
M  V30 1 1 1 2
M  V30 2 1 2 3
M  V30 3 2 3 4
M  V30 4 1 4 5
M  V30 5 2 5 6
M  V30 6 1 6 7
M  V30 7 1 6 8
M  V30 8 2 8 9
M  V30 9 1 9 10
M  V30 10 2 10 11
M  V30 11 1 11 12
M  V30 12 2 12 13
M  V30 13 1 13 14
M  V30 14 1 14 15
M  V30 15 1 15 16
M  V30 16 1 16 17
M  V30 17 2 17 18
M  V30 18 1 18 19
M  V30 19 1 19 20
M  V30 20 1 20 21
M  V30 21 1 21 22
M  V30 22 1 22 23
M  V30 23 1 23 24
M  V30 24 1 24 25
M  V30 25 2 25 26
M  V30 26 1 25 27
M  V30 27 1 24 28
M  V30 28 1 28 29
M  V30 29 1 20 30
M  V30 30 1 30 31
M  V30 31 2 16 32
M  V30 32 1 32 33
M  V30 33 1 9 3
M  V30 34 1 33 10
M  V30 35 2 33 14
M  V30 36 1 31 17
M  V30 37 1 29 21
M  V30 38 1 1 34
M  V30 39 1 1 35
M  V30 40 1 1 36
M  V30 41 1 4 37
M  V30 42 1 5 38
M  V30 43 1 8 39
M  V30 44 1 11 40
M  V30 45 1 12 41
M  V30 46 1 15 42
M  V30 47 1 18 43
M  V30 48 1 19 44
M  V30 49 1 19 45
M  V30 50 1 21 46 CFG=1
M  V30 51 1 22 47
M  V30 52 1 22 48
M  V30 53 1 23 49
M  V30 54 1 23 50
M  V30 55 1 24 51 CFG=3
M  V30 56 1 27 52
M  V30 57 1 28 53
M  V30 58 1 28 54
M  V30 59 1 29 55
M  V30 60 1 29 56
M  V30 61 1 30 57
M  V30 62 1 30 58
M  V30 63 1 31 59
M  V30 64 1 31 60
M  V30 65 1 32 61
M  V30 END BOND
M  V30 END CTAB
M  END
>  <Dataset>  (318) 
ChEMBL_Kinases

>  <Ligand_Instance>  (318) 
nan

>  <PDB_ID>  (318) 
nan

>  <Standardized_SMILES>  (318) 
COc1ccc(F)cc1-c1ccnc2[nH]c(C3=CCN([C@H]4CC[C@H](C(=O)O)CC4)CC3)cc12

>  <Name>  (318) 
nan

>  <Pocket>  (318) 
nan

>  <ATP_Site>  (318) 
nan

>  <Peripheral>  (318) 
nan

>  <Num_H_Atoms_ProtBoundConf>  (318) 
nan

>  <Num_Resolved_Atoms>  (318) 
nan

>  <Num_Not_Resolved_Atoms>  (318) 
nan

$$$$
CHEMBL4078941
     RDKit          3D

  0  0  0  0  0  0  0  0  0  0999 V3000
M  V30 BEGIN CTAB
M  V30 COUNTS 42 45 0 0 0
M  V30 BEGIN ATOM
M  V30 1 C -0.671412 -6.386521 0.514514 0
M  V30 2 C 0.791988 -6.143014 0.620853 0
M  V30 3 N 1.766993 -7.036477 0.853561 0
M  V30 4 N 2.967000 -6.440169 0.879955 0
M  V30 5 C 2.830973 -5.107193 0.662233 0
M  V30 6 C 1.492005 -4.959152 0.508075 0
M  V30 7 C 0.834086 -3.656072 0.243716 0
M  V30 8 C 1.354937 -2.434502 0.107488 0
M  V30 9 C 0.526935 -1.382059 -0.135127 0
M  V30 10 N 0.787830 -0.073226 -0.310095 0
M  V30 11 C -0.130651 0.846854 -0.541247 0
M  V30 12 C 0.267893 2.232247 -0.730635 0
M  V30 13 N 0.429550 3.109363 0.319056 0
M  V30 14 C -0.783066 3.302176 1.059963 0
M  V30 15 C -0.619118 2.288422 2.200532 0
M  V30 16 C 0.873195 2.087088 2.331882 0
M  V30 17 C 1.408167 3.009654 1.300014 0 CFG=2
M  V30 18 C 1.537829 4.395552 1.968151 0
M  V30 19 N -1.451747 0.573560 -0.629290 0
M  V30 20 C -1.837751 -0.707230 -0.470703 0
M  V30 21 O -3.009476 -1.153306 -0.517291 0
M  V30 22 C -0.860191 -1.665457 -0.227749 0
M  V30 23 S -0.901813 -3.475567 0.045746 0
M  V30 24 H -1.245964 -5.882726 1.330831 0
M  V30 25 H -0.837615 -7.478644 0.610588 0
M  V30 26 H -1.093050 -5.999488 -0.437366 0
M  V30 27 H 3.885580 -6.944146 1.047405 0
M  V30 28 H 3.617289 -4.366331 0.625850 0
M  V30 29 H 2.426600 -2.326247 0.196017 0
M  V30 30 H -0.390521 2.697235 -1.537601 0
M  V30 31 H 1.261867 2.184128 -1.283803 0
M  V30 32 H -1.710541 3.037494 0.540740 0
M  V30 33 H -0.859004 4.334723 1.485051 0
M  V30 34 H -1.153149 1.355207 2.031431 0
M  V30 35 H -0.989864 2.734191 3.157635 0
M  V30 36 H 1.153466 1.018232 2.211024 0
M  V30 37 H 1.234059 2.450528 3.342405 0
M  V30 38 H 2.439862 2.798686 0.976149 0
M  V30 39 H 0.739962 4.520328 2.742310 0
M  V30 40 H 2.492408 4.454998 2.533440 0
M  V30 41 H 1.552334 5.197113 1.216529 0
M  V30 42 H -2.262984 1.197202 -0.810527 0
M  V30 END ATOM
M  V30 BEGIN BOND
M  V30 1 1 1 2
M  V30 2 2 2 3
M  V30 3 1 3 4
M  V30 4 1 4 5
M  V30 5 2 5 6
M  V30 6 1 6 7
M  V30 7 2 7 8
M  V30 8 1 8 9
M  V30 9 1 9 10
M  V30 10 2 10 11
M  V30 11 1 11 12
M  V30 12 1 12 13
M  V30 13 1 13 14
M  V30 14 1 14 15
M  V30 15 1 15 16
M  V30 16 1 16 17
M  V30 17 1 17 18
M  V30 18 1 11 19
M  V30 19 1 19 20
M  V30 20 2 20 21
M  V30 21 1 20 22
M  V30 22 1 22 23
M  V30 23 1 6 2
M  V30 24 1 23 7
M  V30 25 2 22 9
M  V30 26 1 17 13
M  V30 27 1 1 24
M  V30 28 1 1 25
M  V30 29 1 1 26
M  V30 30 1 4 27
M  V30 31 1 5 28
M  V30 32 1 8 29
M  V30 33 1 12 30
M  V30 34 1 12 31
M  V30 35 1 14 32
M  V30 36 1 14 33
M  V30 37 1 15 34
M  V30 38 1 15 35
M  V30 39 1 16 36
M  V30 40 1 16 37
M  V30 41 1 17 38 CFG=3
M  V30 42 1 18 39
M  V30 43 1 18 40
M  V30 44 1 18 41
M  V30 45 1 19 42
M  V30 END BOND
M  V30 END CTAB
M  END
>  <Dataset>  (319) 
ChEMBL_Kinases

>  <Ligand_Instance>  (319) 
nan

>  <PDB_ID>  (319) 
nan

>  <Standardized_SMILES>  (319) 
Cc1n[nH]cc1-c1cc2nc(CN3CCC[C@@H]3C)[nH]c(=O)c2s1

>  <Name>  (319) 
nan

>  <Pocket>  (319) 
nan

>  <ATP_Site>  (319) 
nan

>  <Peripheral>  (319) 
nan

>  <Num_H_Atoms_ProtBoundConf>  (319) 
nan

>  <Num_Resolved_Atoms>  (319) 
nan

>  <Num_Not_Resolved_Atoms>  (319) 
nan

$$$$
CHEMBL4855883
     RDKit          3D

  0  0  0  0  0  0  0  0  0  0999 V3000
M  V30 BEGIN CTAB
M  V30 COUNTS 26 28 0 0 0
M  V30 BEGIN ATOM
M  V30 1 C -4.487865 -2.315962 2.935327 0
M  V30 2 O -3.227497 -1.760127 3.223221 0
M  V30 3 C -2.215628 -1.574371 2.289818 0
M  V30 4 N -1.096497 -1.016206 2.834285 0
M  V30 5 C -0.026629 -0.781650 2.017920 0
M  V30 6 C -0.076567 -1.103649 0.665470 0
M  V30 7 C 1.069259 -0.851122 -0.203049 0
M  V30 8 N 1.575382 -1.696757 -1.113549 0
M  V30 9 N 2.615216 -1.152706 -1.728383 0
M  V30 10 C 2.839755 0.082258 -1.246037 0
M  V30 11 N 3.752776 1.054323 -1.513766 0
M  V30 12 C 3.703222 2.227540 -0.824405 0
M  V30 13 C 2.759191 2.494655 0.152687 0
M  V30 14 Br 2.702804 4.130063 1.102447 0
M  V30 15 C 1.843196 1.469137 0.393610 0
M  V30 16 C 1.880017 0.273850 -0.296698 0
M  V30 17 C -1.231933 -1.667861 0.157152 0
M  V30 18 N -2.280894 -1.892334 0.982142 0
M  V30 19 H -4.683925 -3.150148 3.664628 0
M  V30 20 H -4.584884 -2.723784 1.914405 0
M  V30 21 H -5.304206 -1.580097 3.074508 0
M  V30 22 H 0.857568 -0.336108 2.468506 0
M  V30 23 H 3.186261 -1.615541 -2.485252 0
M  V30 24 H 4.425000 3.027598 -1.018644 0
M  V30 25 H 1.099268 1.654399 1.149681 0
M  V30 26 H -1.316431 -1.932330 -0.877881 0
M  V30 END ATOM
M  V30 BEGIN BOND
M  V30 1 1 1 2
M  V30 2 1 2 3
M  V30 3 2 3 4
M  V30 4 1 4 5
M  V30 5 2 5 6
M  V30 6 1 6 7
M  V30 7 2 7 8
M  V30 8 1 8 9
M  V30 9 1 9 10
M  V30 10 2 10 11
M  V30 11 1 11 12
M  V30 12 2 12 13
M  V30 13 1 13 14
M  V30 14 1 13 15
M  V30 15 2 15 16
M  V30 16 1 6 17
M  V30 17 2 17 18
M  V30 18 1 18 3
M  V30 19 1 16 7
M  V30 20 1 16 10
M  V30 21 1 1 19
M  V30 22 1 1 20
M  V30 23 1 1 21
M  V30 24 1 5 22
M  V30 25 1 9 23
M  V30 26 1 12 24
M  V30 27 1 15 25
M  V30 28 1 17 26
M  V30 END BOND
M  V30 END CTAB
M  END
>  <Dataset>  (320) 
ChEMBL_Kinases

>  <Ligand_Instance>  (320) 
nan

>  <PDB_ID>  (320) 
nan

>  <Standardized_SMILES>  (320) 
COc1ncc(-c2n[nH]c3ncc(Br)cc23)cn1

>  <Name>  (320) 
nan

>  <Pocket>  (320) 
nan

>  <ATP_Site>  (320) 
nan

>  <Peripheral>  (320) 
nan

>  <Num_H_Atoms_ProtBoundConf>  (320) 
nan

>  <Num_Resolved_Atoms>  (320) 
nan

>  <Num_Not_Resolved_Atoms>  (320) 
nan

$$$$
CHEMBL4855789
     RDKit          3D

  0  0  0  0  0  0  0  0  0  0999 V3000
M  V30 BEGIN CTAB
M  V30 COUNTS 36 38 0 0 0
M  V30 BEGIN ATOM
M  V30 1 N 1.082687 -4.807104 5.517537 0
M  V30 2 C 1.607137 -4.242038 4.644265 0
M  V30 3 C 2.237497 -3.544169 3.555056 0
M  V30 4 C 3.605747 -3.659167 3.445552 0
M  V30 5 C 4.201948 -2.990534 2.403495 0
M  V30 6 C 3.466654 -2.245882 1.517638 0
M  V30 7 N 4.162848 -1.641066 0.544643 0
M  V30 8 C 3.522716 -0.880351 -0.382060 0
M  V30 9 C 2.154826 -0.779245 -0.253822 0
M  V30 10 C 1.380581 -1.370660 0.716654 0
M  V30 11 N -0.023182 -1.257330 0.805298 0
M  V30 12 C -0.928709 -0.514465 -0.021264 0
M  V30 13 C -0.793026 0.981790 0.163819 0
M  V30 14 C -1.801278 1.615314 -0.762825 0
M  V30 15 C -3.068111 1.831308 -0.210449 0
M  V30 16 C -4.106297 2.402816 -0.925407 0
M  V30 17 C -3.804437 2.750550 -2.238580 0
M  V30 18 C -2.558722 2.548923 -2.813614 0
M  V30 19 C -1.566635 1.978833 -2.059490 0
M  V30 20 C 2.098315 -2.117476 1.608581 0
M  V30 21 C 1.539844 -2.790622 2.649506 0
M  V30 22 H 4.176687 -4.242525 4.140515 0
M  V30 23 H 5.278361 -3.083013 2.320134 0
M  V30 24 H 4.092927 -0.397246 -1.161996 0
M  V30 25 H 1.712484 -0.171194 -1.027286 0
M  V30 26 H -0.552460 -1.740674 1.535065 0
M  V30 27 H -1.983310 -0.780643 0.065129 0
M  V30 28 H -0.662769 -0.788446 -1.094128 0
M  V30 29 H -0.985080 1.280272 1.207772 0
M  V30 30 H 0.173764 1.353944 -0.177877 0
M  V30 31 H -3.279744 1.548558 0.825509 0
M  V30 32 H -5.083422 2.567309 -0.493122 0
M  V30 33 H -4.617824 3.197506 -2.796354 0
M  V30 34 H -2.365856 2.834477 -3.840219 0
M  V30 35 H -0.579727 1.793839 -2.440309 0
M  V30 36 H 0.479231 -2.768462 2.827618 0
M  V30 END ATOM
M  V30 BEGIN BOND
M  V30 1 3 1 2
M  V30 2 1 2 3
M  V30 3 2 3 4
M  V30 4 1 4 5
M  V30 5 2 5 6
M  V30 6 1 6 7
M  V30 7 2 7 8
M  V30 8 1 8 9
M  V30 9 2 9 10
M  V30 10 1 10 11
M  V30 11 1 11 12
M  V30 12 1 12 13
M  V30 13 1 13 14
M  V30 14 2 14 15
M  V30 15 1 15 16
M  V30 16 2 16 17
M  V30 17 1 17 18
M  V30 18 2 18 19
M  V30 19 1 10 20
M  V30 20 2 20 21
M  V30 21 1 21 3
M  V30 22 1 20 6
M  V30 23 1 19 14
M  V30 24 1 4 22
M  V30 25 1 5 23
M  V30 26 1 8 24
M  V30 27 1 9 25
M  V30 28 1 11 26
M  V30 29 1 12 27
M  V30 30 1 12 28
M  V30 31 1 13 29
M  V30 32 1 13 30
M  V30 33 1 15 31
M  V30 34 1 16 32
M  V30 35 1 17 33
M  V30 36 1 18 34
M  V30 37 1 19 35
M  V30 38 1 21 36
M  V30 END BOND
M  V30 END CTAB
M  END
>  <Dataset>  (321) 
ChEMBL_Kinases

>  <Ligand_Instance>  (321) 
nan

>  <PDB_ID>  (321) 
nan

>  <Standardized_SMILES>  (321) 
N#Cc1ccc2nccc(NCCc3ccccc3)c2c1

>  <Name>  (321) 
nan

>  <Pocket>  (321) 
nan

>  <ATP_Site>  (321) 
nan

>  <Peripheral>  (321) 
nan

>  <Num_H_Atoms_ProtBoundConf>  (321) 
nan

>  <Num_Resolved_Atoms>  (321) 
nan

>  <Num_Not_Resolved_Atoms>  (321) 
nan

$$$$
CHEMBL4078869
     RDKit          3D

  0  0  0  0  0  0  0  0  0  0999 V3000
M  V30 BEGIN CTAB
M  V30 COUNTS 55 58 0 0 0
M  V30 BEGIN ATOM
M  V30 1 C -0.587426 -2.827941 -2.080753 0
M  V30 2 C 0.766468 -2.266604 -1.761672 0
M  V30 3 C 0.921035 -1.570559 -0.448930 0 CFG=2
M  V30 4 C 0.602547 -2.592566 0.658417 0
M  V30 5 N 0.132234 -1.979363 1.860044 0
M  V30 6 C -0.431121 -2.948037 2.769534 0
M  V30 7 C 0.588564 -3.947616 3.213067 0
M  V30 8 C 0.942737 -5.158398 2.661176 0
M  V30 9 C 1.931075 -5.871954 3.293254 0
M  V30 10 C 2.581058 -5.462476 4.425749 0
M  V30 11 C 2.223105 -4.240566 4.982692 0
M  V30 12 C 1.234918 -3.501306 4.371285 0
M  V30 13 C -0.751560 -0.884208 1.738375 0
M  V30 14 C -1.141650 -0.870741 0.247602 0
M  V30 15 N 0.101636 -0.438936 -0.384188 0
M  V30 16 C 0.156319 0.900674 -0.734654 0
M  V30 17 N -0.986789 1.620678 -0.572980 0
M  V30 18 C -1.078135 2.937677 -0.863094 0
M  V30 19 C -2.354522 3.607506 -0.635848 0
M  V30 20 C -2.576488 4.943252 -0.891675 0
M  V30 21 C -3.784636 5.576883 -0.669738 0
M  V30 22 N -4.799563 4.857627 -0.178610 0
M  V30 23 C -4.597000 3.538055 0.079480 0
M  V30 24 N -3.410272 2.939397 -0.144638 0
M  V30 25 C 0.012851 3.613704 -1.346623 0
M  V30 26 C 1.147410 2.852500 -1.495277 0
M  V30 27 O 2.172585 3.476157 -1.945788 0
M  V30 28 N 1.276097 1.518364 -1.210610 0
M  V30 29 C 2.508007 0.829182 -1.371765 0
M  V30 30 H -0.470161 -3.345919 -3.099757 0
M  V30 31 H -0.925963 -3.656340 -1.437336 0
M  V30 32 H -1.362596 -2.065143 -2.308246 0
M  V30 33 H 1.128386 -1.667618 -2.629007 0
M  V30 34 H 1.459092 -3.173281 -1.834713 0
M  V30 35 H 2.005455 -1.391058 -0.266648 0
M  V30 36 H 1.490223 -3.202815 0.929739 0
M  V30 37 H -0.152918 -3.331449 0.349180 0
M  V30 38 H -1.207608 -3.520078 2.178056 0
M  V30 39 H -0.987112 -2.525259 3.609838 0
M  V30 40 H 0.378817 -5.388148 1.781269 0
M  V30 41 H 2.174810 -6.826523 2.814468 0
M  V30 42 H 3.346994 -6.055160 4.882507 0
M  V30 43 H 2.751064 -3.942451 5.875724 0
M  V30 44 H 1.044978 -2.564845 4.903424 0
M  V30 45 H -1.659980 -1.012873 2.362271 0
M  V30 46 H -0.289781 0.066411 2.019671 0
M  V30 47 H -1.493291 -1.857611 -0.004282 0
M  V30 48 H -1.973262 -0.145835 0.086047 0
M  V30 49 H -1.769638 5.541155 -1.288328 0
M  V30 50 H -3.863737 6.640261 -0.902632 0
M  V30 51 H -5.335057 2.857525 0.475442 0
M  V30 52 H 0.006905 4.649130 -1.594828 0
M  V30 53 H 2.575616 0.029564 -2.088118 0
M  V30 54 H 3.197632 1.605164 -1.858301 0
M  V30 55 H 3.076730 0.691875 -0.412030 0
M  V30 END ATOM
M  V30 BEGIN BOND
M  V30 1 1 1 2
M  V30 2 1 2 3
M  V30 3 1 3 4
M  V30 4 1 4 5
M  V30 5 1 5 6
M  V30 6 1 6 7
M  V30 7 2 7 8
M  V30 8 1 8 9
M  V30 9 2 9 10
M  V30 10 1 10 11
M  V30 11 2 11 12
M  V30 12 1 5 13
M  V30 13 1 13 14
M  V30 14 1 14 15
M  V30 15 1 15 16
M  V30 16 2 16 17
M  V30 17 1 17 18
M  V30 18 1 18 19
M  V30 19 2 19 20
M  V30 20 1 20 21
M  V30 21 2 21 22
M  V30 22 1 22 23
M  V30 23 2 23 24
M  V30 24 2 18 25
M  V30 25 1 25 26
M  V30 26 2 26 27
M  V30 27 1 26 28
M  V30 28 1 28 29
M  V30 29 1 15 3
M  V30 30 1 28 16
M  V30 31 1 12 7
M  V30 32 1 24 19
M  V30 33 1 1 30
M  V30 34 1 1 31
M  V30 35 1 1 32
M  V30 36 1 2 33
M  V30 37 1 2 34
M  V30 38 1 3 35 CFG=1
M  V30 39 1 4 36
M  V30 40 1 4 37
M  V30 41 1 6 38
M  V30 42 1 6 39
M  V30 43 1 8 40
M  V30 44 1 9 41
M  V30 45 1 10 42
M  V30 46 1 11 43
M  V30 47 1 12 44
M  V30 48 1 13 45
M  V30 49 1 13 46
M  V30 50 1 14 47
M  V30 51 1 14 48
M  V30 52 1 20 49
M  V30 53 1 21 50
M  V30 54 1 23 51
M  V30 55 1 25 52
M  V30 56 1 29 53
M  V30 57 1 29 54
M  V30 58 1 29 55
M  V30 END BOND
M  V30 END CTAB
M  END
>  <Dataset>  (322) 
ChEMBL_Kinases

>  <Ligand_Instance>  (322) 
nan

>  <PDB_ID>  (322) 
nan

>  <Standardized_SMILES>  (322) 
CC[C@@H]1CN(Cc2ccccc2)CCN1c1nc(-c2ccncn2)cc(=O)n1C

>  <Name>  (322) 
nan

>  <Pocket>  (322) 
nan

>  <ATP_Site>  (322) 
nan

>  <Peripheral>  (322) 
nan

>  <Num_H_Atoms_ProtBoundConf>  (322) 
nan

>  <Num_Resolved_Atoms>  (322) 
nan

>  <Num_Not_Resolved_Atoms>  (322) 
nan

$$$$
CHEMBL4078833
     RDKit          3D

  0  0  0  0  0  0  0  0  0  0999 V3000
M  V30 BEGIN CTAB
M  V30 COUNTS 49 52 0 0 0
M  V30 BEGIN ATOM
M  V30 1 C 1.063930 -2.881157 3.954217 0
M  V30 2 C 0.851684 -3.449026 2.595427 0
M  V30 3 C 0.208262 -2.922840 1.471498 0
M  V30 4 C 0.271195 -3.824120 0.421448 0
M  V30 5 N -0.253405 -3.645858 -0.890134 0
M  V30 6 C -0.894204 -2.365885 -1.083143 0
M  V30 7 N -0.138469 -1.237686 -1.240107 0
M  V30 8 C -0.678226 -0.016242 -1.433427 0
M  V30 9 C 0.390690 0.961217 -1.556779 0
M  V30 10 O 1.007972 1.177572 -2.616556 0
M  V30 11 N 0.748245 1.709073 -0.402920 0
M  V30 12 C 1.781831 2.715423 -0.268337 0
M  V30 13 C 2.853864 2.038030 0.600884 0
M  V30 14 C 2.282532 1.844065 1.964300 0
M  V30 15 C 2.189812 3.122948 2.760689 0
M  V30 16 O 3.185197 1.010004 2.665234 0
M  V30 17 C 0.967131 1.143077 1.978143 0
M  V30 18 C 0.047658 1.528114 0.859338 0
M  V30 19 N -2.026969 0.069877 -1.470779 0
M  V30 20 C -2.801702 -1.021585 -1.320029 0
M  V30 21 C -4.159211 -0.797368 -1.382424 0
M  V30 22 C -4.979755 -1.913329 -1.232927 0
M  V30 23 C -4.461734 -3.176126 -1.033150 0
M  V30 24 Cl -5.501642 -4.596853 -0.846115 0
M  V30 25 C -3.088396 -3.373046 -0.975046 0
M  V30 26 C -2.267907 -2.275144 -1.121435 0
M  V30 27 N 0.941786 -4.855349 0.934742 0
M  V30 28 N 1.286348 -4.653905 2.195461 0
M  V30 29 H 2.127026 -2.638906 4.163774 0
M  V30 30 H 0.619156 -3.543470 4.747098 0
M  V30 31 H 0.522130 -1.900554 3.983518 0
M  V30 32 H -0.262789 -1.928249 1.481686 0
M  V30 33 H -0.141088 -4.409657 -1.567363 0
M  V30 34 H 1.361736 3.596399 0.255589 0
M  V30 35 H 2.221943 2.989575 -1.257707 0
M  V30 36 H 3.787639 2.605071 0.639172 0
M  V30 37 H 2.978568 1.012058 0.162293 0
M  V30 38 H 3.176997 3.594416 2.879460 0
M  V30 39 H 1.761254 2.844040 3.743008 0
M  V30 40 H 1.441391 3.778858 2.277621 0
M  V30 41 H 3.269102 0.114216 2.251429 0
M  V30 42 H 1.146568 0.048913 1.954248 0
M  V30 43 H 0.458791 1.351989 2.942621 0
M  V30 44 H -0.360087 2.553604 1.105060 0
M  V30 45 H -0.817844 0.877213 0.807112 0
M  V30 46 H -4.653916 0.160076 -1.533330 0
M  V30 47 H -6.055949 -1.815451 -1.268884 0
M  V30 48 H -2.636709 -4.358383 -0.818706 0
M  V30 49 H 1.822465 -5.353092 2.769824 0
M  V30 END ATOM
M  V30 BEGIN BOND
M  V30 1 1 1 2
M  V30 2 2 2 3
M  V30 3 1 3 4
M  V30 4 1 4 5
M  V30 5 1 5 6
M  V30 6 2 6 7
M  V30 7 1 7 8
M  V30 8 1 8 9
M  V30 9 2 9 10
M  V30 10 1 9 11
M  V30 11 1 11 12
M  V30 12 1 12 13
M  V30 13 1 13 14
M  V30 14 1 14 15
M  V30 15 1 14 16
M  V30 16 1 14 17
M  V30 17 1 17 18
M  V30 18 2 8 19
M  V30 19 1 19 20
M  V30 20 2 20 21
M  V30 21 1 21 22
M  V30 22 2 22 23
M  V30 23 1 23 24
M  V30 24 1 23 25
M  V30 25 2 25 26
M  V30 26 2 4 27
M  V30 27 1 27 28
M  V30 28 1 28 2
M  V30 29 1 26 6
M  V30 30 1 18 11
M  V30 31 1 26 20
M  V30 32 1 1 29
M  V30 33 1 1 30
M  V30 34 1 1 31
M  V30 35 1 3 32
M  V30 36 1 5 33
M  V30 37 1 12 34
M  V30 38 1 12 35
M  V30 39 1 13 36
M  V30 40 1 13 37
M  V30 41 1 15 38
M  V30 42 1 15 39
M  V30 43 1 15 40
M  V30 44 1 16 41
M  V30 45 1 17 42
M  V30 46 1 17 43
M  V30 47 1 18 44
M  V30 48 1 18 45
M  V30 49 1 21 46
M  V30 50 1 22 47
M  V30 51 1 25 48
M  V30 52 1 28 49
M  V30 END BOND
M  V30 END CTAB
M  END
>  <Dataset>  (323) 
ChEMBL_Kinases

>  <Ligand_Instance>  (323) 
nan

>  <PDB_ID>  (323) 
nan

>  <Standardized_SMILES>  (323) 
Cc1cc(Nc2nc(C(=O)N3CCC(C)(O)CC3)nc3ccc(Cl)cc23)n[nH]1

>  <Name>  (323) 
nan

>  <Pocket>  (323) 
nan

>  <ATP_Site>  (323) 
nan

>  <Peripheral>  (323) 
nan

>  <Num_H_Atoms_ProtBoundConf>  (323) 
nan

>  <Num_Resolved_Atoms>  (323) 
nan

>  <Num_Not_Resolved_Atoms>  (323) 
nan

$$$$
CHEMBL4855827
     RDKit          3D

  0  0  0  0  0  0  0  0  0  0999 V3000
M  V30 BEGIN CTAB
M  V30 COUNTS 29 31 0 0 0
M  V30 BEGIN ATOM
M  V30 1 C -2.077410 -1.291489 3.305307 0
M  V30 2 C -1.100140 -0.900144 2.240104 0
M  V30 3 C -0.304311 -1.848501 1.631280 0
M  V30 4 C 0.570616 -1.407398 0.659060 0
M  V30 5 C 1.347802 -2.410547 0.080176 0
M  V30 6 C 2.237217 -2.014560 -0.897488 0
M  V30 7 C 3.086540 -3.030349 -1.546521 0
M  V30 8 O 3.951264 -2.866098 -2.452134 0
M  V30 9 O 3.000110 -4.367276 -1.186256 0
M  V30 10 C 2.373967 -0.704777 -1.302749 0
M  V30 11 C 1.575471 0.272882 -0.697171 0
M  V30 12 C 0.676995 -0.084480 0.281741 0
M  V30 13 C -0.107056 0.873304 0.876768 0
M  V30 14 C 0.001546 2.172408 0.502080 0
M  V30 15 N -0.811731 3.036542 1.145700 0
M  V30 16 C -1.674481 2.639126 2.096724 0
M  V30 17 C -1.802347 1.324903 2.493922 0
M  V30 18 C -0.974261 0.414652 1.844782 0
M  V30 19 H -2.022755 -2.391480 3.435524 0
M  V30 20 H -1.743478 -0.813393 4.236983 0
M  V30 21 H -3.102323 -1.035331 3.003367 0
M  V30 22 H -0.395306 -2.881273 1.933855 0
M  V30 23 H 1.275950 -3.451320 0.365088 0
M  V30 24 H 3.091817 -5.122113 -1.882966 0
M  V30 25 H 3.094517 -0.474624 -2.076280 0
M  V30 26 H 1.751496 1.253727 -1.074895 0
M  V30 27 H 0.634519 2.583904 -0.220134 0
M  V30 28 H -2.301018 3.385099 2.576182 0
M  V30 29 H -2.530314 1.086207 3.276646 0
M  V30 END ATOM
M  V30 BEGIN BOND
M  V30 1 1 1 2
M  V30 2 2 2 3
M  V30 3 1 3 4
M  V30 4 2 4 5
M  V30 5 1 5 6
M  V30 6 1 6 7
M  V30 7 2 7 8
M  V30 8 1 7 9
M  V30 9 2 6 10
M  V30 10 1 10 11
M  V30 11 2 11 12
M  V30 12 1 12 13
M  V30 13 2 13 14
M  V30 14 1 14 15
M  V30 15 2 15 16
M  V30 16 1 16 17
M  V30 17 2 17 18
M  V30 18 1 18 2
M  V30 19 1 12 4
M  V30 20 1 18 13
M  V30 21 1 1 19
M  V30 22 1 1 20
M  V30 23 1 1 21
M  V30 24 1 3 22
M  V30 25 1 5 23
M  V30 26 1 9 24
M  V30 27 1 10 25
M  V30 28 1 11 26
M  V30 29 1 14 27
M  V30 30 1 16 28
M  V30 31 1 17 29
M  V30 END BOND
M  V30 END CTAB
M  END
>  <Dataset>  (324) 
ChEMBL_Kinases

>  <Ligand_Instance>  (324) 
nan

>  <PDB_ID>  (324) 
nan

>  <Standardized_SMILES>  (324) 
Cc1cc2cc(C(=O)O)ccc2c2cnccc12

>  <Name>  (324) 
nan

>  <Pocket>  (324) 
nan

>  <ATP_Site>  (324) 
nan

>  <Peripheral>  (324) 
nan

>  <Num_H_Atoms_ProtBoundConf>  (324) 
nan

>  <Num_Resolved_Atoms>  (324) 
nan

>  <Num_Not_Resolved_Atoms>  (324) 
nan

$$$$
CHEMBL485585
     RDKit          3D

  0  0  0  0  0  0  0  0  0  0999 V3000
M  V30 BEGIN CTAB
M  V30 COUNTS 55 59 0 0 0
M  V30 BEGIN ATOM
M  V30 1 C 0.717410 0.483129 -1.889430 0
M  V30 2 C 0.229784 -0.632906 -1.037440 0
M  V30 3 C 0.441755 -0.496359 0.247748 0
M  V30 4 C 1.061386 0.520332 1.039616 0
M  V30 5 O 1.165427 0.440341 2.335352 0
M  V30 6 N 1.683260 1.709911 1.048371 0
M  V30 7 C 2.327989 2.908862 1.221704 0
M  V30 8 C 2.514882 2.936140 2.618717 0
M  V30 9 C 3.147653 4.005519 3.273561 0
M  V30 10 C 3.581600 5.039348 2.467563 0
M  V30 11 N 4.205169 6.206684 2.637647 0
M  V30 12 N 4.391444 6.841647 1.495598 0
M  V30 13 C 3.895704 6.124827 0.476340 0
M  V30 14 C 3.392084 4.998335 1.105391 0
M  V30 15 C 2.771547 3.948671 0.469494 0
M  V30 16 C -0.052632 -1.587730 1.106721 0
M  V30 17 C -1.110304 -1.116518 2.082029 0
M  V30 18 C -1.721341 0.098877 2.291888 0
M  V30 19 C -2.640603 0.201123 3.300418 0
M  V30 20 C -2.995902 -0.839397 4.122166 0
M  V30 21 F -3.921853 -0.650188 5.103446 0
M  V30 22 C -2.387310 -2.078498 3.923059 0
M  V30 23 C -1.456348 -2.192906 2.907304 0
M  V30 24 N -0.634276 -2.693132 0.429612 0
M  V30 25 C -0.841778 -2.846938 -0.809735 0
M  V30 26 C -1.457545 -4.048600 -1.353802 0
M  V30 27 C -1.682942 -4.223730 -2.706661 0
M  V30 28 C -2.278581 -5.393526 -3.153950 0
M  V30 29 C -2.655105 -6.393358 -2.281503 0
M  V30 30 C -3.296633 -7.663952 -2.707624 0
M  V30 31 C -2.429381 -6.217672 -0.928308 0
M  V30 32 C -1.831873 -5.045511 -0.476272 0
M  V30 33 N -0.397446 -1.770062 -1.615025 0
M  V30 34 H 0.154412 1.404543 -1.717716 0
M  V30 35 H 1.812673 0.565179 -1.943737 0
M  V30 36 H 0.431653 0.193577 -2.949529 0
M  V30 37 H 1.622115 1.802274 -0.013850 0
M  V30 38 H 2.261205 2.241845 3.445454 0
M  V30 39 H 3.370839 4.185078 4.313711 0
M  V30 40 H 4.521658 6.593532 3.573145 0
M  V30 41 H 3.905521 6.392549 -0.566660 0
M  V30 42 H 2.563951 3.798166 -0.574980 0
M  V30 43 H 0.839515 -1.960086 1.699824 0
M  V30 44 H -1.378904 0.828956 1.591290 0
M  V30 45 H -3.068080 1.204473 3.388172 0
M  V30 46 H -2.696797 -2.861840 4.589743 0
M  V30 47 H -1.065592 -3.221218 2.874232 0
M  V30 48 H -1.403378 -3.466702 -3.415860 0
M  V30 49 H -2.454496 -5.528411 -4.222935 0
M  V30 50 H -2.634727 -8.523482 -2.497549 0
M  V30 51 H -3.447058 -7.656302 -3.807983 0
M  V30 52 H -4.235570 -7.820480 -2.140138 0
M  V30 53 H -2.711298 -6.985180 -0.196261 0
M  V30 54 H -1.651831 -4.902885 0.589799 0
M  V30 55 H -0.525965 -1.797285 -2.654920 0
M  V30 END ATOM
M  V30 BEGIN BOND
M  V30 1 1 1 2
M  V30 2 2 2 3
M  V30 3 1 3 4
M  V30 4 2 4 5
M  V30 5 1 4 6
M  V30 6 1 6 7
M  V30 7 2 7 8
M  V30 8 1 8 9
M  V30 9 2 9 10
M  V30 10 1 10 11
M  V30 11 1 11 12
M  V30 12 2 12 13
M  V30 13 1 13 14
M  V30 14 2 14 15
M  V30 15 1 3 16
M  V30 16 1 16 17
M  V30 17 2 17 18
M  V30 18 1 18 19
M  V30 19 2 19 20
M  V30 20 1 20 21
M  V30 21 1 20 22
M  V30 22 2 22 23
M  V30 23 1 16 24
M  V30 24 2 24 25
M  V30 25 1 25 26
M  V30 26 2 26 27
M  V30 27 1 27 28
M  V30 28 2 28 29
M  V30 29 1 29 30
M  V30 30 1 29 31
M  V30 31 2 31 32
M  V30 32 1 25 33
M  V30 33 1 33 2
M  V30 34 1 15 7
M  V30 35 1 23 17
M  V30 36 1 32 26
M  V30 37 1 14 10
M  V30 38 1 1 34
M  V30 39 1 1 35
M  V30 40 1 1 36
M  V30 41 1 6 37
M  V30 42 1 8 38
M  V30 43 1 9 39
M  V30 44 1 11 40
M  V30 45 1 13 41
M  V30 46 1 15 42
M  V30 47 1 16 43
M  V30 48 1 18 44
M  V30 49 1 19 45
M  V30 50 1 22 46
M  V30 51 1 23 47
M  V30 52 1 27 48
M  V30 53 1 28 49
M  V30 54 1 30 50
M  V30 55 1 30 51
M  V30 56 1 30 52
M  V30 57 1 31 53
M  V30 58 1 32 54
M  V30 59 1 33 55
M  V30 END BOND
M  V30 END CTAB
M  END
>  <Dataset>  (325) 
ChEMBL_Kinases

>  <Ligand_Instance>  (325) 
nan

>  <PDB_ID>  (325) 
nan

>  <Standardized_SMILES>  (325) 
CC1=C(C(=O)Nc2ccc3[nH]ncc3c2)C(c2ccc(F)cc2)N=C(c2ccc(C)cc2)N1

>  <Name>  (325) 
nan

>  <Pocket>  (325) 
nan

>  <ATP_Site>  (325) 
nan

>  <Peripheral>  (325) 
nan

>  <Num_H_Atoms_ProtBoundConf>  (325) 
nan

>  <Num_Resolved_Atoms>  (325) 
nan

>  <Num_Not_Resolved_Atoms>  (325) 
nan

$$$$
CHEMBL485586
     RDKit          3D

  0  0  0  0  0  0  0  0  0  0999 V3000
M  V30 BEGIN CTAB
M  V30 COUNTS 55 59 0 0 0
M  V30 BEGIN ATOM
M  V30 1 C 2.409225 -1.233790 -0.826729 0
M  V30 2 C 1.066478 -1.474776 -0.244563 0
M  V30 3 C 0.489459 -0.877968 0.828510 0
M  V30 4 C 1.430341 0.093078 1.371443 0
M  V30 5 O 2.603195 0.377028 0.938244 0
M  V30 6 N 1.324558 0.976284 2.504570 0
M  V30 7 C 2.526735 1.730116 2.604904 0
M  V30 8 C 3.665570 1.394424 3.310829 0
M  V30 9 C 4.746204 2.229177 3.309604 0
M  V30 10 C 4.701292 3.411960 2.601246 0
M  V30 11 N 5.560530 4.406668 2.407927 0
M  V30 12 N 5.061845 5.361871 1.628670 0
M  V30 13 C 3.810954 4.981299 1.289131 0
M  V30 14 C 3.570824 3.760094 1.891813 0
M  V30 15 C 2.463711 2.918138 1.885352 0
M  V30 16 C -0.825045 -1.090555 1.385695 0
M  V30 17 C -1.720453 0.110581 1.369229 0
M  V30 18 C -2.260564 0.989363 2.283453 0
M  V30 19 C -3.068824 2.030931 1.901724 0
M  V30 20 C -3.375693 2.241415 0.576309 0
M  V30 21 F -4.182749 3.306479 0.354634 0
M  V30 22 C -2.862809 1.392813 -0.378925 0
M  V30 23 C -2.039390 0.332633 0.014271 0
M  V30 24 N -1.483748 -2.176921 0.694546 0
M  V30 25 C -1.022481 -2.784501 -0.300843 0
M  V30 26 C -1.866081 -3.846676 -0.839239 0
M  V30 27 C -1.533012 -4.624710 -1.926184 0
M  V30 28 C -2.324013 -5.629557 -2.440843 0
M  V30 29 C -3.528129 -5.896698 -1.854044 0
M  V30 30 C -4.395323 -6.977038 -2.395187 0
M  V30 31 C -3.947595 -5.162465 -0.751720 0
M  V30 32 F -5.135318 -5.405384 -0.150651 0
M  V30 33 C -3.094415 -4.182341 -0.309183 0
M  V30 34 N 0.245275 -2.503934 -0.849521 0
M  V30 35 H 2.537165 -0.223348 -1.265629 0
M  V30 36 H 2.532227 -1.966864 -1.679629 0
M  V30 37 H 3.248069 -1.530670 -0.141464 0
M  V30 38 H 0.443305 0.911780 3.031412 0
M  V30 39 H 3.617165 0.454342 3.836164 0
M  V30 40 H 5.640057 1.955273 3.869730 0
M  V30 41 H 6.519643 4.437009 2.820341 0
M  V30 42 H 3.131923 5.539809 0.659763 0
M  V30 43 H 1.599188 3.251962 1.303534 0
M  V30 44 H -0.746812 -1.383921 2.449003 0
M  V30 45 H -1.901319 0.644134 3.257446 0
M  V30 46 H -3.380745 2.594733 2.787081 0
M  V30 47 H -3.160511 1.642384 -1.373814 0
M  V30 48 H -1.739694 -0.218151 -0.894125 0
M  V30 49 H -0.602130 -4.474047 -2.440708 0
M  V30 50 H -2.013016 -6.215583 -3.303303 0
M  V30 51 H -5.214220 -7.236170 -1.683905 0
M  V30 52 H -3.826885 -7.923593 -2.544990 0
M  V30 53 H -4.869883 -6.720836 -3.348911 0
M  V30 54 H -3.462039 -3.622970 0.565298 0
M  V30 55 H 0.583038 -3.033246 -1.680518 0
M  V30 END ATOM
M  V30 BEGIN BOND
M  V30 1 1 1 2
M  V30 2 2 2 3
M  V30 3 1 3 4
M  V30 4 2 4 5
M  V30 5 1 4 6
M  V30 6 1 6 7
M  V30 7 2 7 8
M  V30 8 1 8 9
M  V30 9 2 9 10
M  V30 10 1 10 11
M  V30 11 1 11 12
M  V30 12 2 12 13
M  V30 13 1 13 14
M  V30 14 2 14 15
M  V30 15 1 3 16
M  V30 16 1 16 17
M  V30 17 2 17 18
M  V30 18 1 18 19
M  V30 19 2 19 20
M  V30 20 1 20 21
M  V30 21 1 20 22
M  V30 22 2 22 23
M  V30 23 1 16 24
M  V30 24 2 24 25
M  V30 25 1 25 26
M  V30 26 2 26 27
M  V30 27 1 27 28
M  V30 28 2 28 29
M  V30 29 1 29 30
M  V30 30 1 29 31
M  V30 31 1 31 32
M  V30 32 2 31 33
M  V30 33 1 25 34
M  V30 34 1 34 2
M  V30 35 1 15 7
M  V30 36 1 23 17
M  V30 37 1 33 26
M  V30 38 1 14 10
M  V30 39 1 1 35
M  V30 40 1 1 36
M  V30 41 1 1 37
M  V30 42 1 6 38
M  V30 43 1 8 39
M  V30 44 1 9 40
M  V30 45 1 11 41
M  V30 46 1 13 42
M  V30 47 1 15 43
M  V30 48 1 16 44
M  V30 49 1 18 45
M  V30 50 1 19 46
M  V30 51 1 22 47
M  V30 52 1 23 48
M  V30 53 1 27 49
M  V30 54 1 28 50
M  V30 55 1 30 51
M  V30 56 1 30 52
M  V30 57 1 30 53
M  V30 58 1 33 54
M  V30 59 1 34 55
M  V30 END BOND
M  V30 END CTAB
M  END
>  <Dataset>  (326) 
ChEMBL_Kinases

>  <Ligand_Instance>  (326) 
nan

>  <PDB_ID>  (326) 
nan

>  <Standardized_SMILES>  (326) 
CC1=C(C(=O)Nc2ccc3[nH]ncc3c2)C(c2ccc(F)cc2)N=C(c2ccc(C)c(F)c2)N1

>  <Name>  (326) 
nan

>  <Pocket>  (326) 
nan

>  <ATP_Site>  (326) 
nan

>  <Peripheral>  (326) 
nan

>  <Num_H_Atoms_ProtBoundConf>  (326) 
nan

>  <Num_Resolved_Atoms>  (326) 
nan

>  <Num_Not_Resolved_Atoms>  (326) 
nan

$$$$
CHEMBL4855864
     RDKit          3D

  0  0  0  0  0  0  0  0  0  0999 V3000
M  V30 BEGIN CTAB
M  V30 COUNTS 37 40 0 0 0
M  V30 BEGIN ATOM
M  V30 1 C -0.876133 -3.161798 3.478547 0
M  V30 2 C 0.436872 -3.413274 2.774935 0
M  V30 3 C 0.299929 -4.436677 1.660935 0
M  V30 4 C 1.393653 -3.970718 0.716325 0
M  V30 5 N 1.062218 -2.555024 0.664348 0
M  V30 6 C 0.910592 -1.741000 -0.493934 0
M  V30 7 N 1.082916 -2.295589 -1.704341 0
M  V30 8 C 0.953094 -1.575771 -2.851681 0
M  V30 9 C 0.634561 -0.252474 -2.647250 0
M  V30 10 C 0.447465 0.362774 -1.422539 0
M  V30 11 C 0.110727 1.777449 -1.314382 0
M  V30 12 C -0.064458 2.673833 -2.347843 0
M  V30 13 N -0.363720 3.859624 -1.767081 0
M  V30 14 N -0.369812 3.690480 -0.442539 0
M  V30 15 N -0.621374 4.626793 0.456196 0
M  V30 16 C -0.599077 4.336053 1.787134 0
M  V30 17 C -0.308571 3.038223 2.219861 0
M  V30 18 C -0.050029 2.083493 1.244781 0
M  V30 19 C -0.079360 2.406066 -0.099439 0
M  V30 20 N 0.600317 -0.446269 -0.334060 0
M  V30 21 C 0.918348 -2.147220 2.051494 0
M  V30 22 H -1.488086 -4.075992 3.451998 0
M  V30 23 H -1.382545 -2.278116 3.025460 0
M  V30 24 H -0.645620 -2.898827 4.538751 0
M  V30 25 H 1.200790 -3.797918 3.486292 0
M  V30 26 H -0.686823 -4.260687 1.193898 0
M  V30 27 H 0.464315 -5.469803 2.009172 0
M  V30 28 H 2.381357 -4.059086 1.213979 0
M  V30 29 H 1.331847 -4.459681 -0.271740 0
M  V30 30 H 1.081194 -1.973486 -3.850872 0
M  V30 31 H 0.510859 0.401756 -3.524439 0
M  V30 32 H 0.036555 2.398546 -3.392577 0
M  V30 33 H -0.799229 5.070985 2.570086 0
M  V30 34 H -0.280941 2.767826 3.258677 0
M  V30 35 H 0.181526 1.062694 1.496936 0
M  V30 36 H 0.224133 -1.299097 2.194020 0
M  V30 37 H 1.950157 -1.944513 2.413863 0
M  V30 END ATOM
M  V30 BEGIN BOND
M  V30 1 1 1 2
M  V30 2 1 2 3
M  V30 3 1 3 4
M  V30 4 1 4 5
M  V30 5 1 5 6
M  V30 6 2 6 7
M  V30 7 1 7 8
M  V30 8 2 8 9
M  V30 9 1 9 10
M  V30 10 1 10 11
M  V30 11 1 11 12
M  V30 12 2 12 13
M  V30 13 1 13 14
M  V30 14 1 14 15
M  V30 15 2 15 16
M  V30 16 1 16 17
M  V30 17 2 17 18
M  V30 18 1 18 19
M  V30 19 2 10 20
M  V30 20 1 5 21
M  V30 21 1 21 2
M  V30 22 1 20 6
M  V30 23 2 19 11
M  V30 24 1 19 14
M  V30 25 1 1 22
M  V30 26 1 1 23
M  V30 27 1 1 24
M  V30 28 1 2 25
M  V30 29 1 3 26
M  V30 30 1 3 27
M  V30 31 1 4 28
M  V30 32 1 4 29
M  V30 33 1 8 30
M  V30 34 1 9 31
M  V30 35 1 12 32
M  V30 36 1 16 33
M  V30 37 1 17 34
M  V30 38 1 18 35
M  V30 39 1 21 36
M  V30 40 1 21 37
M  V30 END BOND
M  V30 END CTAB
M  END
>  <Dataset>  (327) 
ChEMBL_Kinases

>  <Ligand_Instance>  (327) 
nan

>  <PDB_ID>  (327) 
nan

>  <Standardized_SMILES>  (327) 
CC1CCN(c2nccc(-c3cnn4ncccc34)n2)C1

>  <Name>  (327) 
nan

>  <Pocket>  (327) 
nan

>  <ATP_Site>  (327) 
nan

>  <Peripheral>  (327) 
nan

>  <Num_H_Atoms_ProtBoundConf>  (327) 
nan

>  <Num_Resolved_Atoms>  (327) 
nan

>  <Num_Not_Resolved_Atoms>  (327) 
nan

$$$$
CHEMBL4078664
     RDKit          3D

  0  0  0  0  0  0  0  0  0  0999 V3000
M  V30 BEGIN CTAB
M  V30 COUNTS 38 40 0 0 0
M  V30 BEGIN ATOM
M  V30 1 C 0.914857 -5.410915 2.182107 0
M  V30 2 C 0.672803 -3.939824 2.381227 0
M  V30 3 C 0.334275 -2.991312 1.398873 0
M  V30 4 C 0.165930 -1.711662 1.830060 0
M  V30 5 C -0.163837 -0.599929 1.087066 0
M  V30 6 N -0.379957 -0.678434 -0.316810 0
M  V30 7 C -0.731575 0.510309 -1.111204 0 CFG=1
M  V30 8 C 0.315824 1.561874 -1.035273 0
M  V30 9 C 1.122482 1.794893 -2.260695 0
M  V30 10 C 0.827749 0.890425 -3.411475 0
M  V30 11 N -0.615026 0.860884 -3.560477 0
M  V30 12 C -1.201134 0.138419 -2.474285 0
M  V30 13 N -0.292199 0.595224 1.665605 0
M  V30 14 C -0.139274 0.895654 2.939051 0
M  V30 15 C 0.191410 -0.177869 3.731305 0
M  V30 16 C 0.413910 -0.098858 5.179139 0
M  V30 17 N 0.262405 1.197573 5.745742 0
M  V30 18 O 0.717957 -0.925900 6.082749 0
M  V30 19 C 0.339096 -1.449333 3.183358 0
M  V30 20 S 0.756417 -3.016940 3.941243 0
M  V30 21 H 0.825845 -5.840964 3.218794 0
M  V30 22 H 1.939521 -5.630208 1.838477 0
M  V30 23 H 0.116528 -5.780549 1.510939 0
M  V30 24 H 0.233101 -3.342598 0.381650 0
M  V30 25 H -0.289323 -1.608826 -0.817744 0
M  V30 26 H -1.644115 0.911655 -0.578295 0
M  V30 27 H 1.032289 1.243602 -0.220543 0
M  V30 28 H -0.098553 2.525682 -0.639086 0
M  V30 29 H 0.950348 2.850078 -2.625397 0
M  V30 30 H 2.230645 1.778672 -2.054425 0
M  V30 31 H 1.215478 -0.129097 -3.288044 0
M  V30 32 H 1.241909 1.315318 -4.340886 0
M  V30 33 H -0.973813 1.834642 -3.574930 0
M  V30 34 H -1.003960 -0.964786 -2.604162 0
M  V30 35 H -2.315379 0.221199 -2.613295 0
M  V30 36 H -0.237476 1.840091 3.415073 0
M  V30 37 H -0.469864 1.835443 6.181071 0
M  V30 38 H 1.209425 1.675234 5.715676 0
M  V30 END ATOM
M  V30 BEGIN BOND
M  V30 1 1 1 2
M  V30 2 2 2 3
M  V30 3 1 3 4
M  V30 4 2 4 5
M  V30 5 1 5 6
M  V30 6 1 6 7
M  V30 7 1 7 8
M  V30 8 1 8 9
M  V30 9 1 9 10
M  V30 10 1 10 11
M  V30 11 1 11 12
M  V30 12 1 5 13
M  V30 13 2 13 14
M  V30 14 1 14 15
M  V30 15 1 15 16
M  V30 16 1 16 17
M  V30 17 2 16 18
M  V30 18 2 15 19
M  V30 19 1 19 20
M  V30 20 1 20 2
M  V30 21 1 19 4
M  V30 22 1 12 7
M  V30 23 1 1 21
M  V30 24 1 1 22
M  V30 25 1 1 23
M  V30 26 1 3 24
M  V30 27 1 6 25
M  V30 28 1 7 26 CFG=1
M  V30 29 1 8 27
M  V30 30 1 8 28
M  V30 31 1 9 29
M  V30 32 1 9 30
M  V30 33 1 10 31
M  V30 34 1 10 32
M  V30 35 1 11 33
M  V30 36 1 12 34
M  V30 37 1 12 35
M  V30 38 1 14 36
M  V30 39 1 17 37
M  V30 40 1 17 38
M  V30 END BOND
M  V30 END CTAB
M  END
>  <Dataset>  (328) 
ChEMBL_Kinases

>  <Ligand_Instance>  (328) 
nan

>  <PDB_ID>  (328) 
nan

>  <Standardized_SMILES>  (328) 
Cc1cc2c(N[C@H]3CCCNC3)ncc(C(N)=O)c2s1

>  <Name>  (328) 
nan

>  <Pocket>  (328) 
nan

>  <ATP_Site>  (328) 
nan

>  <Peripheral>  (328) 
nan

>  <Num_H_Atoms_ProtBoundConf>  (328) 
nan

>  <Num_Resolved_Atoms>  (328) 
nan

>  <Num_Not_Resolved_Atoms>  (328) 
nan

$$$$
CHEMBL4078651
     RDKit          3D

  0  0  0  0  0  0  0  0  0  0999 V3000
M  V30 BEGIN CTAB
M  V30 COUNTS 45 48 0 0 0
M  V30 BEGIN ATOM
M  V30 1 C 2.126649 -4.108850 0.173254 0
M  V30 2 O 1.839371 -2.782052 -0.205448 0
M  V30 3 C 2.152167 -2.349195 -1.463188 0
M  V30 4 C 2.758109 -3.229543 -2.352874 0
M  V30 5 C 3.133092 -2.910449 -3.640614 0
M  V30 6 C 2.862865 -1.610211 -4.014644 0
M  V30 7 C 2.265701 -0.679371 -3.193376 0
M  V30 8 N 2.059988 0.599020 -3.545546 0
M  V30 9 C 1.530027 1.497605 -2.707879 0
M  V30 10 C 1.180198 1.066254 -1.421439 0
M  V30 11 C 1.369509 -0.263765 -0.998124 0
M  V30 12 N 0.913647 -0.391316 0.326454 0
M  V30 13 C -0.198002 -0.732748 1.099537 0
M  V30 14 C -0.390519 0.329766 2.021853 0
M  V30 15 C -1.397946 0.438906 2.962130 0
M  V30 16 C -1.606045 1.519003 3.910298 0
M  V30 17 C -2.678137 1.438592 4.770914 0
M  V30 18 C -2.935790 2.428540 5.697234 0
M  V30 19 C -2.112044 3.532008 5.778574 0
M  V30 20 C -1.025552 3.657730 4.937932 0
M  V30 21 Cl 0.054192 5.044511 5.002049 0
M  V30 22 C -0.815520 2.639859 4.032478 0
M  V30 23 N -2.272228 -0.580764 2.983783 0
M  V30 24 C -2.198030 -1.638341 2.164631 0
M  V30 25 C -1.171081 -1.660653 1.267529 0
M  V30 26 C -1.134243 -2.761081 0.307661 0
M  V30 27 C 1.927053 -1.084335 -1.942924 0
M  V30 28 H 3.206913 -4.347075 0.087963 0
M  V30 29 H 1.791372 -4.264667 1.238820 0
M  V30 30 H 1.588100 -4.851824 -0.456061 0
M  V30 31 H 2.973799 -4.267152 -2.051581 0
M  V30 32 H 3.600895 -3.632527 -4.293976 0
M  V30 33 H 3.136117 -1.299038 -5.015742 0
M  V30 34 H 1.397017 2.508792 -3.060129 0
M  V30 35 H 0.757539 1.901099 -0.838063 0
M  V30 36 H 1.825339 -0.131925 0.816633 0
M  V30 37 H 0.235088 1.214626 2.117617 0
M  V30 38 H -3.387755 0.601734 4.781920 0
M  V30 39 H -3.775386 2.376431 6.378959 0
M  V30 40 H -2.296112 4.320027 6.497940 0
M  V30 41 H 0.031260 2.756103 3.390320 0
M  V30 42 H -2.895471 -2.457469 2.178136 0
M  V30 43 H -0.647867 -3.676963 0.647868 0
M  V30 44 H -2.194593 -3.086915 0.054750 0
M  V30 45 H -0.754853 -2.445379 -0.705485 0
M  V30 END ATOM
M  V30 BEGIN BOND
M  V30 1 1 1 2
M  V30 2 1 2 3
M  V30 3 2 3 4
M  V30 4 1 4 5
M  V30 5 2 5 6
M  V30 6 1 6 7
M  V30 7 2 7 8
M  V30 8 1 8 9
M  V30 9 2 9 10
M  V30 10 1 10 11
M  V30 11 1 11 12
M  V30 12 1 12 13
M  V30 13 2 13 14
M  V30 14 1 14 15
M  V30 15 1 15 16
M  V30 16 2 16 17
M  V30 17 1 17 18
M  V30 18 2 18 19
M  V30 19 1 19 20
M  V30 20 1 20 21
M  V30 21 2 20 22
M  V30 22 2 15 23
M  V30 23 1 23 24
M  V30 24 2 24 25
M  V30 25 1 25 26
M  V30 26 2 11 27
M  V30 27 1 27 3
M  V30 28 1 27 7
M  V30 29 1 25 13
M  V30 30 1 22 16
M  V30 31 1 1 28
M  V30 32 1 1 29
M  V30 33 1 1 30
M  V30 34 1 4 31
M  V30 35 1 5 32
M  V30 36 1 6 33
M  V30 37 1 9 34
M  V30 38 1 10 35
M  V30 39 1 12 36
M  V30 40 1 14 37
M  V30 41 1 17 38
M  V30 42 1 18 39
M  V30 43 1 19 40
M  V30 44 1 22 41
M  V30 45 1 24 42
M  V30 46 1 26 43
M  V30 47 1 26 44
M  V30 48 1 26 45
M  V30 END BOND
M  V30 END CTAB
M  END
>  <Dataset>  (329) 
ChEMBL_Kinases

>  <Ligand_Instance>  (329) 
nan

>  <PDB_ID>  (329) 
nan

>  <Standardized_SMILES>  (329) 
COc1cccc2nccc(Nc3cc(-c4cccc(Cl)c4)ncc3C)c12

>  <Name>  (329) 
nan

>  <Pocket>  (329) 
nan

>  <ATP_Site>  (329) 
nan

>  <Peripheral>  (329) 
nan

>  <Num_H_Atoms_ProtBoundConf>  (329) 
nan

>  <Num_Resolved_Atoms>  (329) 
nan

>  <Num_Not_Resolved_Atoms>  (329) 
nan

$$$$
CHEMBL4078643
     RDKit          3D

  0  0  0  0  0  0  0  0  0  0999 V3000
M  V30 BEGIN CTAB
M  V30 COUNTS 45 47 0 0 0
M  V30 BEGIN ATOM
M  V30 1 C -0.296358 -3.929547 2.053023 0
M  V30 2 C -0.660126 -2.773874 1.149413 0 CFG=2
M  V30 3 C 0.133261 -2.968441 -0.150408 0
M  V30 4 N 1.191666 -2.007163 -0.270929 0
M  V30 5 S 2.146554 -2.394365 -1.646939 0
M  V30 6 C 1.219370 -2.327237 -3.163132 0
M  V30 7 O 2.714536 -3.806013 -1.547117 0
M  V30 8 O 3.305409 -1.434753 -1.732828 0
M  V30 9 C 2.035611 -1.967149 0.896692 0
M  V30 10 C 1.226441 -1.616021 2.145122 0
M  V30 11 N -0.175508 -1.505097 1.708818 0
M  V30 12 C -0.868089 -0.253919 1.829768 0
M  V30 13 N -0.059228 0.780756 1.447606 0
M  V30 14 C -0.479130 2.049342 1.475329 0
M  V30 15 C 0.427453 3.100263 1.032822 0
M  V30 16 C 1.694083 2.797793 0.591269 0
M  V30 17 C 2.648630 3.679387 0.133538 0
M  V30 18 N 2.298965 5.002003 0.116622 0
M  V30 19 C 1.065947 5.316007 0.544964 0
M  V30 20 N 0.130924 4.424518 0.996435 0
M  V30 21 C -1.747467 2.369248 1.892292 0
M  V30 22 C -2.536928 1.304155 2.271136 0
M  V30 23 O -3.722366 1.467252 2.673676 0
M  V30 24 N -2.115482 0.027858 2.242839 0
M  V30 25 C -2.871258 -1.127237 2.623633 0
M  V30 26 H -0.904781 -4.824161 1.832364 0
M  V30 27 H 0.774091 -4.189031 1.967160 0
M  V30 28 H -0.417217 -3.591650 3.117999 0
M  V30 29 H -1.728716 -2.752046 0.900539 0
M  V30 30 H -0.549705 -2.848290 -1.014392 0
M  V30 31 H 0.580110 -3.981457 -0.222368 0
M  V30 32 H 1.919195 -2.659917 -3.974530 0
M  V30 33 H 0.381646 -3.024790 -3.160392 0
M  V30 34 H 0.933096 -1.265198 -3.352199 0
M  V30 35 H 2.545931 -2.952240 0.981338 0
M  V30 36 H 2.817509 -1.197774 0.710026 0
M  V30 37 H 1.572914 -0.631136 2.507252 0
M  V30 38 H 1.315989 -2.386421 2.931018 0
M  V30 39 H 1.985309 1.751434 0.598947 0
M  V30 40 H 3.638964 3.420078 -0.210482 0
M  V30 41 H 0.785200 6.383793 0.530822 0
M  V30 42 H -2.124938 3.376975 1.931887 0
M  V30 43 H -2.276934 -1.922857 3.080797 0
M  V30 44 H -3.538084 -1.478541 1.812604 0
M  V30 45 H -3.587657 -0.807540 3.438113 0
M  V30 END ATOM
M  V30 BEGIN BOND
M  V30 1 1 1 2
M  V30 2 1 2 3
M  V30 3 1 3 4
M  V30 4 1 4 5
M  V30 5 1 5 6
M  V30 6 2 5 7
M  V30 7 2 5 8
M  V30 8 1 4 9
M  V30 9 1 9 10
M  V30 10 1 10 11
M  V30 11 1 11 12
M  V30 12 2 12 13
M  V30 13 1 13 14
M  V30 14 1 14 15
M  V30 15 2 15 16
M  V30 16 1 16 17
M  V30 17 2 17 18
M  V30 18 1 18 19
M  V30 19 2 19 20
M  V30 20 2 14 21
M  V30 21 1 21 22
M  V30 22 2 22 23
M  V30 23 1 22 24
M  V30 24 1 24 25
M  V30 25 1 11 2
M  V30 26 1 24 12
M  V30 27 1 20 15
M  V30 28 1 1 26
M  V30 29 1 1 27
M  V30 30 1 1 28
M  V30 31 1 2 29 CFG=3
M  V30 32 1 3 30
M  V30 33 1 3 31
M  V30 34 1 6 32
M  V30 35 1 6 33
M  V30 36 1 6 34
M  V30 37 1 9 35
M  V30 38 1 9 36
M  V30 39 1 10 37
M  V30 40 1 10 38
M  V30 41 1 16 39
M  V30 42 1 17 40
M  V30 43 1 19 41
M  V30 44 1 21 42
M  V30 45 1 25 43
M  V30 46 1 25 44
M  V30 47 1 25 45
M  V30 END BOND
M  V30 END CTAB
M  END
>  <Dataset>  (330) 
ChEMBL_Kinases

>  <Ligand_Instance>  (330) 
nan

>  <PDB_ID>  (330) 
nan

>  <Standardized_SMILES>  (330) 
C[C@@H]1CN(S(C)(=O)=O)CCN1c1nc(-c2ccncn2)cc(=O)n1C

>  <Name>  (330) 
nan

>  <Pocket>  (330) 
nan

>  <ATP_Site>  (330) 
nan

>  <Peripheral>  (330) 
nan

>  <Num_H_Atoms_ProtBoundConf>  (330) 
nan

>  <Num_Resolved_Atoms>  (330) 
nan

>  <Num_Not_Resolved_Atoms>  (330) 
nan

$$$$
CHEMBL4855865
     RDKit          3D

  0  0  0  0  0  0  0  0  0  0999 V3000
M  V30 BEGIN CTAB
M  V30 COUNTS 56 60 0 0 0
M  V30 BEGIN ATOM
M  V30 1 C 4.958083 -3.535855 3.636806 0
M  V30 2 O 3.906978 -2.884640 2.949352 0
M  V30 3 C 4.030897 -1.577246 2.505169 0
M  V30 4 C 5.101420 -0.715526 2.626638 0
M  V30 5 C 5.022047 0.561041 2.109010 0
M  V30 6 C 3.881249 1.004694 1.462793 0
M  V30 7 O 3.855865 2.297574 0.961555 0
M  V30 8 C 4.884010 3.234427 1.036730 0
M  V30 9 C 2.793791 0.163123 1.326592 0
M  V30 10 C 1.567999 0.609361 0.643928 0
M  V30 11 C 0.359975 0.300791 1.266396 0
M  V30 12 C -0.812884 0.701730 0.658177 0
M  V30 13 C -0.835288 1.392070 -0.535540 0
M  V30 14 C -2.055464 1.750268 -1.059006 0
M  V30 15 N -3.315491 1.466296 -0.473238 0
M  V30 16 C -4.008925 0.273598 -0.144211 0
M  V30 17 C -5.203427 0.397619 0.529722 0
M  V30 18 C -5.869601 -0.757885 0.836036 0
M  V30 19 N -5.427763 -1.967181 0.520683 0
M  V30 20 C -4.255722 -2.149448 -0.144031 0
M  V30 21 C -3.765185 -3.474223 -0.493148 0
M  V30 22 C -2.595932 -3.754706 -1.161580 0
M  V30 23 C -2.211179 -5.043554 -1.449654 0
M  V30 24 F -1.032115 -5.201967 -2.116558 0
M  V30 25 C -2.997568 -6.128389 -1.072593 0
M  V30 26 C -4.176390 -5.872109 -0.400202 0
M  V30 27 C -4.536811 -4.562224 -0.124512 0
M  V30 28 F -5.725881 -4.466982 0.544370 0
M  V30 29 C -3.595665 -0.987659 -0.446564 0
M  V30 30 C -1.953155 2.449142 -2.266215 0
M  V30 31 C -0.770006 2.765318 -2.898510 0
M  V30 32 N 0.362031 2.365887 -2.298766 0
M  V30 33 C 0.367512 1.690532 -1.139533 0
M  V30 34 C 1.572784 1.300381 -0.552336 0
M  V30 35 C 2.878329 -1.129658 1.852535 0
M  V30 36 H 5.435050 -2.753468 4.291543 0
M  V30 37 H 4.574962 -4.379260 4.255430 0
M  V30 38 H 5.687122 -3.929880 2.925011 0
M  V30 39 H 5.947526 -1.146439 3.144541 0
M  V30 40 H 5.914908 1.155540 2.257480 0
M  V30 41 H 4.721794 3.868075 1.923097 0
M  V30 42 H 4.805778 3.863352 0.109154 0
M  V30 43 H 5.879248 2.765825 1.005727 0
M  V30 44 H 0.367612 -0.244261 2.209270 0
M  V30 45 H -1.719487 0.446734 1.176578 0
M  V30 46 H -3.707010 2.392117 -0.296827 0
M  V30 47 H -5.661889 1.335415 0.838950 0
M  V30 48 H -6.824105 -0.729942 1.370555 0
M  V30 49 H -1.987611 -2.928065 -1.453999 0
M  V30 50 H -2.600674 -7.102509 -1.349545 0
M  V30 51 H -4.767189 -6.733386 -0.119546 0
M  V30 52 H -2.653402 -1.062864 -0.976958 0
M  V30 53 H -2.886963 2.765207 -2.737992 0
M  V30 54 H -0.798157 3.312179 -3.834954 0
M  V30 55 H 2.522835 1.525034 -1.010515 0
M  V30 56 H 1.974641 -1.739871 1.705551 0
M  V30 END ATOM
M  V30 BEGIN BOND
M  V30 1 1 1 2
M  V30 2 1 2 3
M  V30 3 2 3 4
M  V30 4 1 4 5
M  V30 5 2 5 6
M  V30 6 1 6 7
M  V30 7 1 7 8
M  V30 8 1 6 9
M  V30 9 1 9 10
M  V30 10 2 10 11
M  V30 11 1 11 12
M  V30 12 2 12 13
M  V30 13 1 13 14
M  V30 14 1 14 15
M  V30 15 1 15 16
M  V30 16 2 16 17
M  V30 17 1 17 18
M  V30 18 2 18 19
M  V30 19 1 19 20
M  V30 20 1 20 21
M  V30 21 2 21 22
M  V30 22 1 22 23
M  V30 23 1 23 24
M  V30 24 2 23 25
M  V30 25 1 25 26
M  V30 26 2 26 27
M  V30 27 1 27 28
M  V30 28 2 20 29
M  V30 29 2 14 30
M  V30 30 1 30 31
M  V30 31 2 31 32
M  V30 32 1 32 33
M  V30 33 2 33 34
M  V30 34 2 9 35
M  V30 35 1 35 3
M  V30 36 1 34 10
M  V30 37 1 33 13
M  V30 38 1 29 16
M  V30 39 1 27 21
M  V30 40 1 1 36
M  V30 41 1 1 37
M  V30 42 1 1 38
M  V30 43 1 4 39
M  V30 44 1 5 40
M  V30 45 1 8 41
M  V30 46 1 8 42
M  V30 47 1 8 43
M  V30 48 1 11 44
M  V30 49 1 12 45
M  V30 50 1 15 46
M  V30 51 1 17 47
M  V30 52 1 18 48
M  V30 53 1 22 49
M  V30 54 1 25 50
M  V30 55 1 26 51
M  V30 56 1 29 52
M  V30 57 1 30 53
M  V30 58 1 31 54
M  V30 59 1 34 55
M  V30 60 1 35 56
M  V30 END BOND
M  V30 END CTAB
M  END
>  <Dataset>  (331) 
ChEMBL_Kinases

>  <Ligand_Instance>  (331) 
nan

>  <PDB_ID>  (331) 
nan

>  <Standardized_SMILES>  (331) 
COc1ccc(OC)c(-c2ccc3c(Nc4ccnc(-c5cc(F)ccc5F)c4)ccnc3c2)c1

>  <Name>  (331) 
nan

>  <Pocket>  (331) 
nan

>  <ATP_Site>  (331) 
nan

>  <Peripheral>  (331) 
nan

>  <Num_H_Atoms_ProtBoundConf>  (331) 
nan

>  <Num_Resolved_Atoms>  (331) 
nan

>  <Num_Not_Resolved_Atoms>  (331) 
nan

$$$$
CHEMBL4078558
     RDKit          3D

  0  0  0  0  0  0  0  0  0  0999 V3000
M  V30 BEGIN CTAB
M  V30 COUNTS 47 51 0 0 0
M  V30 BEGIN ATOM
M  V30 1 O 0.924082 -6.597126 -0.369701 0
M  V30 2 S 0.322807 -5.254761 -0.113442 0
M  V30 3 O -0.026002 -4.664517 -1.446092 0
M  V30 4 C 1.434388 -4.222655 0.776073 0
M  V30 5 C 2.376445 -4.683922 1.666328 0
M  V30 6 C 3.179662 -3.751464 2.290079 0
M  V30 7 C 3.073935 -2.386602 2.056155 0
M  V30 8 N 3.691157 -1.278659 2.495578 0
M  V30 9 N 3.177393 -0.211275 1.926837 0
M  V30 10 C 2.183928 -0.540846 1.071242 0
M  V30 11 C 1.372221 0.357082 0.253227 0
M  V30 12 C 1.061264 0.165247 -1.071686 0
M  V30 13 C 0.294719 1.034552 -1.803348 0
M  V30 14 N -0.164824 2.133518 -1.150920 0
M  V30 15 C 0.124988 2.344404 0.144501 0
M  V30 16 N -0.414226 3.527106 0.708505 0
M  V30 17 C -1.226945 4.443336 -0.078222 0
M  V30 18 C -2.627948 4.248733 0.468006 0
M  V30 19 O -2.669298 4.033994 1.818499 0
M  V30 20 C -1.609146 4.500011 2.554939 0
M  V30 21 C -0.268863 4.000278 2.052860 0
M  V30 22 C 0.881629 1.499711 0.891968 0
M  V30 23 C 2.125526 -1.911159 1.158765 0
M  V30 24 C 1.324418 -2.848367 0.537389 0
M  V30 25 C -1.155397 -5.438847 0.888746 0
M  V30 26 C -2.478622 -5.473463 0.225678 0
M  V30 27 C -2.070468 -4.214521 0.910815 0
M  V30 28 H 2.438793 -5.740056 1.829912 0
M  V30 29 H 3.928807 -4.090569 2.995194 0
M  V30 30 H 4.461276 -1.256532 3.182621 0
M  V30 31 H 1.442959 -0.713591 -1.549646 0
M  V30 32 H 0.097950 0.811642 -2.833440 0
M  V30 33 H -0.941439 5.498901 0.096646 0
M  V30 34 H -1.230765 4.176888 -1.150984 0
M  V30 35 H -2.963217 3.277686 -0.004204 0
M  V30 36 H -3.340072 5.005461 0.084943 0
M  V30 37 H -1.623484 5.604893 2.697676 0
M  V30 38 H -1.733758 4.087029 3.578471 0
M  V30 39 H 0.217018 3.324804 2.743801 0
M  V30 40 H 0.400706 4.906493 1.991761 0
M  V30 41 H 1.099646 1.683495 1.913965 0
M  V30 42 H 0.584600 -2.474012 -0.162939 0
M  V30 43 H -0.993996 -5.895234 1.885739 0
M  V30 44 H -2.539089 -5.505383 -0.875102 0
M  V30 45 H -3.233495 -6.149846 0.718442 0
M  V30 46 H -1.781402 -3.363378 0.244433 0
M  V30 47 H -2.537776 -3.942746 1.871529 0
M  V30 END ATOM
M  V30 BEGIN BOND
M  V30 1 2 1 2
M  V30 2 2 2 3
M  V30 3 1 2 4
M  V30 4 2 4 5
M  V30 5 1 5 6
M  V30 6 2 6 7
M  V30 7 1 7 8
M  V30 8 1 8 9
M  V30 9 2 9 10
M  V30 10 1 10 11
M  V30 11 2 11 12
M  V30 12 1 12 13
M  V30 13 2 13 14
M  V30 14 1 14 15
M  V30 15 1 15 16
M  V30 16 1 16 17
M  V30 17 1 17 18
M  V30 18 1 18 19
M  V30 19 1 19 20
M  V30 20 1 20 21
M  V30 21 2 15 22
M  V30 22 1 10 23
M  V30 23 2 23 24
M  V30 24 1 2 25
M  V30 25 1 25 26
M  V30 26 1 26 27
M  V30 27 1 24 4
M  V30 28 1 27 25
M  V30 29 1 23 7
M  V30 30 1 22 11
M  V30 31 1 21 16
M  V30 32 1 5 28
M  V30 33 1 6 29
M  V30 34 1 8 30
M  V30 35 1 12 31
M  V30 36 1 13 32
M  V30 37 1 17 33
M  V30 38 1 17 34
M  V30 39 1 18 35
M  V30 40 1 18 36
M  V30 41 1 20 37
M  V30 42 1 20 38
M  V30 43 1 21 39
M  V30 44 1 21 40
M  V30 45 1 22 41
M  V30 46 1 24 42
M  V30 47 1 25 43
M  V30 48 1 26 44
M  V30 49 1 26 45
M  V30 50 1 27 46
M  V30 51 1 27 47
M  V30 END BOND
M  V30 END CTAB
M  END
>  <Dataset>  (332) 
ChEMBL_Kinases

>  <Ligand_Instance>  (332) 
nan

>  <PDB_ID>  (332) 
nan

>  <Standardized_SMILES>  (332) 
O=S(=O)(c1ccc2[nH]nc(-c3ccnc(N4CCOCC4)c3)c2c1)C1CC1

>  <Name>  (332) 
nan

>  <Pocket>  (332) 
nan

>  <ATP_Site>  (332) 
nan

>  <Peripheral>  (332) 
nan

>  <Num_H_Atoms_ProtBoundConf>  (332) 
nan

>  <Num_Resolved_Atoms>  (332) 
nan

>  <Num_Not_Resolved_Atoms>  (332) 
nan

$$$$
CHEMBL4855785
     RDKit          3D

  0  0  0  0  0  0  0  0  0  0999 V3000
M  V30 BEGIN CTAB
M  V30 COUNTS 45 48 0 0 0
M  V30 BEGIN ATOM
M  V30 1 C 0.091791 -3.960062 2.646503 0
M  V30 2 C 0.121334 -4.425685 1.218688 0
M  V30 3 N -0.061582 -5.677132 0.796729 0
M  V30 4 N 0.032048 -5.721050 -0.520141 0
M  V30 5 C 0.282117 -4.450482 -0.929310 0
M  V30 6 C 0.464671 -3.961257 -2.209325 0
M  V30 7 C 0.707562 -2.611409 -2.347436 0
M  V30 8 C 0.780692 -1.727460 -1.319788 0
M  V30 9 C 1.037667 -0.297202 -1.456659 0
M  V30 10 C 1.236118 0.301038 -2.683700 0
M  V30 11 N 1.474267 1.618451 -2.821586 0
M  V30 12 C 1.520200 2.381433 -1.715399 0
M  V30 13 C 1.327881 1.831675 -0.459824 0
M  V30 14 N 1.376628 2.640851 0.718815 0
M  V30 15 C 1.183179 2.146132 2.068374 0
M  V30 16 C 1.306989 3.279612 3.072814 0
M  V30 17 O 1.126161 2.833760 4.367049 0
M  V30 18 C -0.049557 1.375837 2.255063 0
M  V30 19 C -0.273940 0.182340 2.908599 0
M  V30 20 C -1.536759 -0.369265 2.960012 0
M  V30 21 C -2.619018 0.244509 2.364952 0
M  V30 22 C -2.421458 1.448498 1.699435 0
M  V30 23 C -1.138061 2.001537 1.651633 0
M  V30 24 N 1.094238 0.519301 -0.368792 0
M  V30 25 C 0.595493 -2.237645 -0.052129 0
M  V30 26 C 0.350839 -3.570619 0.146650 0
M  V30 27 H 0.931590 -3.268168 2.800320 0
M  V30 28 H 0.263657 -4.849441 3.291182 0
M  V30 29 H -0.878570 -3.505066 2.871602 0
M  V30 30 H -0.068059 -6.562091 -1.100584 0
M  V30 31 H 0.419261 -4.611310 -3.074055 0
M  V30 32 H 0.844546 -2.262460 -3.348949 0
M  V30 33 H 1.207359 -0.276076 -3.597618 0
M  V30 34 H 1.707607 3.454465 -1.742830 0
M  V30 35 H 1.567236 3.670245 0.591414 0
M  V30 36 H 2.054232 1.467842 2.287075 0
M  V30 37 H 2.310880 3.747503 3.031692 0
M  V30 38 H 0.559428 4.071050 2.878999 0
M  V30 39 H 0.273951 2.312650 4.373475 0
M  V30 40 H 0.633761 -0.223102 3.343389 0
M  V30 41 H -1.628342 -1.305916 3.491184 0
M  V30 42 H -3.602745 -0.228977 2.430761 0
M  V30 43 H -3.280281 1.916250 1.238572 0
M  V30 44 H -1.119262 2.951826 1.096724 0
M  V30 45 H 0.623085 -1.667936 0.866564 0
M  V30 END ATOM
M  V30 BEGIN BOND
M  V30 1 1 1 2
M  V30 2 2 2 3
M  V30 3 1 3 4
M  V30 4 1 4 5
M  V30 5 2 5 6
M  V30 6 1 6 7
M  V30 7 2 7 8
M  V30 8 1 8 9
M  V30 9 2 9 10
M  V30 10 1 10 11
M  V30 11 2 11 12
M  V30 12 1 12 13
M  V30 13 1 13 14
M  V30 14 1 14 15
M  V30 15 1 15 16
M  V30 16 1 16 17
M  V30 17 1 15 18
M  V30 18 2 18 19
M  V30 19 1 19 20
M  V30 20 2 20 21
M  V30 21 1 21 22
M  V30 22 2 22 23
M  V30 23 2 13 24
M  V30 24 1 8 25
M  V30 25 2 25 26
M  V30 26 1 26 2
M  V30 27 1 26 5
M  V30 28 1 24 9
M  V30 29 1 23 18
M  V30 30 1 1 27
M  V30 31 1 1 28
M  V30 32 1 1 29
M  V30 33 1 4 30
M  V30 34 1 6 31
M  V30 35 1 7 32
M  V30 36 1 10 33
M  V30 37 1 12 34
M  V30 38 1 14 35
M  V30 39 1 15 36
M  V30 40 1 16 37
M  V30 41 1 16 38
M  V30 42 1 17 39
M  V30 43 1 19 40
M  V30 44 1 20 41
M  V30 45 1 21 42
M  V30 46 1 22 43
M  V30 47 1 23 44
M  V30 48 1 25 45
M  V30 END BOND
M  V30 END CTAB
M  END
>  <Dataset>  (333) 
ChEMBL_Kinases

>  <Ligand_Instance>  (333) 
nan

>  <PDB_ID>  (333) 
nan

>  <Standardized_SMILES>  (333) 
Cc1n[nH]c2ccc(-c3cncc(NC(CO)c4ccccc4)n3)cc12

>  <Name>  (333) 
nan

>  <Pocket>  (333) 
nan

>  <ATP_Site>  (333) 
nan

>  <Peripheral>  (333) 
nan

>  <Num_H_Atoms_ProtBoundConf>  (333) 
nan

>  <Num_Resolved_Atoms>  (333) 
nan

>  <Num_Not_Resolved_Atoms>  (333) 
nan

$$$$
CHEMBL4779427
     RDKit          3D

  0  0  0  0  0  0  0  0  0  0999 V3000
M  V30 BEGIN CTAB
M  V30 COUNTS 68 71 0 0 0
M  V30 BEGIN ATOM
M  V30 1 C 5.415959 -2.665673 3.850143 0
M  V30 2 C 4.788388 -1.859127 2.769695 0
M  V30 3 N 3.568604 -1.354385 2.691608 0
M  V30 4 C 3.359774 -0.664494 1.530994 0
M  V30 5 C 2.056199 -0.085266 1.279544 0
M  V30 6 C 1.676613 1.152752 1.027019 0
M  V30 7 C 2.581093 2.263778 0.955548 0
M  V30 8 O 3.816345 2.219576 1.142594 0
M  V30 9 N 1.821330 3.395627 0.642579 0
M  V30 10 C 0.462873 2.980796 0.524687 0
M  V30 11 C -0.697596 3.705849 0.228711 0
M  V30 12 C -1.941249 3.067164 0.167383 0
M  V30 13 C -2.056070 1.699057 0.398339 0
M  V30 14 C -3.393241 1.116258 0.313580 0
M  V30 15 O -4.343341 1.895267 0.044225 0
M  V30 16 N -3.610612 -0.273350 0.526739 0
M  V30 17 C -4.839254 -1.010542 0.484414 0 CFG=1
M  V30 18 C -4.710565 -2.022816 -0.637807 0
M  V30 19 C -4.484752 -1.219641 -1.878420 0
M  V30 20 C -3.239364 -0.831850 -2.378772 0
M  V30 21 C -3.196259 -0.083775 -3.547947 0
M  V30 22 C -4.342902 0.275981 -4.211125 0
M  V30 23 C -5.592296 -0.079436 -3.761884 0
M  V30 24 C -5.606105 -0.822699 -2.597742 0
M  V30 25 C -5.164006 -1.647946 1.805897 0
M  V30 26 C -4.145264 -2.615332 2.301768 0
M  V30 27 C -6.489522 -2.380417 1.718100 0
M  V30 28 C -0.911479 1.015423 0.684644 0
M  V30 29 C 0.323873 1.625455 0.749935 0
M  V30 30 C 4.569421 -0.784149 0.880865 0
M  V30 31 C 4.835795 -0.231676 -0.451017 0
M  V30 32 C 5.470335 -1.514771 1.621107 0
M  V30 33 N 6.810141 -1.808101 1.209702 0
M  V30 34 C 6.859832 -3.030557 0.482178 0
M  V30 35 O 5.758681 -3.656011 0.311375 0
M  V30 36 C 8.115461 -3.592272 -0.072447 0
M  V30 37 Cl 8.892682 -4.652271 1.138491 0
M  V30 38 H 6.226492 -3.299876 3.460763 0
M  V30 39 H 5.748950 -2.034512 4.697617 0
M  V30 40 H 4.638339 -3.341004 4.266096 0
M  V30 41 H 2.894502 -1.521800 3.496754 0
M  V30 42 H 1.229468 -0.818700 1.302007 0
M  V30 43 H 2.240796 4.343388 0.530523 0
M  V30 44 H -0.595316 4.767975 0.051202 0
M  V30 45 H -2.767301 3.729719 -0.069876 0
M  V30 46 H -2.824240 -0.922003 0.750417 0
M  V30 47 H -5.693230 -0.312238 0.246032 0
M  V30 48 H -5.637365 -2.607021 -0.774887 0
M  V30 49 H -3.810144 -2.657551 -0.424407 0
M  V30 50 H -2.385761 -1.148310 -1.808668 0
M  V30 51 H -2.208102 0.210829 -3.924626 0
M  V30 52 H -4.276879 0.865579 -5.129695 0
M  V30 53 H -6.488017 0.197850 -4.274098 0
M  V30 54 H -6.597856 -1.118011 -2.220586 0
M  V30 55 H -5.286157 -0.860347 2.572021 0
M  V30 56 H -4.589276 -3.423415 2.942603 0
M  V30 57 H -3.568870 -3.149737 1.534119 0
M  V30 58 H -3.389572 -2.113602 2.959701 0
M  V30 59 H -6.364590 -3.253024 1.028160 0
M  V30 60 H -7.293300 -1.717088 1.321629 0
M  V30 61 H -6.770304 -2.780934 2.697122 0
M  V30 62 H -0.986249 -0.046326 0.865900 0
M  V30 63 H 5.285066 -0.997679 -1.146337 0
M  V30 64 H 5.623931 0.551072 -0.345074 0
M  V30 65 H 3.929788 0.127007 -0.970769 0
M  V30 66 H 7.748635 -1.349824 1.311656 0
M  V30 67 H 8.821251 -2.801012 -0.397058 0
M  V30 68 H 7.908565 -4.226691 -0.958173 0
M  V30 END ATOM
M  V30 BEGIN BOND
M  V30 1 1 1 2
M  V30 2 1 2 3
M  V30 3 1 3 4
M  V30 4 1 4 5
M  V30 5 2 5 6
M  V30 6 1 6 7
M  V30 7 2 7 8
M  V30 8 1 7 9
M  V30 9 1 9 10
M  V30 10 2 10 11
M  V30 11 1 11 12
M  V30 12 2 12 13
M  V30 13 1 13 14
M  V30 14 2 14 15
M  V30 15 1 14 16
M  V30 16 1 16 17
M  V30 17 1 17 18
M  V30 18 1 18 19
M  V30 19 2 19 20
M  V30 20 1 20 21
M  V30 21 2 21 22
M  V30 22 1 22 23
M  V30 23 2 23 24
M  V30 24 1 17 25
M  V30 25 1 25 26
M  V30 26 1 25 27
M  V30 27 1 13 28
M  V30 28 2 28 29
M  V30 29 2 4 30
M  V30 30 1 30 31
M  V30 31 1 30 32
M  V30 32 1 32 33
M  V30 33 1 33 34
M  V30 34 2 34 35
M  V30 35 1 34 36
M  V30 36 1 36 37
M  V30 37 2 32 2
M  V30 38 1 29 6
M  V30 39 1 29 10
M  V30 40 1 24 19
M  V30 41 1 1 38
M  V30 42 1 1 39
M  V30 43 1 1 40
M  V30 44 1 3 41
M  V30 45 1 5 42
M  V30 46 1 9 43
M  V30 47 1 11 44
M  V30 48 1 12 45
M  V30 49 1 16 46
M  V30 50 1 17 47 CFG=3
M  V30 51 1 18 48
M  V30 52 1 18 49
M  V30 53 1 20 50
M  V30 54 1 21 51
M  V30 55 1 22 52
M  V30 56 1 23 53
M  V30 57 1 24 54
M  V30 58 1 25 55
M  V30 59 1 26 56
M  V30 60 1 26 57
M  V30 61 1 26 58
M  V30 62 1 27 59
M  V30 63 1 27 60
M  V30 64 1 27 61
M  V30 65 1 28 62
M  V30 66 1 31 63
M  V30 67 1 31 64
M  V30 68 1 31 65
M  V30 69 1 33 66
M  V30 70 1 36 67
M  V30 71 1 36 68
M  V30 END BOND
M  V30 END CTAB
M  END
>  <Dataset>  (334) 
ChEMBL_Kinases

>  <Ligand_Instance>  (334) 
nan

>  <PDB_ID>  (334) 
nan

>  <Standardized_SMILES>  (334) 
Cc1[nH]c(/C=C2\C(=O)Nc3ccc(C(=O)N[C@@H](Cc4ccccc4)C(C)C)cc32)c(C)c1NC(=O)CCl

>  <Name>  (334) 
nan

>  <Pocket>  (334) 
nan

>  <ATP_Site>  (334) 
nan

>  <Peripheral>  (334) 
nan

>  <Num_H_Atoms_ProtBoundConf>  (334) 
nan

>  <Num_Resolved_Atoms>  (334) 
nan

>  <Num_Not_Resolved_Atoms>  (334) 
nan

$$$$
CHEMBL4779460
     RDKit          3D

  0  0  0  0  0  0  0  0  0  0999 V3000
M  V30 BEGIN CTAB
M  V30 COUNTS 59 62 0 0 0
M  V30 BEGIN ATOM
M  V30 1 C 0.209951 -2.200626 4.977402 0
M  V30 2 N 0.462171 -2.737200 3.659360 0
M  V30 3 C -0.210594 -3.964975 3.287478 0
M  V30 4 C 1.351314 -2.016897 2.812815 0
M  V30 5 C 1.975969 -0.845803 3.222967 0
M  V30 6 C 2.819205 -0.153854 2.362928 0
M  V30 7 C 3.070564 -0.612538 1.048453 0
M  V30 8 C 3.953466 0.298565 0.331066 0
M  V30 9 C 3.543561 1.474707 -0.147958 0
M  V30 10 C 4.457109 2.355508 -0.845717 0
M  V30 11 O 5.655843 2.352855 -1.163199 0
M  V30 12 N 3.630758 3.487545 -1.215983 0
M  V30 13 C 2.296595 3.237929 -0.736313 0
M  V30 14 C 1.140627 3.984289 -0.835226 0
M  V30 15 C -0.068398 3.571744 -0.322509 0
M  V30 16 C -0.165727 2.361171 0.326172 0
M  V30 17 N -1.294362 1.735993 0.925331 0
M  V30 18 C -1.902128 0.855776 0.006563 0
M  V30 19 O -1.577577 0.591586 -1.191914 0
M  V30 20 C -3.087914 -0.021664 0.158838 0
M  V30 21 C -3.275382 -0.910684 -1.046643 0
M  V30 22 N -2.151159 -1.779226 -1.271039 0
M  V30 23 C -1.965887 -2.802631 -0.292566 0
M  V30 24 C -2.117501 -4.210866 -0.838737 0
M  V30 25 O -3.131361 -4.264949 -1.778275 0
M  V30 26 C -2.827549 -3.513822 -2.903057 0
M  V30 27 C -2.144650 -2.217316 -2.626103 0
M  V30 28 C 1.013734 1.611211 0.420928 0
M  V30 29 C 2.206755 2.025660 -0.085834 0
M  V30 30 C 2.453397 -1.761864 0.663834 0
M  V30 31 C 1.616652 -2.447129 1.518264 0
M  V30 32 H 1.085307 -1.817350 5.504102 0
M  V30 33 H -0.171659 -3.046099 5.609601 0
M  V30 34 H -0.648393 -1.497706 4.895151 0
M  V30 35 H -0.191234 -4.618806 4.186559 0
M  V30 36 H -1.288768 -3.693893 3.100627 0
M  V30 37 H 0.150020 -4.448573 2.388068 0
M  V30 38 H 1.799627 -0.464560 4.220918 0
M  V30 39 H 3.251656 0.729690 2.776911 0
M  V30 40 H 4.972803 -0.032604 0.202052 0
M  V30 41 H 3.902327 4.347381 -1.733211 0
M  V30 42 H 1.118399 4.965341 -1.338798 0
M  V30 43 H -1.014837 4.122363 -0.372886 0
M  V30 44 H -1.753978 1.769386 1.854388 0
M  V30 45 H -3.974859 0.622961 0.259854 0
M  V30 46 H -3.030195 -0.635181 1.085876 0
M  V30 47 H -4.184844 -1.485651 -0.912561 0
M  V30 48 H -3.373763 -0.280477 -1.951915 0
M  V30 49 H -0.925304 -2.757049 0.119000 0
M  V30 50 H -2.654826 -2.710644 0.572731 0
M  V30 51 H -2.357146 -4.906521 -0.010518 0
M  V30 52 H -1.147150 -4.606243 -1.259391 0
M  V30 53 H -3.762231 -3.432370 -3.506369 0
M  V30 54 H -2.161814 -4.161505 -3.549134 0
M  V30 55 H -2.637128 -1.441907 -3.246845 0
M  V30 56 H -1.065781 -2.292768 -2.939409 0
M  V30 57 H 0.898507 0.660159 0.893078 0
M  V30 58 H 2.704987 -2.042116 -0.350427 0
M  V30 59 H 1.191662 -3.342690 1.090769 0
M  V30 END ATOM
M  V30 BEGIN BOND
M  V30 1 1 1 2
M  V30 2 1 2 3
M  V30 3 1 2 4
M  V30 4 2 4 5
M  V30 5 1 5 6
M  V30 6 2 6 7
M  V30 7 1 7 8
M  V30 8 2 8 9
M  V30 9 1 9 10
M  V30 10 2 10 11
M  V30 11 1 10 12
M  V30 12 1 12 13
M  V30 13 2 13 14
M  V30 14 1 14 15
M  V30 15 2 15 16
M  V30 16 1 16 17
M  V30 17 1 17 18
M  V30 18 2 18 19
M  V30 19 1 18 20
M  V30 20 1 20 21
M  V30 21 1 21 22
M  V30 22 1 22 23
M  V30 23 1 23 24
M  V30 24 1 24 25
M  V30 25 1 25 26
M  V30 26 1 26 27
M  V30 27 1 16 28
M  V30 28 2 28 29
M  V30 29 1 7 30
M  V30 30 2 30 31
M  V30 31 1 31 4
M  V30 32 1 29 9
M  V30 33 1 29 13
M  V30 34 1 27 22
M  V30 35 1 1 32
M  V30 36 1 1 33
M  V30 37 1 1 34
M  V30 38 1 3 35
M  V30 39 1 3 36
M  V30 40 1 3 37
M  V30 41 1 5 38
M  V30 42 1 6 39
M  V30 43 1 8 40
M  V30 44 1 12 41
M  V30 45 1 14 42
M  V30 46 1 15 43
M  V30 47 1 17 44
M  V30 48 1 20 45
M  V30 49 1 20 46
M  V30 50 1 21 47
M  V30 51 1 21 48
M  V30 52 1 23 49
M  V30 53 1 23 50
M  V30 54 1 24 51
M  V30 55 1 24 52
M  V30 56 1 26 53
M  V30 57 1 26 54
M  V30 58 1 27 55
M  V30 59 1 27 56
M  V30 60 1 28 57
M  V30 61 1 30 58
M  V30 62 1 31 59
M  V30 END BOND
M  V30 END CTAB
M  END
>  <Dataset>  (335) 
ChEMBL_Kinases

>  <Ligand_Instance>  (335) 
nan

>  <PDB_ID>  (335) 
nan

>  <Standardized_SMILES>  (335) 
CN(C)c1ccc(/C=C2/C(=O)Nc3ccc(NC(=O)CCN4CCOCC4)cc32)cc1

>  <Name>  (335) 
nan

>  <Pocket>  (335) 
nan

>  <ATP_Site>  (335) 
nan

>  <Peripheral>  (335) 
nan

>  <Num_H_Atoms_ProtBoundConf>  (335) 
nan

>  <Num_Resolved_Atoms>  (335) 
nan

>  <Num_Not_Resolved_Atoms>  (335) 
nan

$$$$
CHEMBL4779478
     RDKit          3D

  0  0  0  0  0  0  0  0  0  0999 V3000
M  V30 BEGIN CTAB
M  V30 COUNTS 85 91 0 0 0
M  V30 BEGIN ATOM
M  V30 1 C 2.233471 -7.997935 2.090886 0
M  V30 2 N 2.257848 -6.556431 1.933087 0
M  V30 3 C 1.071175 -5.935380 2.301149 0
M  V30 4 O 0.159017 -6.697571 2.712500 0
M  V30 5 C 0.885819 -4.435279 2.212787 0
M  V30 6 S 2.276086 -3.451891 1.604102 0
M  V30 7 C 1.289453 -1.846175 1.796552 0
M  V30 8 C 2.102183 -0.627453 1.400907 0
M  V30 9 C 3.337917 -0.673847 0.831643 0
M  V30 10 C 4.083046 0.447752 0.545781 0
M  V30 11 N 3.506372 1.636508 0.870663 0
M  V30 12 C 2.283323 1.659037 1.432987 0
M  V30 13 N 1.875572 2.992897 1.721156 0
M  V30 14 C 2.355843 3.206672 3.037382 0
M  V30 15 O 2.994978 2.535688 3.900430 0
M  V30 16 C 2.392454 4.259356 4.102606 0
M  V30 17 C 2.308063 5.694662 3.773754 0
M  V30 18 C 1.147970 5.018490 4.403442 0
M  V30 19 C 1.516346 0.552766 1.727773 0
M  V30 20 N 0.314512 -2.245628 2.190808 0
M  V30 21 C -0.072670 -3.469983 2.459742 0
M  V30 22 O -1.133981 -4.167687 2.926027 0
M  V30 23 C -2.390643 -3.938850 3.335076 0
M  V30 24 C -3.291227 -3.464877 2.167377 0
M  V30 25 O -3.261604 -4.489017 1.256575 0
M  V30 26 C -4.064071 -4.485031 0.205011 0
M  V30 27 C -4.053764 -3.405047 -0.792275 0
M  V30 28 C -3.316952 -3.152038 -1.909718 0
M  V30 29 N -3.776293 -2.038397 -2.551694 0
M  V30 30 C -3.097399 -1.629316 -3.764713 0
M  V30 31 C -2.026169 -0.606969 -3.550668 0
M  V30 32 N -0.984314 -0.955471 -2.651575 0
M  V30 33 C -0.159551 0.234512 -2.644512 0
M  V30 34 C -0.626919 1.137039 -1.689482 0
M  V30 35 C 0.048763 2.355544 -1.548194 0
M  V30 36 N 1.124603 2.630448 -2.325360 0
M  V30 37 C 1.551548 1.738996 -3.237348 0
M  V30 38 C 2.644113 2.001391 -4.034188 0
M  V30 39 C 3.057309 1.047626 -4.969465 0
M  V30 40 C 2.386351 -0.167740 -5.114728 0
M  V30 41 C 1.276556 -0.463321 -4.323174 0
M  V30 42 C 0.934525 0.527573 -3.427360 0
M  V30 43 C -0.509308 3.303876 -0.519212 0
M  V30 44 C -1.959496 3.529302 -0.973479 0
M  V30 45 C -2.670435 2.225102 -0.796217 0
M  V30 46 C -1.761818 1.021505 -0.764817 0
M  V30 47 N -4.784040 -1.632910 -1.808884 0
M  V30 48 N -4.983059 -2.403670 -0.765845 0
M  V30 49 H 1.419818 -8.489339 1.524415 0
M  V30 50 H 3.224090 -8.345902 1.681543 0
M  V30 51 H 2.262928 -8.284986 3.160529 0
M  V30 52 H 3.063233 -6.005703 1.582625 0
M  V30 53 H 3.780053 -1.624939 0.579654 0
M  V30 54 H 5.058432 0.340728 0.092156 0
M  V30 55 H 1.424137 3.912685 1.522254 0
M  V30 56 H 2.930100 3.911338 5.004367 0
M  V30 57 H 2.935297 6.379067 4.408808 0
M  V30 58 H 2.223026 6.044772 2.739800 0
M  V30 59 H 0.229611 4.923109 3.795741 0
M  V30 60 H 0.930975 5.307875 5.466101 0
M  V30 61 H 0.540977 0.642227 2.178608 0
M  V30 62 H -2.514550 -3.216247 4.186032 0
M  V30 63 H -2.877476 -4.878510 3.677940 0
M  V30 64 H -4.297736 -3.223440 2.562063 0
M  V30 65 H -2.875261 -2.553127 1.717644 0
M  V30 66 H -3.833117 -5.453123 -0.385813 0
M  V30 67 H -5.162053 -4.711087 0.481209 0
M  V30 68 H -2.500431 -3.820069 -2.149722 0
M  V30 69 H -3.859454 -1.136523 -4.442339 0
M  V30 70 H -2.734173 -2.494433 -4.352353 0
M  V30 71 H -1.567621 -0.445998 -4.574909 0
M  V30 72 H -2.510688 0.396624 -3.350073 0
M  V30 73 H -0.955950 -1.898662 -2.177949 0
M  V30 74 H 3.194250 2.907511 -3.970229 0
M  V30 75 H 3.930537 1.253637 -5.606086 0
M  V30 76 H 2.704360 -0.915004 -5.842345 0
M  V30 77 H 0.730178 -1.392254 -4.405558 0
M  V30 78 H -0.586337 2.781447 0.453457 0
M  V30 79 H 0.066784 4.229622 -0.487208 0
M  V30 80 H -2.381462 4.282564 -0.312003 0
M  V30 81 H -1.961276 3.845127 -2.046650 0
M  V30 82 H -3.404002 2.122780 -1.643443 0
M  V30 83 H -3.288616 2.279728 0.117387 0
M  V30 84 H -2.408228 0.134331 -0.974670 0
M  V30 85 H -1.365456 0.921992 0.274462 0
M  V30 END ATOM
M  V30 BEGIN BOND
M  V30 1 1 1 2
M  V30 2 1 2 3
M  V30 3 2 3 4
M  V30 4 1 3 5
M  V30 5 1 5 6
M  V30 6 1 6 7
M  V30 7 1 7 8
M  V30 8 2 8 9
M  V30 9 1 9 10
M  V30 10 2 10 11
M  V30 11 1 11 12
M  V30 12 1 12 13
M  V30 13 1 13 14
M  V30 14 2 14 15
M  V30 15 1 14 16
M  V30 16 1 16 17
M  V30 17 1 17 18
M  V30 18 2 12 19
M  V30 19 2 7 20
M  V30 20 1 20 21
M  V30 21 1 21 22
M  V30 22 1 22 23
M  V30 23 1 23 24
M  V30 24 1 24 25
M  V30 25 1 25 26
M  V30 26 1 26 27
M  V30 27 2 27 28
M  V30 28 1 28 29
M  V30 29 1 29 30
M  V30 30 1 30 31
M  V30 31 1 31 32
M  V30 32 1 32 33
M  V30 33 2 33 34
M  V30 34 1 34 35
M  V30 35 2 35 36
M  V30 36 1 36 37
M  V30 37 2 37 38
M  V30 38 1 38 39
M  V30 39 2 39 40
M  V30 40 1 40 41
M  V30 41 2 41 42
M  V30 42 1 35 43
M  V30 43 1 43 44
M  V30 44 1 44 45
M  V30 45 1 45 46
M  V30 46 1 29 47
M  V30 47 2 47 48
M  V30 48 2 21 5
M  V30 49 1 48 27
M  V30 50 1 19 8
M  V30 51 1 42 33
M  V30 52 1 18 16
M  V30 53 1 46 34
M  V30 54 1 42 37
M  V30 55 1 1 49
M  V30 56 1 1 50
M  V30 57 1 1 51
M  V30 58 1 2 52
M  V30 59 1 9 53
M  V30 60 1 10 54
M  V30 61 1 13 55
M  V30 62 1 16 56
M  V30 63 1 17 57
M  V30 64 1 17 58
M  V30 65 1 18 59
M  V30 66 1 18 60
M  V30 67 1 19 61
M  V30 68 1 23 62
M  V30 69 1 23 63
M  V30 70 1 24 64
M  V30 71 1 24 65
M  V30 72 1 26 66
M  V30 73 1 26 67
M  V30 74 1 28 68
M  V30 75 1 30 69
M  V30 76 1 30 70
M  V30 77 1 31 71
M  V30 78 1 31 72
M  V30 79 1 32 73
M  V30 80 1 38 74
M  V30 81 1 39 75
M  V30 82 1 40 76
M  V30 83 1 41 77
M  V30 84 1 43 78
M  V30 85 1 43 79
M  V30 86 1 44 80
M  V30 87 1 44 81
M  V30 88 1 45 82
M  V30 89 1 45 83
M  V30 90 1 46 84
M  V30 91 1 46 85
M  V30 END BOND
M  V30 END CTAB
M  END
>  <Dataset>  (336) 
ChEMBL_Kinases

>  <Ligand_Instance>  (336) 
nan

>  <PDB_ID>  (336) 
nan

>  <Standardized_SMILES>  (336) 
CNC(=O)c1sc(-c2ccnc(NC(=O)C3CC3)c2)nc1OCCOCc1cn(CCNc2c3c(nc4ccccc24)CCCC3)nn1

>  <Name>  (336) 
nan

>  <Pocket>  (336) 
nan

>  <ATP_Site>  (336) 
nan

>  <Peripheral>  (336) 
nan

>  <Num_H_Atoms_ProtBoundConf>  (336) 
nan

>  <Num_Resolved_Atoms>  (336) 
nan

>  <Num_Not_Resolved_Atoms>  (336) 
nan

$$$$
CHEMBL4779487
     RDKit          3D

  0  0  0  0  0  0  0  0  0  0999 V3000
M  V30 BEGIN CTAB
M  V30 COUNTS 38 41 0 0 0
M  V30 BEGIN ATOM
M  V30 1 C -1.388844 -5.756848 5.469125 0
M  V30 2 C -1.302502 -4.797674 4.715853 0
M  V30 3 C -1.200967 -3.689729 3.814389 0
M  V30 4 N -0.195488 -3.630395 2.944773 0
M  V30 5 C -0.059865 -2.612549 2.081840 0
M  V30 6 N 1.033133 -2.600261 1.175101 0
M  V30 7 C 1.380182 -1.644444 0.184163 0
M  V30 8 C 2.494552 -1.804102 -0.612926 0
M  V30 9 C 2.850833 -0.892753 -1.578627 0
M  V30 10 C 2.095821 0.238896 -1.794556 0
M  V30 11 C 0.972519 0.454736 -1.031624 0
M  V30 12 C 0.668146 -0.494631 -0.080466 0
M  V30 13 C 0.141596 1.669432 -1.246584 0
M  V30 14 N 1.074936 2.768671 -1.453717 0
M  V30 15 C 0.773319 4.073689 -0.869806 0
M  V30 16 C 2.262471 2.580167 -2.211468 0
M  V30 17 O 3.089301 3.545431 -2.332372 0
M  V30 18 C 2.478466 1.226864 -2.838506 0
M  V30 19 N -1.001591 -1.670705 2.159854 0
M  V30 20 C -2.043228 -1.650002 3.000067 0
M  V30 21 N -3.060025 -0.764825 3.181577 0
M  V30 22 C -3.802697 -1.304698 4.190163 0
M  V30 23 N -3.258415 -2.465441 4.600202 0
M  V30 24 C -2.150364 -2.707102 3.868592 0
M  V30 25 H -1.475320 -6.582035 6.126411 0
M  V30 26 H 1.700241 -3.424275 1.235784 0
M  V30 27 H 3.127455 -2.692356 -0.476518 0
M  V30 28 H 3.744434 -1.096710 -2.161726 0
M  V30 29 H -0.223692 -0.267100 0.483761 0
M  V30 30 H -0.373121 1.546280 -2.232614 0
M  V30 31 H -0.544594 1.865931 -0.422226 0
M  V30 32 H 0.454750 4.761874 -1.664500 0
M  V30 33 H 0.052617 3.979267 -0.031265 0
M  V30 34 H 1.744655 4.465304 -0.465232 0
M  V30 35 H 1.743895 1.137995 -3.656656 0
M  V30 36 H 3.528148 1.109975 -3.162213 0
M  V30 37 H -3.153880 0.101993 2.618629 0
M  V30 38 H -4.702156 -0.799003 4.555498 0
M  V30 END ATOM
M  V30 BEGIN BOND
M  V30 1 3 1 2
M  V30 2 1 2 3
M  V30 3 2 3 4
M  V30 4 1 4 5
M  V30 5 1 5 6
M  V30 6 1 6 7
M  V30 7 2 7 8
M  V30 8 1 8 9
M  V30 9 2 9 10
M  V30 10 1 10 11
M  V30 11 2 11 12
M  V30 12 1 11 13
M  V30 13 1 13 14
M  V30 14 1 14 15
M  V30 15 1 14 16
M  V30 16 2 16 17
M  V30 17 1 16 18
M  V30 18 2 5 19
M  V30 19 1 19 20
M  V30 20 1 20 21
M  V30 21 1 21 22
M  V30 22 2 22 23
M  V30 23 1 23 24
M  V30 24 1 24 3
M  V30 25 1 12 7
M  V30 26 2 24 20
M  V30 27 1 18 10
M  V30 28 1 1 25
M  V30 29 1 6 26
M  V30 30 1 8 27
M  V30 31 1 9 28
M  V30 32 1 12 29
M  V30 33 1 13 30
M  V30 34 1 13 31
M  V30 35 1 15 32
M  V30 36 1 15 33
M  V30 37 1 15 34
M  V30 38 1 18 35
M  V30 39 1 18 36
M  V30 40 1 21 37
M  V30 41 1 22 38
M  V30 END BOND
M  V30 END CTAB
M  END
>  <Dataset>  (337) 
ChEMBL_Kinases

>  <Ligand_Instance>  (337) 
nan

>  <PDB_ID>  (337) 
nan

>  <Standardized_SMILES>  (337) 
C#Cc1nc(Nc2ccc3c(c2)CN(C)C(=O)C3)nc2[nH]cnc12

>  <Name>  (337) 
nan

>  <Pocket>  (337) 
nan

>  <ATP_Site>  (337) 
nan

>  <Peripheral>  (337) 
nan

>  <Num_H_Atoms_ProtBoundConf>  (337) 
nan

>  <Num_Resolved_Atoms>  (337) 
nan

>  <Num_Not_Resolved_Atoms>  (337) 
nan

$$$$
CHEMBL4779507
     RDKit          3D

  0  0  0  0  0  0  0  0  0  0999 V3000
M  V30 BEGIN CTAB
M  V30 COUNTS 40 42 0 0 0
M  V30 BEGIN ATOM
M  V30 1 N 0.101157 -4.773146 3.296331 0
M  V30 2 C 0.527598 -3.703526 2.464219 0
M  V30 3 N 1.699407 -3.605412 1.809218 0
M  V30 4 C 1.989451 -2.535435 1.046529 0
M  V30 5 C 1.137876 -1.464743 0.866638 0
M  V30 6 C 1.465428 -0.307932 0.034791 0
M  V30 7 C 2.260379 -0.412700 -1.089828 0
M  V30 8 C 2.539239 0.720175 -1.843339 0
M  V30 9 C 2.023839 1.944905 -1.469310 0
M  V30 10 O 2.187678 3.158292 -2.080222 0
M  V30 11 C 2.919732 3.443235 -3.232992 0
M  V30 12 C 2.849185 4.907047 -3.579614 0
M  V30 13 O 3.457782 5.332469 -4.595827 0
M  V30 14 O 2.238521 6.011440 -3.029923 0
M  V30 15 C 1.220066 2.037028 -0.327978 0
M  V30 16 C 0.921093 0.913476 0.451963 0
M  V30 17 C -0.073573 -1.555203 1.537500 0
M  V30 18 C -0.384857 -2.652455 2.326717 0
M  V30 19 C -1.712301 -2.613298 2.982486 0
M  V30 20 C -1.970311 -2.936051 4.298967 0
M  V30 21 C -3.260233 -2.853542 4.776201 0
M  V30 22 C -4.305180 -2.454291 3.966386 0
M  V30 23 Cl -5.951188 -2.346099 4.564960 0
M  V30 24 C -4.067943 -2.127653 2.648343 0
M  V30 25 C -2.773399 -2.216136 2.189854 0
M  V30 26 H 0.756326 -4.869506 4.108852 0
M  V30 27 H -0.731286 -5.417777 3.185893 0
M  V30 28 H 2.945693 -2.508037 0.542316 0
M  V30 29 H 2.664636 -1.346388 -1.391568 0
M  V30 30 H 3.146681 0.733468 -2.731343 0
M  V30 31 H 4.001358 3.261511 -2.999427 0
M  V30 32 H 2.679008 2.821367 -4.113572 0
M  V30 33 H 1.493993 6.463614 -3.572650 0
M  V30 34 H 0.765636 2.964588 0.048495 0
M  V30 35 H 0.296600 0.993500 1.336066 0
M  V30 36 H -0.775109 -0.739789 1.427579 0
M  V30 37 H -1.119576 -3.241649 4.888262 0
M  V30 38 H -3.457734 -3.107040 5.807065 0
M  V30 39 H -4.884977 -1.816359 2.018196 0
M  V30 40 H -2.617215 -1.950395 1.139594 0
M  V30 END ATOM
M  V30 BEGIN BOND
M  V30 1 1 1 2
M  V30 2 2 2 3
M  V30 3 1 3 4
M  V30 4 2 4 5
M  V30 5 1 5 6
M  V30 6 2 6 7
M  V30 7 1 7 8
M  V30 8 2 8 9
M  V30 9 1 9 10
M  V30 10 1 10 11
M  V30 11 1 11 12
M  V30 12 2 12 13
M  V30 13 1 12 14
M  V30 14 1 9 15
M  V30 15 2 15 16
M  V30 16 1 5 17
M  V30 17 2 17 18
M  V30 18 1 18 19
M  V30 19 2 19 20
M  V30 20 1 20 21
M  V30 21 2 21 22
M  V30 22 1 22 23
M  V30 23 1 22 24
M  V30 24 2 24 25
M  V30 25 1 18 2
M  V30 26 1 25 19
M  V30 27 1 16 6
M  V30 28 1 1 26
M  V30 29 1 1 27
M  V30 30 1 4 28
M  V30 31 1 7 29
M  V30 32 1 8 30
M  V30 33 1 11 31
M  V30 34 1 11 32
M  V30 35 1 14 33
M  V30 36 1 15 34
M  V30 37 1 16 35
M  V30 38 1 17 36
M  V30 39 1 20 37
M  V30 40 1 21 38
M  V30 41 1 24 39
M  V30 42 1 25 40
M  V30 END BOND
M  V30 END CTAB
M  END
>  <Dataset>  (338) 
ChEMBL_Kinases

>  <Ligand_Instance>  (338) 
nan

>  <PDB_ID>  (338) 
nan

>  <Standardized_SMILES>  (338) 
Nc1ncc(-c2ccc(OCC(=O)O)cc2)cc1-c1ccc(Cl)cc1

>  <Name>  (338) 
nan

>  <Pocket>  (338) 
nan

>  <ATP_Site>  (338) 
nan

>  <Peripheral>  (338) 
nan

>  <Num_H_Atoms_ProtBoundConf>  (338) 
nan

>  <Num_Resolved_Atoms>  (338) 
nan

>  <Num_Not_Resolved_Atoms>  (338) 
nan

$$$$
CHEMBL4779510
     RDKit          3D

  0  0  0  0  0  0  0  0  0  0999 V3000
M  V30 BEGIN CTAB
M  V30 COUNTS 36 40 0 0 0
M  V30 BEGIN ATOM
M  V30 1 C -1.315390 -4.005062 1.778746 0
M  V30 2 C -0.391060 -3.049912 1.340093 0
M  V30 3 C 0.971781 -3.262640 1.355731 0
M  V30 4 C 1.849626 -2.201841 0.876352 0
M  V30 5 C 3.218289 -2.315644 0.851214 0
M  V30 6 C 3.992015 -1.269328 0.383173 0
M  V30 7 C 3.358632 -0.121071 -0.052869 0
M  V30 8 N 3.819351 1.040466 -0.551608 0
M  V30 9 C 2.759060 1.830142 -0.818787 0
M  V30 10 N 1.607816 1.189417 -0.496716 0
M  V30 11 C 0.257875 1.630987 -0.606479 0
M  V30 12 C -0.407113 2.051892 -1.743650 0
M  V30 13 C -1.729867 2.444830 -1.639562 0
M  V30 14 C -2.374999 2.417403 -0.422168 0
M  V30 15 C -1.721534 1.996198 0.735734 0
M  V30 16 C -0.399332 1.606514 0.615243 0
M  V30 17 O -2.683000 2.107296 1.740746 0
M  V30 18 C -3.988131 2.092302 1.143863 0
M  V30 19 O -3.689043 2.763946 -0.085482 0
M  V30 20 C 1.988580 -0.023098 -0.021190 0
M  V30 21 N 1.254163 -1.074976 0.447061 0
M  V30 22 C 1.395144 -4.484530 1.832885 0
M  V30 23 C 0.475759 -5.416527 2.261817 0
M  V30 24 N -0.842582 -5.199414 2.242061 0
M  V30 25 H -2.384280 -3.805459 1.753092 0
M  V30 26 H -0.841601 -2.116070 0.982058 0
M  V30 27 H 3.697707 -3.206139 1.189985 0
M  V30 28 H 5.054543 -1.291300 0.336538 0
M  V30 29 H 2.806492 2.831362 -1.230387 0
M  V30 30 H 0.197868 2.028809 -2.625370 0
M  V30 31 H -2.196672 2.762749 -2.557404 0
M  V30 32 H 0.044308 1.289542 1.566502 0
M  V30 33 H -4.220647 1.029248 0.981516 0
M  V30 34 H -4.716822 2.628971 1.756129 0
M  V30 35 H 2.456778 -4.678089 1.856446 0
M  V30 36 H 0.909953 -6.347844 2.619671 0
M  V30 END ATOM
M  V30 BEGIN BOND
M  V30 1 2 1 2
M  V30 2 1 2 3
M  V30 3 1 3 4
M  V30 4 2 4 5
M  V30 5 1 5 6
M  V30 6 2 6 7
M  V30 7 1 7 8
M  V30 8 2 8 9
M  V30 9 1 9 10
M  V30 10 1 10 11
M  V30 11 2 11 12
M  V30 12 1 12 13
M  V30 13 2 13 14
M  V30 14 1 14 15
M  V30 15 2 15 16
M  V30 16 1 15 17
M  V30 17 1 17 18
M  V30 18 1 18 19
M  V30 19 1 10 20
M  V30 20 2 20 21
M  V30 21 2 3 22
M  V30 22 1 22 23
M  V30 23 2 23 24
M  V30 24 1 24 1
M  V30 25 1 21 4
M  V30 26 1 20 7
M  V30 27 1 16 11
M  V30 28 1 19 14
M  V30 29 1 1 25
M  V30 30 1 2 26
M  V30 31 1 5 27
M  V30 32 1 6 28
M  V30 33 1 9 29
M  V30 34 1 12 30
M  V30 35 1 13 31
M  V30 36 1 16 32
M  V30 37 1 18 33
M  V30 38 1 18 34
M  V30 39 1 22 35
M  V30 40 1 23 36
M  V30 END BOND
M  V30 END CTAB
M  END
>  <Dataset>  (339) 
ChEMBL_Kinases

>  <Ligand_Instance>  (339) 
nan

>  <PDB_ID>  (339) 
nan

>  <Standardized_SMILES>  (339) 
c1cc(-c2ccc3ncn(-c4ccc5c(c4)OCO5)c3n2)ccn1

>  <Name>  (339) 
nan

>  <Pocket>  (339) 
nan

>  <ATP_Site>  (339) 
nan

>  <Peripheral>  (339) 
nan

>  <Num_H_Atoms_ProtBoundConf>  (339) 
nan

>  <Num_Resolved_Atoms>  (339) 
nan

>  <Num_Not_Resolved_Atoms>  (339) 
nan

$$$$
CHEMBL4779572
     RDKit          3D

  0  0  0  0  0  0  0  0  0  0999 V3000
M  V30 BEGIN CTAB
M  V30 COUNTS 55 59 0 0 0
M  V30 BEGIN ATOM
M  V30 1 N 6.265486 1.303364 8.570931 0
M  V30 2 C 5.743639 1.769116 7.648482 0
M  V30 3 C 5.085123 2.343518 6.508577 0
M  V30 4 C 5.569315 3.515470 5.967366 0
M  V30 5 C 4.971738 4.106695 4.872526 0
M  V30 6 C 3.848233 3.512042 4.290174 0
M  V30 7 C 3.376591 2.335280 4.847795 0
M  V30 8 N 2.240536 1.590425 4.383349 0
M  V30 9 C 2.451800 0.575393 3.396111 0
M  V30 10 O 3.637363 0.463073 3.052668 0
M  V30 11 N 1.357944 -0.163910 2.928473 0
M  V30 12 C 1.590128 -1.181015 1.934688 0 CFG=1
M  V30 13 C 0.955356 -2.509853 2.240728 0
M  V30 14 O -0.397006 -2.332964 2.101532 0
M  V30 15 C -0.630611 -1.219912 1.332509 0 CFG=1
M  V30 16 C 0.709871 -0.810014 0.745835 0 CFG=2
M  V30 17 O 0.928624 -1.660202 -0.328494 0
M  V30 18 C -0.278494 -2.105187 -0.789230 0
M  V30 19 C -1.382158 -1.530496 0.054644 0 CFG=2
M  V30 20 N -1.797461 -0.270983 -0.532885 0
M  V30 21 C -2.541999 -0.182036 -1.764937 0
M  V30 22 N -2.920400 1.017624 -2.296165 0
M  V30 23 C -3.612900 0.983098 -3.451427 0
M  V30 24 C -3.938024 -0.194456 -4.089110 0
M  V30 25 C -3.529631 -1.374816 -3.506347 0
M  V30 26 C -3.816799 -2.678732 -4.090826 0
M  V30 27 C -3.370825 -3.810087 -3.441186 0
M  V30 28 C -3.589546 -5.105062 -3.910725 0
M  V30 29 C -4.284198 -5.267373 -5.079628 0
M  V30 30 C -4.739821 -4.161467 -5.747413 0
M  V30 31 F -5.422773 -4.364151 -6.900065 0
M  V30 32 C -4.510880 -2.886939 -5.262573 0
M  V30 33 N -2.837479 -1.366058 -2.353798 0
M  V30 34 C 3.975821 1.747230 5.941517 0
M  V30 35 H 6.445049 4.020470 6.385368 0
M  V30 36 H 5.316395 5.034866 4.406047 0
M  V30 37 H 3.306688 3.872118 3.450017 0
M  V30 38 H 1.261008 1.776254 4.753493 0
M  V30 39 H 0.371831 -0.035374 3.247233 0
M  V30 40 H 2.651520 -1.265056 1.641916 0
M  V30 41 H 1.268380 -2.987654 3.170552 0
M  V30 42 H 1.300910 -3.194149 1.429290 0
M  V30 43 H -1.105486 -0.382951 1.885151 0
M  V30 44 H 0.747688 0.258892 0.501153 0
M  V30 45 H -0.413852 -3.218609 -0.754812 0
M  V30 46 H -0.438861 -1.872511 -1.883020 0
M  V30 47 H -2.220326 -2.224390 0.212901 0
M  V30 48 H -1.568044 0.659407 -0.074248 0
M  V30 49 H -3.914382 1.950193 -3.873808 0
M  V30 50 H -4.491644 -0.195764 -5.010588 0
M  V30 51 H -2.811441 -3.756977 -2.506140 0
M  V30 52 H -3.215566 -5.966108 -3.358785 0
M  V30 53 H -4.432752 -6.297063 -5.410806 0
M  V30 54 H -4.871937 -2.036695 -5.793915 0
M  V30 55 H 3.653342 0.833549 6.417152 0
M  V30 END ATOM
M  V30 BEGIN BOND
M  V30 1 3 1 2
M  V30 2 1 2 3
M  V30 3 2 3 4
M  V30 4 1 4 5
M  V30 5 2 5 6
M  V30 6 1 6 7
M  V30 7 1 7 8
M  V30 8 1 8 9
M  V30 9 2 9 10
M  V30 10 1 9 11
M  V30 11 1 11 12
M  V30 12 1 12 13
M  V30 13 1 13 14
M  V30 14 1 14 15
M  V30 15 1 15 16
M  V30 16 1 16 17
M  V30 17 1 17 18
M  V30 18 1 18 19
M  V30 19 1 19 20
M  V30 20 1 20 21
M  V30 21 2 21 22
M  V30 22 1 22 23
M  V30 23 2 23 24
M  V30 24 1 24 25
M  V30 25 1 25 26
M  V30 26 2 26 27
M  V30 27 1 27 28
M  V30 28 2 28 29
M  V30 29 1 29 30
M  V30 30 1 30 31
M  V30 31 2 30 32
M  V30 32 2 25 33
M  V30 33 2 7 34
M  V30 34 1 34 3
M  V30 35 1 16 12
M  V30 36 1 33 21
M  V30 37 1 19 15
M  V30 38 1 32 26
M  V30 39 1 4 35
M  V30 40 1 5 36
M  V30 41 1 6 37
M  V30 42 1 8 38
M  V30 43 1 11 39
M  V30 44 1 12 40 CFG=3
M  V30 45 1 13 41
M  V30 46 1 13 42
M  V30 47 1 15 43 CFG=1
M  V30 48 1 16 44 CFG=3
M  V30 49 1 18 45
M  V30 50 1 18 46
M  V30 51 1 19 47 CFG=1
M  V30 52 1 20 48
M  V30 53 1 23 49
M  V30 54 1 24 50
M  V30 55 1 27 51
M  V30 56 1 28 52
M  V30 57 1 29 53
M  V30 58 1 32 54
M  V30 59 1 34 55
M  V30 END BOND
M  V30 END CTAB
M  END
>  <Dataset>  (340) 
ChEMBL_Kinases

>  <Ligand_Instance>  (340) 
nan

>  <PDB_ID>  (340) 
nan

>  <Standardized_SMILES>  (340) 
N#Cc1cccc(NC(=O)N[C@H]2CO[C@H]3[C@@H]2OC[C@@H]3Nc2nccc(-c3cccc(F)c3)n2)c1

>  <Name>  (340) 
nan

>  <Pocket>  (340) 
nan

>  <ATP_Site>  (340) 
nan

>  <Peripheral>  (340) 
nan

>  <Num_H_Atoms_ProtBoundConf>  (340) 
nan

>  <Num_Resolved_Atoms>  (340) 
nan

>  <Num_Not_Resolved_Atoms>  (340) 
nan

$$$$
CHEMBL4213945
     RDKit          3D

  0  0  0  0  0  0  0  0  0  0999 V3000
M  V30 BEGIN CTAB
M  V30 COUNTS 71 76 0 0 0
M  V30 BEGIN ATOM
M  V30 1 C 6.441227 -1.673159 8.568010 0
M  V30 2 C 6.184618 -1.717410 7.092376 0
M  V30 3 C 7.253355 -1.833601 6.224013 0
M  V30 4 C 6.963108 -1.869529 4.880717 0
M  V30 5 C 5.655203 -1.793150 4.403584 0
M  V30 6 N 5.295855 -1.825629 3.024846 0
M  V30 7 C 3.935084 -1.741115 2.585773 0
M  V30 8 N 3.165698 -2.842412 2.422909 0
M  V30 9 C 1.868954 -2.743889 2.002925 0
M  V30 10 C 1.416554 -1.454181 1.762936 0
M  V30 11 C 2.182597 -0.316682 1.922232 0
M  V30 12 N 3.471073 -0.482173 2.344514 0
M  V30 13 N 1.671736 0.986601 1.666521 0
M  V30 14 C 2.506583 2.154306 1.844691 0
M  V30 15 C 1.986653 3.479910 2.180016 0
M  V30 16 C 2.417323 3.246906 0.793243 0
M  V30 17 C 0.324353 1.144590 1.230334 0
M  V30 18 O -0.201705 2.237756 0.984475 0
M  V30 19 N -0.455586 -0.034709 1.070577 0
M  V30 20 C -1.808107 0.088095 0.647411 0
M  V30 21 C -2.024427 0.058327 -0.732468 0
M  V30 22 C -3.311450 0.174754 -1.188499 0
M  V30 23 N -3.748356 0.166910 -2.563436 0
M  V30 24 C -4.031026 -1.166366 -2.947807 0
M  V30 25 O -3.858645 -2.043012 -2.069967 0
M  V30 26 C -4.498386 -1.575141 -4.267334 0
M  V30 27 C -4.730153 -2.920343 -4.462917 0
M  V30 28 C -5.172837 -3.298199 -5.717831 0
M  V30 29 C -5.394514 -2.434091 -6.770166 0
M  V30 30 C -5.869639 -2.890757 -8.097623 0
M  V30 31 C -5.155715 -1.094334 -6.550115 0
M  V30 32 C -5.350859 -0.057656 -7.587984 0
M  V30 33 F -5.046568 1.211449 -7.131146 0
M  V30 34 F -6.695746 -0.092384 -7.958167 0
M  V30 35 F -4.556189 -0.350137 -8.694004 0
M  V30 36 C -4.709064 -0.687330 -5.294394 0
M  V30 37 C -4.398026 0.320369 -0.318217 0
M  V30 38 C -4.165372 0.347429 1.037050 0
M  V30 39 C -2.886194 0.232197 1.498154 0
M  V30 40 C -2.604374 0.258623 2.966793 0
M  V30 41 C 0.002792 -1.388653 1.303638 0
M  V30 42 C 4.609485 -1.676460 5.324027 0
M  V30 43 N 4.914111 -1.642220 6.650691 0
M  V30 44 H 7.341164 -1.086249 8.800201 0
M  V30 45 H 5.541140 -1.316109 9.105102 0
M  V30 46 H 6.632976 -2.707165 8.952782 0
M  V30 47 H 8.284286 -1.895094 6.567739 0
M  V30 48 H 7.742915 -1.959996 4.111290 0
M  V30 49 H 6.047086 -1.914352 2.302579 0
M  V30 50 H 1.260714 -3.622071 1.874567 0
M  V30 51 H 3.546843 1.938995 2.187415 0
M  V30 52 H 0.913983 3.654287 2.463188 0
M  V30 53 H 2.636347 4.164161 2.794350 0
M  V30 54 H 3.376259 3.738180 0.457440 0
M  V30 55 H 1.733083 3.085317 -0.056931 0
M  V30 56 H -1.294053 -0.046686 -1.497379 0
M  V30 57 H -3.881646 0.916826 -3.269486 0
M  V30 58 H -4.592371 -3.689126 -3.714084 0
M  V30 59 H -5.363061 -4.362736 -5.893737 0
M  V30 60 H -5.151673 -2.753691 -8.913928 0
M  V30 61 H -6.121003 -3.971571 -8.050069 0
M  V30 62 H -6.816793 -2.359318 -8.324355 0
M  V30 63 H -4.523367 0.366343 -5.129809 0
M  V30 64 H -5.432933 0.417166 -0.615813 0
M  V30 65 H -4.985748 0.460427 1.758131 0
M  V30 66 H -2.279017 -0.726111 3.305715 0
M  V30 67 H -1.905002 1.091715 3.175044 0
M  V30 68 H -3.528974 0.483785 3.546768 0
M  V30 69 H -0.701671 -1.934115 1.962850 0
M  V30 70 H -0.029294 -1.948363 0.326404 0
M  V30 71 H 3.593662 -1.617382 4.963244 0
M  V30 END ATOM
M  V30 BEGIN BOND
M  V30 1 1 1 2
M  V30 2 2 2 3
M  V30 3 1 3 4
M  V30 4 2 4 5
M  V30 5 1 5 6
M  V30 6 1 6 7
M  V30 7 2 7 8
M  V30 8 1 8 9
M  V30 9 2 9 10
M  V30 10 1 10 11
M  V30 11 2 11 12
M  V30 12 1 11 13
M  V30 13 1 13 14
M  V30 14 1 14 15
M  V30 15 1 15 16
M  V30 16 1 13 17
M  V30 17 2 17 18
M  V30 18 1 17 19
M  V30 19 1 19 20
M  V30 20 2 20 21
M  V30 21 1 21 22
M  V30 22 1 22 23
M  V30 23 1 23 24
M  V30 24 2 24 25
M  V30 25 1 24 26
M  V30 26 2 26 27
M  V30 27 1 27 28
M  V30 28 2 28 29
M  V30 29 1 29 30
M  V30 30 1 29 31
M  V30 31 1 31 32
M  V30 32 1 32 33
M  V30 33 1 32 34
M  V30 34 1 32 35
M  V30 35 2 31 36
M  V30 36 2 22 37
M  V30 37 1 37 38
M  V30 38 2 38 39
M  V30 39 1 39 40
M  V30 40 1 19 41
M  V30 41 1 5 42
M  V30 42 2 42 43
M  V30 43 1 43 2
M  V30 44 1 12 7
M  V30 45 1 16 14
M  V30 46 1 39 20
M  V30 47 1 41 10
M  V30 48 1 36 26
M  V30 49 1 1 44
M  V30 50 1 1 45
M  V30 51 1 1 46
M  V30 52 1 3 47
M  V30 53 1 4 48
M  V30 54 1 6 49
M  V30 55 1 9 50
M  V30 56 1 14 51
M  V30 57 1 15 52
M  V30 58 1 15 53
M  V30 59 1 16 54
M  V30 60 1 16 55
M  V30 61 1 21 56
M  V30 62 1 23 57
M  V30 63 1 27 58
M  V30 64 1 28 59
M  V30 65 1 30 60
M  V30 66 1 30 61
M  V30 67 1 30 62
M  V30 68 1 36 63
M  V30 69 1 37 64
M  V30 70 1 38 65
M  V30 71 1 40 66
M  V30 72 1 40 67
M  V30 73 1 40 68
M  V30 74 1 41 69
M  V30 75 1 41 70
M  V30 76 1 42 71
M  V30 END BOND
M  V30 END CTAB
M  END
>  <Dataset>  (341) 
ChEMBL_Kinases

>  <Ligand_Instance>  (341) 
nan

>  <PDB_ID>  (341) 
nan

>  <Standardized_SMILES>  (341) 
Cc1ccc(Nc2ncc3c(n2)N(C2CC2)C(=O)N(c2cc(NC(=O)c4ccc(C)c(C(F)(F)F)c4)ccc2C)C3)cn1

>  <Name>  (341) 
nan

>  <Pocket>  (341) 
nan

>  <ATP_Site>  (341) 
nan

>  <Peripheral>  (341) 
nan

>  <Num_H_Atoms_ProtBoundConf>  (341) 
nan

>  <Num_Resolved_Atoms>  (341) 
nan

>  <Num_Not_Resolved_Atoms>  (341) 
nan

$$$$
CHEMBL4213926
     RDKit          3D

  0  0  0  0  0  0  0  0  0  0999 V3000
M  V30 BEGIN CTAB
M  V30 COUNTS 60 64 0 0 0
M  V30 BEGIN ATOM
M  V30 1 O 0.392585 -2.837930 -0.251433 0
M  V30 2 C -0.766708 -2.634550 0.181130 0
M  V30 3 C -1.286434 -1.325515 0.561741 0
M  V30 4 C -0.739817 -0.057190 0.560457 0
M  V30 5 C -1.527041 1.018326 0.992542 0
M  V30 6 C -0.822144 2.295565 0.937481 0
M  V30 7 N 0.436394 2.461976 1.377244 0
M  V30 8 C 1.088458 3.632279 1.328822 0
M  V30 9 N 2.418339 3.795388 1.796682 0
M  V30 10 C 3.183058 2.706794 2.367964 0
M  V30 11 C 2.482397 2.162883 3.599956 0
M  V30 12 C 2.249760 3.290260 4.559970 0
M  V30 13 O 3.090150 4.387269 4.275081 0
M  V30 14 C 4.403884 4.011273 4.075474 0
M  V30 15 C 4.548233 3.181093 2.818678 0
M  V30 16 N 0.424377 4.677179 0.808085 0
M  V30 17 C -0.828537 4.571174 0.355106 0
M  V30 18 C -1.509213 3.366873 0.401180 0
M  V30 19 Cl -3.149020 3.311918 -0.214573 0
M  V30 20 C -2.823469 0.795350 1.408563 0
M  V30 21 C -3.337731 -0.496027 1.395285 0
M  V30 22 C -2.579255 -1.566935 0.973884 0
M  V30 23 C -2.944937 -3.002575 0.893351 0
M  V30 24 N -1.740252 -3.659523 0.361666 0
M  V30 25 C -1.697922 -5.089891 0.108462 0
M  V30 26 C -2.157267 -5.448089 -1.260559 0
M  V30 27 N -1.430732 -4.908083 -2.356079 0
M  V30 28 C -2.096290 -5.329995 -3.575668 0
M  V30 29 C -1.284862 -5.039105 -4.814719 0
M  V30 30 O -0.032625 -5.649928 -4.766970 0
M  V30 31 C 0.216618 -6.199030 -3.512243 0
M  V30 32 C -0.043196 -5.218331 -2.398090 0
M  V30 33 H 0.263482 0.016378 0.224154 0
M  V30 34 H 2.873481 4.731666 1.732160 0
M  V30 35 H 3.316908 1.901417 1.637056 0
M  V30 36 H 3.153526 1.417661 4.081870 0
M  V30 37 H 1.600531 1.623009 3.266214 0
M  V30 38 H 1.220789 3.692986 4.522572 0
M  V30 39 H 2.415893 2.936846 5.602308 0
M  V30 40 H 4.993284 4.922278 3.942797 0
M  V30 41 H 4.784059 3.437730 4.952795 0
M  V30 42 H 5.133159 2.264353 3.044220 0
M  V30 43 H 5.075496 3.703290 1.999296 0
M  V30 44 H -1.313352 5.441897 -0.052682 0
M  V30 45 H -3.362994 1.677820 1.727311 0
M  V30 46 H -4.363345 -0.564781 1.740196 0
M  V30 47 H -3.826537 -3.174437 0.244926 0
M  V30 48 H -3.138426 -3.403442 1.916981 0
M  V30 49 H -2.317355 -5.576479 0.893892 0
M  V30 50 H -0.661348 -5.434492 0.304327 0
M  V30 51 H -2.060907 -6.572320 -1.334034 0
M  V30 52 H -3.223352 -5.216794 -1.418727 0
M  V30 53 H -3.054720 -4.774637 -3.677262 0
M  V30 54 H -2.352218 -6.385325 -3.482690 0
M  V30 55 H -1.228268 -3.951297 -5.010585 0
M  V30 56 H -1.822674 -5.493351 -5.671332 0
M  V30 57 H -0.439115 -7.086378 -3.407377 0
M  V30 58 H 1.264450 -6.564417 -3.510832 0
M  V30 59 H 0.258923 -5.770440 -1.459909 0
M  V30 60 H 0.630503 -4.346608 -2.531243 0
M  V30 END ATOM
M  V30 BEGIN BOND
M  V30 1 2 1 2
M  V30 2 1 2 3
M  V30 3 2 3 4
M  V30 4 1 4 5
M  V30 5 1 5 6
M  V30 6 2 6 7
M  V30 7 1 7 8
M  V30 8 1 8 9
M  V30 9 1 9 10
M  V30 10 1 10 11
M  V30 11 1 11 12
M  V30 12 1 12 13
M  V30 13 1 13 14
M  V30 14 1 14 15
M  V30 15 2 8 16
M  V30 16 1 16 17
M  V30 17 2 17 18
M  V30 18 1 18 19
M  V30 19 2 5 20
M  V30 20 1 20 21
M  V30 21 2 21 22
M  V30 22 1 22 23
M  V30 23 1 23 24
M  V30 24 1 24 25
M  V30 25 1 25 26
M  V30 26 1 26 27
M  V30 27 1 27 28
M  V30 28 1 28 29
M  V30 29 1 29 30
M  V30 30 1 30 31
M  V30 31 1 31 32
M  V30 32 1 24 2
M  V30 33 1 32 27
M  V30 34 1 22 3
M  V30 35 1 18 6
M  V30 36 1 15 10
M  V30 37 1 4 33
M  V30 38 1 9 34
M  V30 39 1 10 35
M  V30 40 1 11 36
M  V30 41 1 11 37
M  V30 42 1 12 38
M  V30 43 1 12 39
M  V30 44 1 14 40
M  V30 45 1 14 41
M  V30 46 1 15 42
M  V30 47 1 15 43
M  V30 48 1 17 44
M  V30 49 1 20 45
M  V30 50 1 21 46
M  V30 51 1 23 47
M  V30 52 1 23 48
M  V30 53 1 25 49
M  V30 54 1 25 50
M  V30 55 1 26 51
M  V30 56 1 26 52
M  V30 57 1 28 53
M  V30 58 1 28 54
M  V30 59 1 29 55
M  V30 60 1 29 56
M  V30 61 1 31 57
M  V30 62 1 31 58
M  V30 63 1 32 59
M  V30 64 1 32 60
M  V30 END BOND
M  V30 END CTAB
M  END
>  <Dataset>  (342) 
ChEMBL_Kinases

>  <Ligand_Instance>  (342) 
nan

>  <PDB_ID>  (342) 
nan

>  <Standardized_SMILES>  (342) 
O=C1c2cc(-c3nc(NC4CCOCC4)ncc3Cl)ccc2CN1CCN1CCOCC1

>  <Name>  (342) 
nan

>  <Pocket>  (342) 
nan

>  <ATP_Site>  (342) 
nan

>  <Peripheral>  (342) 
nan

>  <Num_H_Atoms_ProtBoundConf>  (342) 
nan

>  <Num_Resolved_Atoms>  (342) 
nan

>  <Num_Not_Resolved_Atoms>  (342) 
nan

$$$$
CHEMBL4213838
     RDKit          3D

  0  0  0  0  0  0  0  0  0  0999 V3000
M  V30 BEGIN CTAB
M  V30 COUNTS 65 68 0 0 0
M  V30 BEGIN ATOM
M  V30 1 C 2.690405 -2.954851 2.840122 0
M  V30 2 C 2.466783 -1.986048 1.678126 0
M  V30 3 N 3.663284 -1.361343 1.257949 0
M  V30 4 C 4.221392 -0.445061 2.226116 0
M  V30 5 C 5.501579 0.155247 1.733081 0
M  V30 6 C 3.779693 -0.930451 -0.080438 0 CFG=1
M  V30 7 C 3.523956 -2.022350 -1.097970 0
M  V30 8 C 2.867254 0.221307 -0.381090 0
M  V30 9 N 1.459765 -0.048636 -0.218887 0
M  V30 10 C 0.762989 1.157822 -0.528331 0
M  V30 11 O 1.544674 2.124101 -0.854238 0
M  V30 12 C -0.675990 1.393681 -0.512736 0
M  V30 13 C -1.635503 0.459456 -0.204042 0
M  V30 14 C -2.975403 0.772839 -0.212462 0
M  V30 15 C -4.019287 -0.189319 0.108858 0
M  V30 16 C -5.371792 0.124930 0.108701 0
M  V30 17 N -6.058859 -0.992651 0.447942 0
M  V30 18 N -5.229820 -1.987308 0.660938 0
M  V30 19 C -5.441139 -3.283399 1.017601 0
M  V30 20 C -4.365792 -4.163494 1.184344 0
M  V30 21 C -3.130152 -3.601220 0.958754 0
M  V30 22 C -1.976555 -4.454184 1.112214 0
M  V30 23 C -0.596482 -4.192024 0.957358 0
M  V30 24 C 0.258859 -5.237205 1.180038 0
M  V30 25 C -0.257518 -6.484489 1.541148 0
M  V30 26 S -2.100318 -6.190671 1.578019 0
M  V30 27 N -2.895530 -2.325663 0.606222 0
M  V30 28 C -3.988477 -1.520226 0.460432 0
M  V30 29 N -3.350019 2.016740 -0.528982 0
M  V30 30 C -2.459564 2.988090 -0.843781 0
M  V30 31 N -2.877641 4.307141 -1.178203 0
M  V30 32 C -2.974628 5.215861 -0.027841 0
M  V30 33 C -3.160420 4.619303 -2.581764 0
M  V30 34 C -1.124613 2.655969 -0.829964 0
M  V30 35 H 3.068362 -2.355982 3.703279 0
M  V30 36 H 3.371224 -3.744240 2.508774 0
M  V30 37 H 1.668765 -3.358773 3.055252 0
M  V30 38 H 1.958221 -2.519602 0.851072 0
M  V30 39 H 1.764864 -1.226034 2.066219 0
M  V30 40 H 3.497161 0.381166 2.359085 0
M  V30 41 H 4.437011 -0.933299 3.191745 0
M  V30 42 H 5.414345 0.906011 0.950222 0
M  V30 43 H 5.999127 0.685823 2.596376 0
M  V30 44 H 6.251333 -0.617666 1.436125 0
M  V30 45 H 4.851943 -0.604478 -0.307992 0
M  V30 46 H 4.026128 -2.971038 -0.878686 0
M  V30 47 H 2.426856 -2.146256 -1.276582 0
M  V30 48 H 3.930771 -1.657218 -2.074842 0
M  V30 49 H 3.051421 0.631107 -1.408908 0
M  V30 50 H 3.127537 1.068776 0.302400 0
M  V30 51 H 0.696356 -0.747062 0.023342 0
M  V30 52 H -1.311558 -0.538682 0.048428 0
M  V30 53 H -5.852150 1.062238 -0.110548 0
M  V30 54 H -6.456081 -3.663109 1.181154 0
M  V30 55 H -4.531836 -5.177282 1.463510 0
M  V30 56 H -0.335447 -3.187076 0.676057 0
M  V30 57 H 1.325643 -5.103436 1.078392 0
M  V30 58 H 0.263549 -7.356561 1.739012 0
M  V30 59 H -3.977815 4.964361 0.424581 0
M  V30 60 H -2.994169 6.252123 -0.400110 0
M  V30 61 H -2.148686 5.016819 0.657157 0
M  V30 62 H -4.089418 4.041767 -2.803750 0
M  V30 63 H -3.422932 5.690189 -2.679552 0
M  V30 64 H -2.338768 4.304945 -3.257354 0
M  V30 65 H -0.427952 3.452768 -1.086299 0
M  V30 END ATOM
M  V30 BEGIN BOND
M  V30 1 1 1 2
M  V30 2 1 2 3
M  V30 3 1 3 4
M  V30 4 1 4 5
M  V30 5 1 3 6
M  V30 6 1 6 7
M  V30 7 1 6 8
M  V30 8 1 8 9
M  V30 9 1 9 10
M  V30 10 2 10 11
M  V30 11 1 10 12
M  V30 12 2 12 13
M  V30 13 1 13 14
M  V30 14 1 14 15
M  V30 15 1 15 16
M  V30 16 2 16 17
M  V30 17 1 17 18
M  V30 18 1 18 19
M  V30 19 2 19 20
M  V30 20 1 20 21
M  V30 21 1 21 22
M  V30 22 2 22 23
M  V30 23 1 23 24
M  V30 24 2 24 25
M  V30 25 1 25 26
M  V30 26 2 21 27
M  V30 27 1 27 28
M  V30 28 2 14 29
M  V30 29 1 29 30
M  V30 30 1 30 31
M  V30 31 1 31 32
M  V30 32 1 31 33
M  V30 33 2 30 34
M  V30 34 1 34 12
M  V30 35 2 28 15
M  V30 36 1 28 18
M  V30 37 1 26 22
M  V30 38 1 1 35
M  V30 39 1 1 36
M  V30 40 1 1 37
M  V30 41 1 2 38
M  V30 42 1 2 39
M  V30 43 1 4 40
M  V30 44 1 4 41
M  V30 45 1 5 42
M  V30 46 1 5 43
M  V30 47 1 5 44
M  V30 48 1 6 45 CFG=1
M  V30 49 1 7 46
M  V30 50 1 7 47
M  V30 51 1 7 48
M  V30 52 1 8 49
M  V30 53 1 8 50
M  V30 54 1 9 51
M  V30 55 1 13 52
M  V30 56 1 16 53
M  V30 57 1 19 54
M  V30 58 1 20 55
M  V30 59 1 23 56
M  V30 60 1 24 57
M  V30 61 1 25 58
M  V30 62 1 32 59
M  V30 63 1 32 60
M  V30 64 1 32 61
M  V30 65 1 33 62
M  V30 66 1 33 63
M  V30 67 1 33 64
M  V30 68 1 34 65
M  V30 END BOND
M  V30 END CTAB
M  END
>  <Dataset>  (343) 
ChEMBL_Kinases

>  <Ligand_Instance>  (343) 
nan

>  <PDB_ID>  (343) 
nan

>  <Standardized_SMILES>  (343) 
CCN(CC)[C@@H](C)CNC(=O)c1cc(-c2cnn3ccc(-c4cccs4)nc23)nc(N(C)C)c1

>  <Name>  (343) 
nan

>  <Pocket>  (343) 
nan

>  <ATP_Site>  (343) 
nan

>  <Peripheral>  (343) 
nan

>  <Num_H_Atoms_ProtBoundConf>  (343) 
nan

>  <Num_Resolved_Atoms>  (343) 
nan

>  <Num_Not_Resolved_Atoms>  (343) 
nan

$$$$
CHEMBL4779593
     RDKit          3D

  0  0  0  0  0  0  0  0  0  0999 V3000
M  V30 BEGIN CTAB
M  V30 COUNTS 116 122 0 0 0
M  V30 BEGIN ATOM
M  V30 1 C 3.047361 -1.362021 -0.009229 0
M  V30 2 C 4.402977 -1.450966 -0.591831 0
M  V30 3 C 5.131866 -2.569133 0.209354 0
M  V30 4 C 4.495218 -1.850752 -2.000820 0
M  V30 5 C 4.282924 -3.182490 -2.277856 0
M  V30 6 C 4.470717 -3.508863 -3.610811 0
M  V30 7 N 4.804961 -2.340079 -4.147956 0
M  V30 8 N 5.197041 -2.064196 -5.415094 0
M  V30 9 C 5.575787 -0.766690 -5.641547 0
M  V30 10 N 5.594150 0.254849 -4.728860 0
M  V30 11 C 5.188235 -0.059650 -3.460807 0
M  V30 12 N 5.227201 1.065097 -2.608982 0
M  V30 13 C 3.852662 1.376636 -2.157863 0 CFG=1
M  V30 14 C 3.742320 2.342136 -1.056535 0
M  V30 15 C 2.278333 2.368352 -0.597000 0
M  V30 16 C 1.406581 2.150414 -1.824309 0 CFG=1
M  V30 17 N 0.009591 2.569386 -1.534699 0
M  V30 18 C -0.699986 2.527647 -2.748984 0
M  V30 19 C -2.204725 2.424936 -2.563304 0
M  V30 20 N -2.423047 1.187655 -1.786739 0
M  V30 21 C -3.000203 0.040786 -2.367624 0
M  V30 22 O -3.043982 -0.666469 -1.301321 0
M  V30 23 C -3.559283 -0.759633 -3.456191 0
M  V30 24 C -3.732261 -2.184003 -3.037493 0
M  V30 25 C -2.435180 -2.814593 -2.593834 0
M  V30 26 O -1.343943 -2.223225 -2.402393 0
M  V30 27 N -2.631770 -4.242867 -2.402707 0
M  V30 28 C -1.456424 -4.959584 -1.952832 0
M  V30 29 C -0.859443 -4.683744 -0.622369 0
M  V30 30 O -1.648889 -4.948542 0.503220 0
M  V30 31 C -2.741667 -4.275908 0.687158 0
M  V30 32 C -2.784354 -2.977180 1.510937 0
M  V30 33 O -2.484839 -3.209225 2.787210 0
M  V30 34 C -1.504837 -3.894275 3.380857 0
M  V30 35 C -1.292229 -3.312981 4.839413 0
M  V30 36 N -0.802660 -1.934678 4.528374 0
M  V30 37 C -0.324317 -0.655849 4.240801 0
M  V30 38 C 0.981398 -0.308400 3.968806 0
M  V30 39 C 1.178508 0.920658 3.377858 0
M  V30 40 C 0.050908 1.665046 3.130612 0
M  V30 41 C -1.228626 1.265415 3.437495 0
M  V30 42 C -1.480058 0.002895 4.041678 0
M  V30 43 C -2.894142 0.185880 4.193440 0
M  V30 44 O -3.520291 -0.794289 4.756235 0
M  V30 45 N -3.485951 1.339055 3.765103 0
M  V30 46 C -4.903913 1.726186 3.879334 0
M  V30 47 C -5.468922 1.205807 2.510651 0
M  V30 48 C -5.607993 2.279298 1.497069 0
M  V30 49 C -6.541709 3.393230 1.887409 0
M  V30 50 O -7.489162 4.208442 1.967626 0
M  V30 51 N -5.842641 3.992987 3.063207 0
M  V30 52 C -5.090702 3.141033 3.971600 0
M  V30 53 O -4.406181 3.368072 5.044712 0
M  V30 54 C -2.434134 2.129448 3.238841 0
M  V30 55 O -2.479603 3.266849 2.731977 0
M  V30 56 C -1.878173 1.356784 -0.425779 0
M  V30 57 C -0.417111 1.560249 -0.582126 0
M  V30 58 C 2.002213 2.832644 -2.997453 0
M  V30 59 C 3.268939 2.116839 -3.409498 0
M  V30 60 C 4.822276 -1.340906 -3.226960 0
M  V30 61 H 2.802782 -2.212594 0.679280 0
M  V30 62 H 2.982546 -0.464216 0.675662 0
M  V30 63 H 2.247259 -1.283279 -0.783073 0
M  V30 64 H 5.003517 -0.574445 -0.395872 0
M  V30 65 H 5.360191 -2.289387 1.243258 0
M  V30 66 H 5.967707 -3.009361 -0.370910 0
M  V30 67 H 4.327794 -3.398369 0.250712 0
M  V30 68 H 3.996287 -4.049978 -1.642023 0
M  V30 69 H 4.386880 -4.413244 -4.194155 0
M  V30 70 H 5.879787 -0.694999 -6.702131 0
M  V30 71 H 6.096369 1.602613 -2.342497 0
M  V30 72 H 3.293332 0.478576 -2.011503 0
M  V30 73 H 4.424552 2.209538 -0.217120 0
M  V30 74 H 3.989135 3.359013 -1.478040 0
M  V30 75 H 2.044647 1.654616 0.174476 0
M  V30 76 H 2.014861 3.356384 -0.202123 0
M  V30 77 H 1.335788 1.076447 -2.069464 0
M  V30 78 H -0.577897 3.536773 -3.264244 0
M  V30 79 H -0.381612 1.752638 -3.452851 0
M  V30 80 H -2.629703 2.225335 -3.553623 0
M  V30 81 H -2.511153 3.326117 -2.041338 0
M  V30 82 H -4.631406 -0.389633 -3.682365 0
M  V30 83 H -3.048778 -0.629561 -4.412349 0
M  V30 84 H -4.380349 -2.129053 -2.102547 0
M  V30 85 H -4.255542 -2.801985 -3.764600 0
M  V30 86 H -3.507809 -4.801962 -2.531314 0
M  V30 87 H -0.636061 -4.799215 -2.695016 0
M  V30 88 H -1.706461 -6.088863 -1.938946 0
M  V30 89 H -0.535510 -3.618871 -0.612229 0
M  V30 90 H 0.085448 -5.288850 -0.572514 0
M  V30 91 H -3.486162 -5.000168 1.280506 0
M  V30 92 H -3.420051 -4.057152 -0.205690 0
M  V30 93 H -2.295852 -2.141667 0.969384 0
M  V30 94 H -3.905970 -2.691475 1.494859 0
M  V30 95 H -1.951839 -4.926878 3.663476 0
M  V30 96 H -0.574453 -4.052166 2.876961 0
M  V30 97 H -2.253891 -3.179967 5.352822 0
M  V30 98 H -0.624123 -3.911085 5.407666 0
M  V30 99 H 0.116527 -2.422681 4.812049 0
M  V30 100 H 1.771572 -0.978117 4.207326 0
M  V30 101 H 2.205242 1.163675 3.209494 0
M  V30 102 H 0.343086 2.613281 2.653445 0
M  V30 103 H -5.445821 1.023376 4.556319 0
M  V30 104 H -6.437229 0.699049 2.658198 0
M  V30 105 H -4.742010 0.465679 2.119463 0
M  V30 106 H -6.092967 1.811526 0.590175 0
M  V30 107 H -4.637126 2.663766 1.229907 0
M  V30 108 H -5.692604 4.958910 3.509823 0
M  V30 109 H -2.453426 2.108705 0.103186 0
M  V30 110 H -2.021664 0.327886 0.044673 0
M  V30 111 H 0.032534 0.564280 -0.822937 0
M  V30 112 H 0.057028 1.838196 0.373802 0
M  V30 113 H 1.352252 2.782782 -3.930240 0
M  V30 114 H 2.113285 3.889807 -2.785243 0
M  V30 115 H 4.028944 2.868575 -3.666273 0
M  V30 116 H 3.166704 1.435491 -4.255851 0
M  V30 END ATOM
M  V30 BEGIN BOND
M  V30 1 1 1 2
M  V30 2 1 2 3
M  V30 3 1 2 4
M  V30 4 1 4 5
M  V30 5 2 5 6
M  V30 6 1 6 7
M  V30 7 1 7 8
M  V30 8 2 8 9
M  V30 9 1 9 10
M  V30 10 2 10 11
M  V30 11 1 11 12
M  V30 12 1 12 13
M  V30 13 1 13 14
M  V30 14 1 14 15
M  V30 15 1 15 16
M  V30 16 1 16 17
M  V30 17 1 17 18
M  V30 18 1 18 19
M  V30 19 1 19 20
M  V30 20 1 20 21
M  V30 21 2 21 22
M  V30 22 1 21 23
M  V30 23 1 23 24
M  V30 24 1 24 25
M  V30 25 2 25 26
M  V30 26 1 25 27
M  V30 27 1 27 28
M  V30 28 1 28 29
M  V30 29 1 29 30
M  V30 30 1 30 31
M  V30 31 1 31 32
M  V30 32 1 32 33
M  V30 33 1 33 34
M  V30 34 1 34 35
M  V30 35 1 35 36
M  V30 36 1 36 37
M  V30 37 2 37 38
M  V30 38 1 38 39
M  V30 39 2 39 40
M  V30 40 1 40 41
M  V30 41 2 41 42
M  V30 42 1 42 43
M  V30 43 2 43 44
M  V30 44 1 43 45
M  V30 45 1 45 46
M  V30 46 1 46 47
M  V30 47 1 47 48
M  V30 48 1 48 49
M  V30 49 2 49 50
M  V30 50 1 49 51
M  V30 51 1 51 52
M  V30 52 2 52 53
M  V30 53 1 45 54
M  V30 54 2 54 55
M  V30 55 1 20 56
M  V30 56 1 56 57
M  V30 57 1 16 58
M  V30 58 1 58 59
M  V30 59 1 11 60
M  V30 60 2 60 4
M  V30 61 1 60 7
M  V30 62 1 59 13
M  V30 63 1 57 17
M  V30 64 1 42 37
M  V30 65 1 52 46
M  V30 66 1 54 41
M  V30 67 1 1 61
M  V30 68 1 1 62
M  V30 69 1 1 63
M  V30 70 1 2 64
M  V30 71 1 3 65
M  V30 72 1 3 66
M  V30 73 1 3 67
M  V30 74 1 5 68
M  V30 75 1 6 69
M  V30 76 1 9 70
M  V30 77 1 12 71
M  V30 78 1 13 72 CFG=1
M  V30 79 1 14 73
M  V30 80 1 14 74
M  V30 81 1 15 75
M  V30 82 1 15 76
M  V30 83 1 16 77 CFG=3
M  V30 84 1 18 78
M  V30 85 1 18 79
M  V30 86 1 19 80
M  V30 87 1 19 81
M  V30 88 1 23 82
M  V30 89 1 23 83
M  V30 90 1 24 84
M  V30 91 1 24 85
M  V30 92 1 27 86
M  V30 93 1 28 87
M  V30 94 1 28 88
M  V30 95 1 29 89
M  V30 96 1 29 90
M  V30 97 1 31 91
M  V30 98 1 31 92
M  V30 99 1 32 93
M  V30 100 1 32 94
M  V30 101 1 34 95
M  V30 102 1 34 96
M  V30 103 1 35 97
M  V30 104 1 35 98
M  V30 105 1 36 99
M  V30 106 1 38 100
M  V30 107 1 39 101
M  V30 108 1 40 102
M  V30 109 1 46 103
M  V30 110 1 47 104
M  V30 111 1 47 105
M  V30 112 1 48 106
M  V30 113 1 48 107
M  V30 114 1 51 108
M  V30 115 1 56 109
M  V30 116 1 56 110
M  V30 117 1 57 111
M  V30 118 1 57 112
M  V30 119 1 58 113
M  V30 120 1 58 114
M  V30 121 1 59 115
M  V30 122 1 59 116
M  V30 END BOND
M  V30 END CTAB
M  END
>  <Dataset>  (344) 
ChEMBL_Kinases

>  <Ligand_Instance>  (344) 
nan

>  <PDB_ID>  (344) 
nan

>  <Standardized_SMILES>  (344) 
CC(C)c1ccn2ncnc(N[C@H]3CC[C@@H](N4CCN(C(=O)CCC(=O)NCCOCCOCCNc5cccc6c5C(=O)N(C5CCC(=O)NC5=O)C6=O)CC4)CC3)c12

>  <Name>  (344) 
nan

>  <Pocket>  (344) 
nan

>  <ATP_Site>  (344) 
nan

>  <Peripheral>  (344) 
nan

>  <Num_H_Atoms_ProtBoundConf>  (344) 
nan

>  <Num_Resolved_Atoms>  (344) 
nan

>  <Num_Not_Resolved_Atoms>  (344) 
nan

$$$$
CHEMBL4104970
     RDKit          3D

  0  0  0  0  0  0  0  0  0  0999 V3000
M  V30 BEGIN CTAB
M  V30 COUNTS 28 30 0 0 0
M  V30 BEGIN ATOM
M  V30 1 N -0.562955 -3.013431 3.265401 0
M  V30 2 C 0.363498 -2.690971 2.651453 0
M  V30 3 C 1.518339 -2.315037 1.897071 0
M  V30 4 C 2.720831 -3.005418 1.996474 0
M  V30 5 N 3.612266 -2.440444 1.162280 0
M  V30 6 C 3.036148 -1.422504 0.535324 0
M  V30 7 N 3.459225 -0.532580 -0.403790 0
M  V30 8 C 2.551862 0.392127 -0.835847 0
M  V30 9 N 3.125736 1.265071 -1.822457 0
M  V30 10 N 1.282809 0.483704 -0.401544 0
M  V30 11 C 0.840730 -0.399385 0.540759 0
M  V30 12 C -0.546177 -0.189478 0.913311 0
M  V30 13 C -1.433903 -0.136716 -0.171032 0
M  V30 14 C -2.791184 0.078062 -0.076928 0
M  V30 15 C -3.328892 0.256530 1.179693 0
M  V30 16 O -4.679384 0.479837 1.404321 0
M  V30 17 C -2.497970 0.214065 2.278725 0
M  V30 18 C -1.145246 -0.003069 2.139711 0
M  V30 19 C 1.736204 -1.328433 0.979223 0
M  V30 20 H 2.942859 -3.853478 2.622393 0
M  V30 21 H 4.613231 -2.755169 1.025799 0
M  V30 22 H 2.908182 0.872364 -2.772964 0
M  V30 23 H 3.677823 2.151168 -1.779130 0
M  V30 24 H -1.082982 -0.269660 -1.206452 0
M  V30 25 H -3.431987 0.109459 -0.946637 0
M  V30 26 H -5.373686 0.480833 0.663486 0
M  V30 27 H -2.852616 0.345968 3.291973 0
M  V30 28 H -0.457158 -0.026402 2.971994 0
M  V30 END ATOM
M  V30 BEGIN BOND
M  V30 1 3 1 2
M  V30 2 1 2 3
M  V30 3 2 3 4
M  V30 4 1 4 5
M  V30 5 1 5 6
M  V30 6 2 6 7
M  V30 7 1 7 8
M  V30 8 1 8 9
M  V30 9 2 8 10
M  V30 10 1 10 11
M  V30 11 1 11 12
M  V30 12 2 12 13
M  V30 13 1 13 14
M  V30 14 2 14 15
M  V30 15 1 15 16
M  V30 16 1 15 17
M  V30 17 2 17 18
M  V30 18 2 11 19
M  V30 19 1 19 3
M  V30 20 1 19 6
M  V30 21 1 18 12
M  V30 22 1 4 20
M  V30 23 1 5 21
M  V30 24 1 9 22
M  V30 25 1 9 23
M  V30 26 1 13 24
M  V30 27 1 14 25
M  V30 28 1 16 26
M  V30 29 1 17 27
M  V30 30 1 18 28
M  V30 END BOND
M  V30 END CTAB
M  END
>  <Dataset>  (345) 
ChEMBL_Kinases

>  <Ligand_Instance>  (345) 
nan

>  <PDB_ID>  (345) 
nan

>  <Standardized_SMILES>  (345) 
N#Cc1c[nH]c2nc(N)nc(-c3ccc(O)cc3)c12

>  <Name>  (345) 
nan

>  <Pocket>  (345) 
nan

>  <ATP_Site>  (345) 
nan

>  <Peripheral>  (345) 
nan

>  <Num_H_Atoms_ProtBoundConf>  (345) 
nan

>  <Num_Resolved_Atoms>  (345) 
nan

>  <Num_Not_Resolved_Atoms>  (345) 
nan

$$$$
CHEMBL4213775
     RDKit          3D

  0  0  0  0  0  0  0  0  0  0999 V3000
M  V30 BEGIN CTAB
M  V30 COUNTS 63 67 0 0 0
M  V30 BEGIN ATOM
M  V30 1 C 1.569432 2.765069 6.396627 0
M  V30 2 C 1.356644 1.531800 5.554258 0
M  V30 3 N 2.338584 0.561430 5.844403 0
M  V30 4 C 3.673409 0.804881 5.464920 0
M  V30 5 C 4.024172 0.306521 4.080248 0
M  V30 6 N 2.954402 -0.610272 3.706133 0
M  V30 7 C 2.210779 -0.593130 2.496732 0
M  V30 8 C 2.212232 0.559536 1.711066 0
M  V30 9 C 1.459410 0.463980 0.538738 0
M  V30 10 C 0.775983 -0.718924 0.223386 0
M  V30 11 C -0.004172 -0.741351 -1.008138 0
M  V30 12 N -0.885748 0.237182 -1.382766 0
M  V30 13 N -1.410673 -0.071786 -2.543770 0
M  V30 14 C -2.379878 0.764547 -3.180035 0
M  V30 15 C -3.797454 0.464999 -2.801691 0
M  V30 16 C -4.083971 0.606306 -1.323261 0
M  V30 17 C -4.216705 -0.787523 -0.789056 0
M  V30 18 C -4.227266 -1.753400 -1.931259 0
M  V30 19 C -4.288786 -0.897432 -3.150556 0
M  V30 20 C -0.922779 -1.234973 -2.993959 0
M  V30 21 N -1.102147 -2.003116 -4.098708 0
M  V30 22 C -0.431334 -3.177207 -4.272714 0
M  V30 23 N -0.813914 -3.742745 -5.509812 0
M  V30 24 C -1.845669 -4.560315 -6.113491 0
M  V30 25 N 0.427300 -3.577680 -3.322667 0
M  V30 26 C 0.643276 -2.855902 -2.208880 0
M  V30 27 C -0.027970 -1.673336 -2.027701 0
M  V30 28 C 0.816084 -1.824540 1.045296 0
M  V30 29 N 1.545285 -1.718998 2.172653 0
M  V30 30 C 2.721912 -1.567461 4.773086 0
M  V30 31 C 1.903187 -0.795408 5.801587 0
M  V30 32 H 2.626889 3.065554 6.488109 0
M  V30 33 H 1.099495 2.635060 7.405926 0
M  V30 34 H 1.065243 3.617367 5.851083 0
M  V30 35 H 1.320386 1.857496 4.493153 0
M  V30 36 H 0.358382 1.081887 5.742986 0
M  V30 37 H 4.334304 0.332014 6.236073 0
M  V30 38 H 3.899069 1.877469 5.502712 0
M  V30 39 H 4.940460 -0.331367 4.191267 0
M  V30 40 H 4.239071 1.085151 3.364046 0
M  V30 41 H 2.742929 1.449606 1.975626 0
M  V30 42 H 1.388339 1.299870 -0.142824 0
M  V30 43 H -2.207035 1.839029 -2.963804 0
M  V30 44 H -2.351850 0.695695 -4.308951 0
M  V30 45 H -4.430055 1.197595 -3.374786 0
M  V30 46 H -3.342354 1.233010 -0.818408 0
M  V30 47 H -5.065425 1.109654 -1.218166 0
M  V30 48 H -3.368357 -0.944056 -0.077024 0
M  V30 49 H -5.174238 -0.952550 -0.227718 0
M  V30 50 H -5.113516 -2.428856 -1.925101 0
M  V30 51 H -3.312629 -2.387614 -1.870258 0
M  V30 52 H -3.798155 -1.360300 -4.041020 0
M  V30 53 H -5.375731 -0.834801 -3.454878 0
M  V30 54 H -0.098171 -3.475749 -6.247973 0
M  V30 55 H -1.404998 -5.522121 -6.418003 0
M  V30 56 H -2.321833 -4.028916 -6.970796 0
M  V30 57 H -2.664847 -4.748616 -5.398527 0
M  V30 58 H 1.328474 -3.193312 -1.468770 0
M  V30 59 H 0.287758 -2.721271 0.788813 0
M  V30 60 H 2.114004 -2.382658 4.317152 0
M  V30 61 H 3.659875 -1.937767 5.199673 0
M  V30 62 H 1.940481 -1.320112 6.787468 0
M  V30 63 H 0.834945 -0.899715 5.452543 0
M  V30 END ATOM
M  V30 BEGIN BOND
M  V30 1 1 1 2
M  V30 2 1 2 3
M  V30 3 1 3 4
M  V30 4 1 4 5
M  V30 5 1 5 6
M  V30 6 1 6 7
M  V30 7 2 7 8
M  V30 8 1 8 9
M  V30 9 2 9 10
M  V30 10 1 10 11
M  V30 11 2 11 12
M  V30 12 1 12 13
M  V30 13 1 13 14
M  V30 14 1 14 15
M  V30 15 1 15 16
M  V30 16 1 16 17
M  V30 17 1 17 18
M  V30 18 1 18 19
M  V30 19 1 13 20
M  V30 20 2 20 21
M  V30 21 1 21 22
M  V30 22 1 22 23
M  V30 23 1 23 24
M  V30 24 2 22 25
M  V30 25 1 25 26
M  V30 26 2 26 27
M  V30 27 1 10 28
M  V30 28 2 28 29
M  V30 29 1 6 30
M  V30 30 1 30 31
M  V30 31 1 31 3
M  V30 32 1 29 7
M  V30 33 1 27 11
M  V30 34 1 19 15
M  V30 35 1 27 20
M  V30 36 1 1 32
M  V30 37 1 1 33
M  V30 38 1 1 34
M  V30 39 1 2 35
M  V30 40 1 2 36
M  V30 41 1 4 37
M  V30 42 1 4 38
M  V30 43 1 5 39
M  V30 44 1 5 40
M  V30 45 1 8 41
M  V30 46 1 9 42
M  V30 47 1 14 43
M  V30 48 1 14 44
M  V30 49 1 15 45
M  V30 50 1 16 46
M  V30 51 1 16 47
M  V30 52 1 17 48
M  V30 53 1 17 49
M  V30 54 1 18 50
M  V30 55 1 18 51
M  V30 56 1 19 52
M  V30 57 1 19 53
M  V30 58 1 23 54
M  V30 59 1 24 55
M  V30 60 1 24 56
M  V30 61 1 24 57
M  V30 62 1 26 58
M  V30 63 1 28 59
M  V30 64 1 30 60
M  V30 65 1 30 61
M  V30 66 1 31 62
M  V30 67 1 31 63
M  V30 END BOND
M  V30 END CTAB
M  END
>  <Dataset>  (346) 
ChEMBL_Kinases

>  <Ligand_Instance>  (346) 
nan

>  <PDB_ID>  (346) 
nan

>  <Standardized_SMILES>  (346) 
CCN1CCN(c2ccc(-c3nn(CC4CCCC4)c4nc(NC)ncc34)cn2)CC1

>  <Name>  (346) 
nan

>  <Pocket>  (346) 
nan

>  <ATP_Site>  (346) 
nan

>  <Peripheral>  (346) 
nan

>  <Num_H_Atoms_ProtBoundConf>  (346) 
nan

>  <Num_Resolved_Atoms>  (346) 
nan

>  <Num_Not_Resolved_Atoms>  (346) 
nan

$$$$
CHEMBL4213770
     RDKit          3D

  0  0  0  0  0  0  0  0  0  0999 V3000
M  V30 BEGIN CTAB
M  V30 COUNTS 68 72 0 0 0
M  V30 BEGIN ATOM
M  V30 1 C 1.910244 -2.152826 4.431100 0
M  V30 2 C 3.051448 -2.788374 3.652544 0
M  V30 3 N 3.171021 -2.180183 2.371325 0
M  V30 4 C 2.116006 -2.417605 1.446147 0
M  V30 5 C 2.192632 -1.425217 0.319672 0
M  V30 6 N 3.476587 -1.117086 -0.118363 0
M  V30 7 C 3.667109 -0.615540 -1.432211 0
M  V30 8 C 2.836239 0.605265 -1.591892 0
M  V30 9 C 1.567077 0.468261 -2.141403 0
M  V30 10 N 0.716240 1.493203 -2.315905 0
M  V30 11 C 1.055372 2.739428 -1.959193 0
M  V30 12 N 0.408766 4.019011 -1.959076 0
M  V30 13 C -0.892713 4.081411 -1.367634 0
M  V30 14 C -1.525054 2.953991 -0.883363 0
M  V30 15 C -2.748874 2.892800 -0.256287 0
M  V30 16 C -3.370660 1.685037 0.251919 0
M  V30 17 C -4.577307 1.761757 0.907327 0
M  V30 18 C -5.215046 0.631546 1.372827 0
M  V30 19 F -6.407966 0.694130 2.024596 0
M  V30 20 C -4.663573 -0.634730 1.198331 0
M  V30 21 N -5.060864 -1.866222 1.532262 0
M  V30 22 C -4.114745 -2.753508 1.094665 0
M  V30 23 C -4.180156 -4.220937 1.268312 0
M  V30 24 N -3.127262 -2.071152 0.486829 0
M  V30 25 C -1.941230 -2.539252 -0.150157 0
M  V30 26 C -2.194411 -3.091314 -1.535649 0
M  V30 27 C -1.204243 -3.594101 0.640243 0
M  V30 28 C -3.453096 -0.737974 0.542504 0
M  V30 29 C -2.856107 0.419802 0.097707 0
M  V30 30 N -3.373103 4.102748 -0.117931 0
M  V30 31 C -2.781054 5.228432 -0.582952 0
M  V30 32 N -1.566816 5.244131 -1.199012 0
M  V30 33 N 2.286512 2.915360 -1.420360 0
M  V30 34 C 3.144058 1.898683 -1.241155 0
M  V30 35 C 4.624261 -1.527420 0.571686 0
M  V30 36 C 4.446492 -2.456340 1.731024 0
M  V30 37 H 0.998630 -2.780502 4.305732 0
M  V30 38 H 1.668513 -1.131244 4.098134 0
M  V30 39 H 2.178737 -2.035078 5.522990 0
M  V30 40 H 2.975426 -3.882363 3.619498 0
M  V30 41 H 3.982496 -2.546414 4.217776 0
M  V30 42 H 1.127797 -2.380371 1.954819 0
M  V30 43 H 2.156180 -3.427554 0.959333 0
M  V30 44 H 1.598857 -1.794475 -0.569492 0
M  V30 45 H 1.678487 -0.458446 0.632130 0
M  V30 46 H 3.336950 -1.351182 -2.194487 0
M  V30 47 H 4.745098 -0.396630 -1.653113 0
M  V30 48 H 1.123738 -0.454800 -2.484672 0
M  V30 49 H 0.823351 4.864203 -2.355564 0
M  V30 50 H -1.072516 1.981796 -0.961986 0
M  V30 51 H -5.099878 2.708315 1.097974 0
M  V30 52 H -3.543157 -4.564741 2.122838 0
M  V30 53 H -5.227575 -4.465991 1.612277 0
M  V30 54 H -4.055552 -4.802186 0.347559 0
M  V30 55 H -1.199968 -1.712320 -0.296012 0
M  V30 56 H -1.228873 -3.063736 -2.081110 0
M  V30 57 H -2.893134 -2.445600 -2.090023 0
M  V30 58 H -2.506059 -4.160478 -1.526263 0
M  V30 59 H -0.152742 -3.682110 0.277270 0
M  V30 60 H -1.706930 -4.584519 0.604807 0
M  V30 61 H -1.163020 -3.226365 1.686161 0
M  V30 62 H -1.916966 0.277121 -0.404256 0
M  V30 63 H -3.356391 6.146318 -0.428306 0
M  V30 64 H 4.152082 2.015033 -0.807478 0
M  V30 65 H 5.251417 -0.642574 0.886619 0
M  V30 66 H 5.297181 -2.059976 -0.162973 0
M  V30 67 H 4.559192 -3.528707 1.459804 0
M  V30 68 H 5.235621 -2.240507 2.476306 0
M  V30 END ATOM
M  V30 BEGIN BOND
M  V30 1 1 1 2
M  V30 2 1 2 3
M  V30 3 1 3 4
M  V30 4 1 4 5
M  V30 5 1 5 6
M  V30 6 1 6 7
M  V30 7 1 7 8
M  V30 8 2 8 9
M  V30 9 1 9 10
M  V30 10 2 10 11
M  V30 11 1 11 12
M  V30 12 1 12 13
M  V30 13 2 13 14
M  V30 14 1 14 15
M  V30 15 1 15 16
M  V30 16 2 16 17
M  V30 17 1 17 18
M  V30 18 1 18 19
M  V30 19 2 18 20
M  V30 20 1 20 21
M  V30 21 2 21 22
M  V30 22 1 22 23
M  V30 23 1 22 24
M  V30 24 1 24 25
M  V30 25 1 25 26
M  V30 26 1 25 27
M  V30 27 1 24 28
M  V30 28 2 28 29
M  V30 29 2 15 30
M  V30 30 1 30 31
M  V30 31 2 31 32
M  V30 32 1 11 33
M  V30 33 2 33 34
M  V30 34 1 6 35
M  V30 35 1 35 36
M  V30 36 1 36 3
M  V30 37 1 34 8
M  V30 38 1 32 13
M  V30 39 1 29 16
M  V30 40 1 28 20
M  V30 41 1 1 37
M  V30 42 1 1 38
M  V30 43 1 1 39
M  V30 44 1 2 40
M  V30 45 1 2 41
M  V30 46 1 4 42
M  V30 47 1 4 43
M  V30 48 1 5 44
M  V30 49 1 5 45
M  V30 50 1 7 46
M  V30 51 1 7 47
M  V30 52 1 9 48
M  V30 53 1 12 49
M  V30 54 1 14 50
M  V30 55 1 17 51
M  V30 56 1 23 52
M  V30 57 1 23 53
M  V30 58 1 23 54
M  V30 59 1 25 55
M  V30 60 1 26 56
M  V30 61 1 26 57
M  V30 62 1 26 58
M  V30 63 1 27 59
M  V30 64 1 27 60
M  V30 65 1 27 61
M  V30 66 1 29 62
M  V30 67 1 31 63
M  V30 68 1 34 64
M  V30 69 1 35 65
M  V30 70 1 35 66
M  V30 71 1 36 67
M  V30 72 1 36 68
M  V30 END BOND
M  V30 END CTAB
M  END
>  <Dataset>  (347) 
ChEMBL_Kinases

>  <Ligand_Instance>  (347) 
nan

>  <PDB_ID>  (347) 
nan

>  <Standardized_SMILES>  (347) 
CCN1CCN(Cc2cnc(Nc3cc(-c4cc(F)c5nc(C)n(C(C)C)c5c4)ncn3)nc2)CC1

>  <Name>  (347) 
nan

>  <Pocket>  (347) 
nan

>  <ATP_Site>  (347) 
nan

>  <Peripheral>  (347) 
nan

>  <Num_H_Atoms_ProtBoundConf>  (347) 
nan

>  <Num_Resolved_Atoms>  (347) 
nan

>  <Num_Not_Resolved_Atoms>  (347) 
nan

$$$$
CHEMBL4213767
     RDKit          3D

  0  0  0  0  0  0  0  0  0  0999 V3000
M  V30 BEGIN CTAB
M  V30 COUNTS 47 51 0 0 0
M  V30 BEGIN ATOM
M  V30 1 C -1.007168 -6.150083 0.232460 0
M  V30 2 N -1.855017 -5.864144 -0.909067 0
M  V30 3 C -1.073369 -5.556997 -2.092715 0
M  V30 4 C -0.173357 -4.357444 -1.866730 0
M  V30 5 N -0.945829 -3.301938 -1.238242 0
M  V30 6 C -0.267450 -2.213610 -0.623578 0
M  V30 7 C 1.109818 -2.239191 -0.692235 0
M  V30 8 C 1.824965 -1.197645 -0.106141 0
M  V30 9 C 1.148082 -0.173652 0.523782 0
M  V30 10 N 1.603476 0.943032 1.164316 0
M  V30 11 C 0.546300 1.641914 1.617586 0
M  V30 12 C 0.726127 2.886353 2.343691 0
M  V30 13 C 1.991732 3.379779 2.584387 0
M  V30 14 N 3.147233 2.691801 2.132392 0
M  V30 15 C 2.172375 4.571250 3.280005 0
M  V30 16 S 3.661065 5.376880 3.696476 0
M  V30 17 C 2.767536 6.802210 4.573018 0
M  V30 18 C 1.384883 6.468142 4.430625 0
M  V30 19 C 1.136523 5.306319 3.754842 0
M  V30 20 N -0.102549 4.834612 3.525946 0
M  V30 21 C -0.258405 3.689897 2.856857 0
M  V30 22 O -1.440019 3.255927 2.647934 0
M  V30 23 N -0.551948 0.959654 1.258097 0
M  V30 24 C -0.230057 -0.160115 0.585371 0
M  V30 25 C -0.944866 -1.190701 0.005750 0
M  V30 26 C -2.380406 -3.495080 -1.319005 0
M  V30 27 C -2.779816 -4.788015 -0.615727 0
M  V30 28 H -1.482598 -7.012693 0.768928 0
M  V30 29 H -1.099523 -5.264421 0.925293 0
M  V30 30 H 0.040990 -6.334960 -0.030670 0
M  V30 31 H -1.753495 -5.319553 -2.915677 0
M  V30 32 H -0.469432 -6.426147 -2.385335 0
M  V30 33 H 0.665948 -4.713978 -1.200354 0
M  V30 34 H 0.194058 -4.030999 -2.861427 0
M  V30 35 H 1.741809 -2.983541 -1.155705 0
M  V30 36 H 2.903559 -1.152574 -0.121696 0
M  V30 37 H 3.667384 1.805482 2.379317 0
M  V30 38 H 3.792498 2.975901 1.358084 0
M  V30 39 H 3.203023 7.694475 5.082638 0
M  V30 40 H 0.710786 7.179568 4.877090 0
M  V30 41 H -0.998189 5.314036 3.844450 0
M  V30 42 H -1.509104 1.250068 1.466740 0
M  V30 43 H -2.016401 -1.175590 0.056310 0
M  V30 44 H -2.657621 -3.562768 -2.391649 0
M  V30 45 H -2.982782 -2.699540 -0.891258 0
M  V30 46 H -3.818951 -4.999328 -0.905406 0
M  V30 47 H -2.751732 -4.606866 0.471828 0
M  V30 END ATOM
M  V30 BEGIN BOND
M  V30 1 1 1 2
M  V30 2 1 2 3
M  V30 3 1 3 4
M  V30 4 1 4 5
M  V30 5 1 5 6
M  V30 6 2 6 7
M  V30 7 1 7 8
M  V30 8 2 8 9
M  V30 9 1 9 10
M  V30 10 2 10 11
M  V30 11 1 11 12
M  V30 12 2 12 13
M  V30 13 1 13 14
M  V30 14 1 13 15
M  V30 15 1 15 16
M  V30 16 1 16 17
M  V30 17 2 17 18
M  V30 18 1 18 19
M  V30 19 1 19 20
M  V30 20 1 20 21
M  V30 21 2 21 22
M  V30 22 1 11 23
M  V30 23 1 23 24
M  V30 24 2 24 25
M  V30 25 1 5 26
M  V30 26 1 26 27
M  V30 27 1 27 2
M  V30 28 1 25 6
M  V30 29 1 24 9
M  V30 30 1 21 12
M  V30 31 2 19 15
M  V30 32 1 1 28
M  V30 33 1 1 29
M  V30 34 1 1 30
M  V30 35 1 3 31
M  V30 36 1 3 32
M  V30 37 1 4 33
M  V30 38 1 4 34
M  V30 39 1 7 35
M  V30 40 1 8 36
M  V30 41 1 14 37
M  V30 42 1 14 38
M  V30 43 1 17 39
M  V30 44 1 18 40
M  V30 45 1 20 41
M  V30 46 1 23 42
M  V30 47 1 25 43
M  V30 48 1 26 44
M  V30 49 1 26 45
M  V30 50 1 27 46
M  V30 51 1 27 47
M  V30 END BOND
M  V30 END CTAB
M  END
>  <Dataset>  (348) 
ChEMBL_Kinases

>  <Ligand_Instance>  (348) 
nan

>  <PDB_ID>  (348) 
nan

>  <Standardized_SMILES>  (348) 
CN1CCN(c2ccc3nc(-c4c(N)c5sccc5[nH]c4=O)[nH]c3c2)CC1

>  <Name>  (348) 
nan

>  <Pocket>  (348) 
nan

>  <ATP_Site>  (348) 
nan

>  <Peripheral>  (348) 
nan

>  <Num_H_Atoms_ProtBoundConf>  (348) 
nan

>  <Num_Resolved_Atoms>  (348) 
nan

>  <Num_Not_Resolved_Atoms>  (348) 
nan

$$$$
CHEMBL4779611
     RDKit          3D

  0  0  0  0  0  0  0  0  0  0999 V3000
M  V30 BEGIN CTAB
M  V30 COUNTS 56 59 0 0 0
M  V30 BEGIN ATOM
M  V30 1 C 4.846810 2.232238 5.956699 0
M  V30 2 C 5.164393 1.178360 4.877107 0
M  V30 3 C 4.025174 0.194028 4.957862 0
M  V30 4 C 4.128650 -0.948101 4.008928 0
M  V30 5 S 4.193769 -0.468569 2.315824 0
M  V30 6 O 5.470020 0.305510 2.091125 0
M  V30 7 O 4.376343 -1.753689 1.527524 0
M  V30 8 N 2.872059 0.436714 1.765851 0
M  V30 9 C 1.511669 0.128536 1.680256 0
M  V30 10 C 0.980855 -1.039675 2.205908 0
M  V30 11 C -0.355643 -1.358628 2.136826 0
M  V30 12 C -1.220071 -0.484391 1.515692 0
M  V30 13 C -0.789339 0.710187 0.956184 0
M  V30 14 C -1.610826 1.705767 0.290150 0
M  V30 15 O -1.306275 2.813083 0.778478 0
M  V30 16 C -2.623530 1.674150 -0.740631 0
M  V30 17 N -3.301497 2.789366 -1.044344 0
M  V30 18 N -4.171789 2.523676 -2.019523 0
M  V30 19 C -4.107981 1.245136 -2.396848 0
M  V30 20 N -4.709083 0.451627 -3.285588 0
M  V30 21 C -4.380143 -0.851406 -3.409181 0
M  V30 22 C -3.396526 -1.451802 -2.618148 0
M  V30 23 C -3.023782 -2.858381 -2.727840 0
M  V30 24 C -2.981853 -3.451741 -1.479920 0
M  V30 25 C -2.655892 -4.802524 -1.355705 0
M  V30 26 C -2.377653 -5.524181 -2.517217 0
M  V30 27 F -2.060656 -6.837397 -2.402802 0
M  V30 28 C -2.432912 -4.890977 -3.731814 0
M  V30 29 C -2.749307 -3.572210 -3.866430 0
M  V30 30 C -2.804816 -2.866847 -5.151220 0
M  V30 31 C -2.798010 -0.608664 -1.714345 0
M  V30 32 C -3.125678 0.713392 -1.582720 0
M  V30 33 C 0.558417 0.953022 1.069340 0
M  V30 34 F 1.039099 2.114264 0.536824 0
M  V30 35 H 4.028711 2.887854 5.608198 0
M  V30 36 H 5.727443 2.776436 6.294681 0
M  V30 37 H 4.446541 1.654808 6.825381 0
M  V30 38 H 6.145341 0.727052 5.019654 0
M  V30 39 H 5.155217 1.694233 3.878078 0
M  V30 40 H 3.069535 0.775719 4.798134 0
M  V30 41 H 3.983011 -0.146771 6.026962 0
M  V30 42 H 5.074972 -1.507632 4.295949 0
M  V30 43 H 3.319981 -1.667516 4.249637 0
M  V30 44 H 3.088467 1.422380 1.418594 0
M  V30 45 H 1.567201 -1.777179 2.698866 0
M  V30 46 H -0.785604 -2.277113 2.547364 0
M  V30 47 H -2.295686 -0.680550 1.425447 0
M  V30 48 H -4.797943 3.243074 -2.404207 0
M  V30 49 H -4.909333 -1.430999 -4.143827 0
M  V30 50 H -3.175062 -2.993804 -0.528240 0
M  V30 51 H -2.606959 -5.328224 -0.399248 0
M  V30 52 H -2.215476 -5.465522 -4.611105 0
M  V30 53 H -3.795008 -2.932278 -5.594448 0
M  V30 54 H -2.511380 -1.805737 -4.999256 0
M  V30 55 H -2.040036 -3.354098 -5.812687 0
M  V30 56 H -2.034421 -1.019873 -1.097385 0
M  V30 END ATOM
M  V30 BEGIN BOND
M  V30 1 1 1 2
M  V30 2 1 2 3
M  V30 3 1 3 4
M  V30 4 1 4 5
M  V30 5 2 5 6
M  V30 6 2 5 7
M  V30 7 1 5 8
M  V30 8 1 8 9
M  V30 9 2 9 10
M  V30 10 1 10 11
M  V30 11 2 11 12
M  V30 12 1 12 13
M  V30 13 1 13 14
M  V30 14 2 14 15
M  V30 15 1 14 16
M  V30 16 2 16 17
M  V30 17 1 17 18
M  V30 18 1 18 19
M  V30 19 2 19 20
M  V30 20 1 20 21
M  V30 21 2 21 22
M  V30 22 1 22 23
M  V30 23 2 23 24
M  V30 24 1 24 25
M  V30 25 2 25 26
M  V30 26 1 26 27
M  V30 27 1 26 28
M  V30 28 2 28 29
M  V30 29 1 29 30
M  V30 30 1 22 31
M  V30 31 2 31 32
M  V30 32 2 13 33
M  V30 33 1 33 34
M  V30 34 1 33 9
M  V30 35 1 32 16
M  V30 36 1 32 19
M  V30 37 1 29 23
M  V30 38 1 1 35
M  V30 39 1 1 36
M  V30 40 1 1 37
M  V30 41 1 2 38
M  V30 42 1 2 39
M  V30 43 1 3 40
M  V30 44 1 3 41
M  V30 45 1 4 42
M  V30 46 1 4 43
M  V30 47 1 8 44
M  V30 48 1 10 45
M  V30 49 1 11 46
M  V30 50 1 12 47
M  V30 51 1 18 48
M  V30 52 1 21 49
M  V30 53 1 24 50
M  V30 54 1 25 51
M  V30 55 1 28 52
M  V30 56 1 30 53
M  V30 57 1 30 54
M  V30 58 1 30 55
M  V30 59 1 31 56
M  V30 END BOND
M  V30 END CTAB
M  END
>  <Dataset>  (349) 
ChEMBL_Kinases

>  <Ligand_Instance>  (349) 
nan

>  <PDB_ID>  (349) 
nan

>  <Standardized_SMILES>  (349) 
CCCCS(=O)(=O)Nc1cccc(C(=O)c2n[nH]c3ncc(-c4ccc(F)cc4C)cc23)c1F

>  <Name>  (349) 
nan

>  <Pocket>  (349) 
nan

>  <ATP_Site>  (349) 
nan

>  <Peripheral>  (349) 
nan

>  <Num_H_Atoms_ProtBoundConf>  (349) 
nan

>  <Num_Resolved_Atoms>  (349) 
nan

>  <Num_Not_Resolved_Atoms>  (349) 
nan

$$$$
CHEMBL4213657
     RDKit          3D

  0  0  0  0  0  0  0  0  0  0999 V3000
M  V30 BEGIN CTAB
M  V30 COUNTS 55 59 0 0 0
M  V30 BEGIN ATOM
M  V30 1 O -0.546165 -2.473469 1.769274 0
M  V30 2 C 0.059873 -2.126983 0.718914 0
M  V30 3 N 1.420566 -1.767373 0.770854 0
M  V30 4 C 2.425548 -1.318264 -0.211243 0
M  V30 5 C 3.354620 -0.291430 0.409537 0
M  V30 6 N 2.449087 0.488938 1.293174 0
M  V30 7 C 1.992187 1.722922 0.774385 0
M  V30 8 N 1.730999 1.690520 -0.570124 0
M  V30 9 C 1.233446 2.755564 -1.215148 0
M  V30 10 N 0.964151 3.907853 -0.587280 0
M  V30 11 C 1.197353 4.008522 0.727508 0
M  V30 12 N 1.058135 4.985520 1.625307 0
M  V30 13 C 1.465658 4.545270 2.828319 0
M  V30 14 C 1.876881 3.239740 2.679634 0
M  V30 15 Cl 2.502746 2.330206 4.027501 0
M  V30 16 C 1.706126 2.903448 1.359167 0
M  V30 17 C 2.271271 -0.344604 2.472144 0
M  V30 18 C 2.070714 -1.827087 2.079753 0
M  V30 19 C -1.127667 -2.304657 -0.108162 0
M  V30 20 C -2.301837 -2.529891 0.777953 0
M  V30 21 C -2.641970 -1.712858 1.824312 0
M  V30 22 C -3.709420 -1.896440 2.676619 0
M  V30 23 C -4.521885 -2.992618 2.478242 0
M  V30 24 Cl -5.889719 -3.268861 3.533408 0
M  V30 25 C -4.245751 -3.859754 1.447765 0
M  V30 26 Cl -5.300382 -5.231670 1.234417 0
M  V30 27 C -3.157994 -3.601794 0.642444 0
M  V30 28 C -1.058690 -3.331219 -1.188672 0
M  V30 29 C -0.245654 -2.874030 -2.400765 0
M  V30 30 N -0.952099 -1.836514 -3.086378 0
M  V30 31 C -1.874724 -1.159436 -2.223690 0
M  V30 32 C -1.331749 -0.963734 -0.834019 0
M  V30 33 H 3.016668 -2.203229 -0.563469 0
M  V30 34 H 1.981597 -0.865715 -1.095047 0
M  V30 35 H 3.758596 0.387429 -0.372048 0
M  V30 36 H 4.201262 -0.714706 0.953589 0
M  V30 37 H 1.036232 2.694004 -2.291026 0
M  V30 38 H 0.695086 5.930562 1.428308 0
M  V30 39 H 1.452862 5.143429 3.716021 0
M  V30 40 H 1.340447 -0.110448 3.017686 0
M  V30 41 H 3.185746 -0.334584 3.058330 0
M  V30 42 H 3.066931 -2.287448 2.013676 0
M  V30 43 H 1.425676 -2.315904 2.839721 0
M  V30 44 H -2.067534 -0.816832 2.052894 0
M  V30 45 H -3.947817 -1.231990 3.491711 0
M  V30 46 H -3.022009 -4.340486 -0.134312 0
M  V30 47 H -2.103933 -3.375588 -1.627258 0
M  V30 48 H -0.809153 -4.344895 -0.884437 0
M  V30 49 H -0.266089 -3.776291 -3.081344 0
M  V30 50 H 0.788215 -2.629595 -2.181473 0
M  V30 51 H -1.422091 -2.171722 -3.943537 0
M  V30 52 H -1.973137 -0.115395 -2.635876 0
M  V30 53 H -2.879715 -1.575616 -2.182428 0
M  V30 54 H -0.366965 -0.442607 -0.907467 0
M  V30 55 H -2.019450 -0.309127 -0.290115 0
M  V30 END ATOM
M  V30 BEGIN BOND
M  V30 1 2 1 2
M  V30 2 1 2 3
M  V30 3 1 3 4
M  V30 4 1 4 5
M  V30 5 1 5 6
M  V30 6 1 6 7
M  V30 7 2 7 8
M  V30 8 1 8 9
M  V30 9 2 9 10
M  V30 10 1 10 11
M  V30 11 1 11 12
M  V30 12 1 12 13
M  V30 13 2 13 14
M  V30 14 1 14 15
M  V30 15 1 14 16
M  V30 16 1 6 17
M  V30 17 1 17 18
M  V30 18 1 2 19
M  V30 19 1 19 20
M  V30 20 2 20 21
M  V30 21 1 21 22
M  V30 22 2 22 23
M  V30 23 1 23 24
M  V30 24 1 23 25
M  V30 25 1 25 26
M  V30 26 2 25 27
M  V30 27 1 19 28
M  V30 28 1 28 29
M  V30 29 1 29 30
M  V30 30 1 30 31
M  V30 31 1 31 32
M  V30 32 1 18 3
M  V30 33 1 32 19
M  V30 34 1 16 7
M  V30 35 1 27 20
M  V30 36 2 16 11
M  V30 37 1 4 33
M  V30 38 1 4 34
M  V30 39 1 5 35
M  V30 40 1 5 36
M  V30 41 1 9 37
M  V30 42 1 12 38
M  V30 43 1 13 39
M  V30 44 1 17 40
M  V30 45 1 17 41
M  V30 46 1 18 42
M  V30 47 1 18 43
M  V30 48 1 21 44
M  V30 49 1 22 45
M  V30 50 1 27 46
M  V30 51 1 28 47
M  V30 52 1 28 48
M  V30 53 1 29 49
M  V30 54 1 29 50
M  V30 55 1 30 51
M  V30 56 1 31 52
M  V30 57 1 31 53
M  V30 58 1 32 54
M  V30 59 1 32 55
M  V30 END BOND
M  V30 END CTAB
M  END
>  <Dataset>  (350) 
ChEMBL_Kinases

>  <Ligand_Instance>  (350) 
nan

>  <PDB_ID>  (350) 
nan

>  <Standardized_SMILES>  (350) 
O=C(N1CCN(c2ncnc3[nH]cc(Cl)c23)CC1)C1(c2ccc(Cl)c(Cl)c2)CCNCC1

>  <Name>  (350) 
nan

>  <Pocket>  (350) 
nan

>  <ATP_Site>  (350) 
nan

>  <Peripheral>  (350) 
nan

>  <Num_H_Atoms_ProtBoundConf>  (350) 
nan

>  <Num_Resolved_Atoms>  (350) 
nan

>  <Num_Not_Resolved_Atoms>  (350) 
nan

$$$$
CHEMBL4779629
     RDKit          3D

  0  0  0  0  0  0  0  0  0  0999 V3000
M  V30 BEGIN CTAB
M  V30 COUNTS 44 47 0 0 0
M  V30 BEGIN ATOM
M  V30 1 O 1.015980 -3.453141 -0.449441 0
M  V30 2 C 1.714572 -2.545856 0.096490 0
M  V30 3 N 3.099260 -2.778293 0.320626 0
M  V30 4 C 3.765608 -3.985443 -0.034173 0
M  V30 5 C 4.360246 -4.200853 -1.242822 0
M  V30 6 C 4.976407 -5.424414 -1.460427 0
M  V30 7 C 4.978600 -6.382719 -0.474405 0
M  V30 8 Br 5.834589 -8.052376 -0.807864 0
M  V30 9 C 4.371459 -6.171185 0.768346 0
M  V30 10 C 3.763917 -4.953283 0.971049 0
M  V30 11 N 1.156359 -1.289925 0.497160 0
M  V30 12 C -0.225158 -0.950930 0.318787 0
M  V30 13 C -0.303780 0.182195 -0.648324 0
M  V30 14 C -1.393889 1.173876 -0.326582 0
M  V30 15 N -1.307123 1.632332 1.055532 0
M  V30 16 C -1.599759 2.917127 1.595559 0
M  V30 17 N -0.621855 3.621690 2.238091 0
M  V30 18 C -0.819677 4.834928 2.772194 0
M  V30 19 N -2.041359 5.425782 2.690024 0
M  V30 20 C -3.069934 4.786446 2.063999 0
M  V30 21 N -4.358442 5.079435 1.815565 0
M  V30 22 N -4.932231 4.083389 1.153156 0
M  V30 23 C -3.997670 3.131008 0.970946 0
M  V30 24 C -2.808271 3.543598 1.534821 0
M  V30 25 C -0.870616 0.723687 2.097389 0
M  V30 26 C -0.985997 -0.701880 1.582780 0
M  V30 27 H 3.746298 -2.074395 0.768443 0
M  V30 28 H 4.337713 -3.432129 -1.983858 0
M  V30 29 H 5.465477 -5.644682 -2.409888 0
M  V30 30 H 4.362971 -6.917500 1.560748 0
M  V30 31 H 3.293906 -4.800358 1.944325 0
M  V30 32 H 1.798245 -0.595265 0.940094 0
M  V30 33 H -0.696879 -1.834216 -0.164433 0
M  V30 34 H -0.466132 -0.183353 -1.672312 0
M  V30 35 H 0.660780 0.735595 -0.672080 0
M  V30 36 H -1.279434 2.016334 -1.040489 0
M  V30 37 H -2.406699 0.753865 -0.490066 0
M  V30 38 H 0.027317 5.321610 3.268191 0
M  V30 39 H -4.770922 5.999789 2.140947 0
M  V30 40 H -4.154142 2.184036 0.459536 0
M  V30 41 H 0.138895 1.025871 2.375029 0
M  V30 42 H -1.526359 0.795864 2.984791 0
M  V30 43 H -2.073876 -0.836374 1.389205 0
M  V30 44 H -0.760509 -1.430708 2.380930 0
M  V30 END ATOM
M  V30 BEGIN BOND
M  V30 1 2 1 2
M  V30 2 1 2 3
M  V30 3 1 3 4
M  V30 4 2 4 5
M  V30 5 1 5 6
M  V30 6 2 6 7
M  V30 7 1 7 8
M  V30 8 1 7 9
M  V30 9 2 9 10
M  V30 10 1 2 11
M  V30 11 1 11 12
M  V30 12 1 12 13
M  V30 13 1 13 14
M  V30 14 1 14 15
M  V30 15 1 15 16
M  V30 16 2 16 17
M  V30 17 1 17 18
M  V30 18 2 18 19
M  V30 19 1 19 20
M  V30 20 1 20 21
M  V30 21 1 21 22
M  V30 22 2 22 23
M  V30 23 1 23 24
M  V30 24 1 15 25
M  V30 25 1 25 26
M  V30 26 1 10 4
M  V30 27 1 26 12
M  V30 28 1 24 16
M  V30 29 2 24 20
M  V30 30 1 3 27
M  V30 31 1 5 28
M  V30 32 1 6 29
M  V30 33 1 9 30
M  V30 34 1 10 31
M  V30 35 1 11 32
M  V30 36 1 12 33
M  V30 37 1 13 34
M  V30 38 1 13 35
M  V30 39 1 14 36
M  V30 40 1 14 37
M  V30 41 1 18 38
M  V30 42 1 21 39
M  V30 43 1 23 40
M  V30 44 1 25 41
M  V30 45 1 25 42
M  V30 46 1 26 43
M  V30 47 1 26 44
M  V30 END BOND
M  V30 END CTAB
M  END
>  <Dataset>  (351) 
ChEMBL_Kinases

>  <Ligand_Instance>  (351) 
nan

>  <PDB_ID>  (351) 
nan

>  <Standardized_SMILES>  (351) 
O=C(Nc1ccc(Br)cc1)NC1CCN(c2ncnc3[nH]ncc23)CC1

>  <Name>  (351) 
nan

>  <Pocket>  (351) 
nan

>  <ATP_Site>  (351) 
nan

>  <Peripheral>  (351) 
nan

>  <Num_H_Atoms_ProtBoundConf>  (351) 
nan

>  <Num_Resolved_Atoms>  (351) 
nan

>  <Num_Not_Resolved_Atoms>  (351) 
nan

$$$$
CHEMBL4213540
     RDKit          3D

  0  0  0  0  0  0  0  0  0  0999 V3000
M  V30 BEGIN CTAB
M  V30 COUNTS 57 60 0 0 0
M  V30 BEGIN ATOM
M  V30 1 C 1.737261 1.188867 3.745460 0
M  V30 2 C 1.741509 0.589784 2.348511 0
M  V30 3 N 2.791961 -0.348738 2.144239 0
M  V30 4 C 2.658827 -1.555179 2.891753 0
M  V30 5 C 3.834661 -2.460727 2.672540 0
M  V30 6 C 3.446478 -0.367360 0.919301 0 CFG=2
M  V30 7 C 4.188389 0.920960 0.657665 0
M  V30 8 C 2.686699 -0.891040 -0.257202 0
M  V30 9 N 1.489498 -0.240770 -0.628517 0
M  V30 10 C 1.134272 1.053121 -1.065550 0
M  V30 11 O 2.075515 1.865619 -1.171218 0
M  V30 12 C -0.209126 1.493671 -1.392055 0
M  V30 13 C -0.327474 2.811376 -1.829705 0
M  V30 14 C -1.566260 3.361521 -2.175614 0
M  V30 15 N -2.640756 2.568899 -2.069485 0
M  V30 16 C -2.539088 1.292141 -1.647187 0
M  V30 17 C -3.798259 0.561701 -1.588238 0
M  V30 18 C -5.052172 1.025753 -1.920928 0
M  V30 19 N -5.939325 0.034433 -1.722424 0
M  V30 20 N -5.313769 -1.055102 -1.274410 0
M  V30 21 C -5.869332 -2.237607 -0.964984 0
M  V30 22 C -5.007621 -3.242876 -0.509593 0
M  V30 23 C -3.664823 -2.942820 -0.414940 0
M  V30 24 C -2.760740 -3.990582 0.062393 0
M  V30 25 C -1.418262 -3.956802 0.252925 0
M  V30 26 C -0.786263 -5.078259 0.715559 0
M  V30 27 C -1.626159 -6.221546 0.964524 0
M  V30 28 S -3.335401 -5.574311 0.495574 0
M  V30 29 N -3.187996 -1.725226 -0.747572 0
M  V30 30 C -4.015482 -0.741629 -1.190903 0
M  V30 31 C -1.349741 0.734722 -1.305672 0
M  V30 32 H 0.704154 1.627404 3.861969 0
M  V30 33 H 2.428804 2.043867 3.826852 0
M  V30 34 H 1.810118 0.443188 4.549152 0
M  V30 35 H 1.856576 1.449648 1.679569 0
M  V30 36 H 0.770848 0.065951 2.221490 0
M  V30 37 H 1.773929 -2.106395 2.453878 0
M  V30 38 H 2.409389 -1.412933 3.947694 0
M  V30 39 H 3.868579 -3.275188 3.453960 0
M  V30 40 H 4.822354 -1.934596 2.751967 0
M  V30 41 H 3.810168 -2.931336 1.668821 0
M  V30 42 H 4.299758 -1.122661 1.026264 0
M  V30 43 H 5.172818 0.925033 1.232811 0
M  V30 44 H 4.529425 0.989395 -0.398188 0
M  V30 45 H 3.666527 1.803681 1.038438 0
M  V30 46 H 3.399494 -0.752582 -1.136511 0
M  V30 47 H 2.606470 -1.982744 -0.166056 0
M  V30 48 H 0.625912 -0.867314 -0.570208 0
M  V30 49 H 0.515393 3.502737 -1.935489 0
M  V30 50 H -1.641009 4.387453 -2.513721 0
M  V30 51 H -5.297395 2.030433 -2.286319 0
M  V30 52 H -6.914231 -2.427537 -1.053152 0
M  V30 53 H -5.457616 -4.178457 -0.266122 0
M  V30 54 H -0.887219 -3.044028 0.033607 0
M  V30 55 H 0.275364 -5.149827 0.898544 0
M  V30 56 H -1.193064 -7.194884 1.348964 0
M  V30 57 H -1.270553 -0.274051 -0.971372 0
M  V30 END ATOM
M  V30 BEGIN BOND
M  V30 1 1 1 2
M  V30 2 1 2 3
M  V30 3 1 3 4
M  V30 4 1 4 5
M  V30 5 1 3 6
M  V30 6 1 6 7
M  V30 7 1 6 8
M  V30 8 1 8 9
M  V30 9 1 9 10
M  V30 10 2 10 11
M  V30 11 1 10 12
M  V30 12 2 12 13
M  V30 13 1 13 14
M  V30 14 2 14 15
M  V30 15 1 15 16
M  V30 16 1 16 17
M  V30 17 1 17 18
M  V30 18 2 18 19
M  V30 19 1 19 20
M  V30 20 1 20 21
M  V30 21 2 21 22
M  V30 22 1 22 23
M  V30 23 1 23 24
M  V30 24 2 24 25
M  V30 25 1 25 26
M  V30 26 2 26 27
M  V30 27 1 27 28
M  V30 28 2 23 29
M  V30 29 1 29 30
M  V30 30 2 16 31
M  V30 31 1 31 12
M  V30 32 2 30 17
M  V30 33 1 30 20
M  V30 34 1 28 24
M  V30 35 1 1 32
M  V30 36 1 1 33
M  V30 37 1 1 34
M  V30 38 1 2 35
M  V30 39 1 2 36
M  V30 40 1 4 37
M  V30 41 1 4 38
M  V30 42 1 5 39
M  V30 43 1 5 40
M  V30 44 1 5 41
M  V30 45 1 6 42 CFG=1
M  V30 46 1 7 43
M  V30 47 1 7 44
M  V30 48 1 7 45
M  V30 49 1 8 46
M  V30 50 1 8 47
M  V30 51 1 9 48
M  V30 52 1 13 49
M  V30 53 1 14 50
M  V30 54 1 18 51
M  V30 55 1 21 52
M  V30 56 1 22 53
M  V30 57 1 25 54
M  V30 58 1 26 55
M  V30 59 1 27 56
M  V30 60 1 31 57
M  V30 END BOND
M  V30 END CTAB
M  END
>  <Dataset>  (352) 
ChEMBL_Kinases

>  <Ligand_Instance>  (352) 
nan

>  <PDB_ID>  (352) 
nan

>  <Standardized_SMILES>  (352) 
CCN(CC)[C@H](C)CNC(=O)c1ccnc(-c2cnn3ccc(-c4cccs4)nc23)c1

>  <Name>  (352) 
nan

>  <Pocket>  (352) 
nan

>  <ATP_Site>  (352) 
nan

>  <Peripheral>  (352) 
nan

>  <Num_H_Atoms_ProtBoundConf>  (352) 
nan

>  <Num_Resolved_Atoms>  (352) 
nan

>  <Num_Not_Resolved_Atoms>  (352) 
nan

$$$$
CHEMBL4213496
     RDKit          3D

  0  0  0  0  0  0  0  0  0  0999 V3000
M  V30 BEGIN CTAB
M  V30 COUNTS 38 40 0 0 0
M  V30 BEGIN ATOM
M  V30 1 C 2.237683 -0.732343 4.884040 0
M  V30 2 C 2.116665 -1.982317 4.089415 0
M  V30 3 N 2.545769 -3.170394 4.564945 0
M  V30 4 N 2.322061 -4.107853 3.669518 0
M  V30 5 C 1.735846 -3.493962 2.600113 0
M  V30 6 C 1.330998 -4.226189 1.380698 0
M  V30 7 C 1.589682 -2.156327 2.826099 0
M  V30 8 C 1.036033 -1.164117 1.985585 0
M  V30 9 C 0.480690 -1.102980 0.759762 0
M  V30 10 C 0.036847 0.084110 0.247122 0
M  V30 11 C 0.183850 1.216179 1.042549 0
M  V30 12 S 0.978973 0.544593 2.558012 0
M  V30 13 C -0.236216 2.574543 0.652162 0
M  V30 14 O -0.025469 3.479051 1.498207 0
M  V30 15 N -0.824483 2.736309 -0.608112 0
M  V30 16 C -1.224178 1.564478 -1.292923 0
M  V30 17 C -2.721959 1.357878 -1.031211 0
M  V30 18 C -1.141962 1.910326 -2.788517 0
M  V30 19 N -0.568797 0.345349 -1.007232 0
M  V30 20 C -0.537523 -0.656832 -2.073920 0
M  V30 21 H 2.983479 -0.066450 4.421188 0
M  V30 22 H 2.533738 -0.928158 5.930358 0
M  V30 23 H 1.233592 -0.232399 4.969247 0
M  V30 24 H 2.558587 -5.117352 3.784165 0
M  V30 25 H 0.230186 -4.229130 1.205192 0
M  V30 26 H 1.914853 -3.904005 0.477316 0
M  V30 27 H 1.575027 -5.328355 1.469406 0
M  V30 28 H 0.430695 -2.055281 0.255265 0
M  V30 29 H -0.936150 3.697597 -0.973801 0
M  V30 30 H -2.879594 0.717147 -0.141409 0
M  V30 31 H -3.202907 2.355842 -0.928891 0
M  V30 32 H -3.169251 0.882558 -1.952322 0
M  V30 33 H -1.395589 1.073245 -3.436569 0
M  V30 34 H -0.139868 2.347013 -2.975515 0
M  V30 35 H -1.871847 2.728251 -2.961873 0
M  V30 36 H -1.570715 -0.734997 -2.508570 0
M  V30 37 H -0.282190 -1.660967 -1.624476 0
M  V30 38 H 0.148164 -0.385196 -2.882844 0
M  V30 END ATOM
M  V30 BEGIN BOND
M  V30 1 1 1 2
M  V30 2 2 2 3
M  V30 3 1 3 4
M  V30 4 1 4 5
M  V30 5 1 5 6
M  V30 6 2 5 7
M  V30 7 1 7 8
M  V30 8 2 8 9
M  V30 9 1 9 10
M  V30 10 2 10 11
M  V30 11 1 11 12
M  V30 12 1 11 13
M  V30 13 2 13 14
M  V30 14 1 13 15
M  V30 15 1 15 16
M  V30 16 1 16 17
M  V30 17 1 16 18
M  V30 18 1 16 19
M  V30 19 1 19 20
M  V30 20 1 7 2
M  V30 21 1 12 8
M  V30 22 1 19 10
M  V30 23 1 1 21
M  V30 24 1 1 22
M  V30 25 1 1 23
M  V30 26 1 4 24
M  V30 27 1 6 25
M  V30 28 1 6 26
M  V30 29 1 6 27
M  V30 30 1 9 28
M  V30 31 1 15 29
M  V30 32 1 17 30
M  V30 33 1 17 31
M  V30 34 1 17 32
M  V30 35 1 18 33
M  V30 36 1 18 34
M  V30 37 1 18 35
M  V30 38 1 20 36
M  V30 39 1 20 37
M  V30 40 1 20 38
M  V30 END BOND
M  V30 END CTAB
M  END
>  <Dataset>  (353) 
ChEMBL_Kinases

>  <Ligand_Instance>  (353) 
nan

>  <PDB_ID>  (353) 
nan

>  <Standardized_SMILES>  (353) 
Cc1n[nH]c(C)c1-c1cc2c(s1)C(=O)NC(C)(C)N2C

>  <Name>  (353) 
nan

>  <Pocket>  (353) 
nan

>  <ATP_Site>  (353) 
nan

>  <Peripheral>  (353) 
nan

>  <Num_H_Atoms_ProtBoundConf>  (353) 
nan

>  <Num_Resolved_Atoms>  (353) 
nan

>  <Num_Not_Resolved_Atoms>  (353) 
nan

$$$$
CHEMBL4213466
     RDKit          3D

  0  0  0  0  0  0  0  0  0  0999 V3000
M  V30 BEGIN CTAB
M  V30 COUNTS 61 65 0 0 0
M  V30 BEGIN ATOM
M  V30 1 O 0.357096 -6.683784 1.449160 0
M  V30 2 C 0.820720 -5.516284 1.280965 0
M  V30 3 C 1.044305 -4.536064 2.371128 0
M  V30 4 N 1.575748 -3.285519 1.857670 0
M  V30 5 C 2.937232 -2.837336 1.629780 0
M  V30 6 C 2.737608 -1.484217 1.052295 0
M  V30 7 C 3.711282 -0.584301 0.616969 0
M  V30 8 C 3.362139 0.649439 0.109842 0
M  V30 9 C 2.047377 1.051758 0.008685 0
M  V30 10 C 1.556756 2.324106 -0.511227 0
M  V30 11 N 0.608647 2.907843 0.266009 0
M  V30 12 C 0.039397 4.081472 -0.056115 0
M  V30 13 N -0.957308 4.679641 0.787121 0
M  V30 14 C -1.379099 4.055003 2.004562 0
M  V30 15 C -2.441376 4.861655 2.741158 0
M  V30 16 C -2.994678 3.930944 3.811548 0
M  V30 17 O -3.890677 3.086157 3.168502 0
M  V30 18 C -3.381046 2.520837 2.021347 0
M  V30 19 C -1.900676 2.662825 1.864415 0
M  V30 20 N 0.441346 4.663636 -1.180853 0
M  V30 21 C 1.371371 4.171626 -2.020598 0
M  V30 22 C 1.956824 2.948218 -1.673622 0
M  V30 23 Cl 3.181506 2.132256 -2.618063 0
M  V30 24 C 1.078750 0.140107 0.448364 0
M  V30 25 C 1.425784 -1.081828 0.950104 0
M  V30 26 C 0.680506 -2.225123 1.462276 0
M  V30 27 O -0.596875 -2.223317 1.525479 0
M  V30 28 N 1.125421 -5.198041 -0.077865 0
M  V30 29 C 0.966009 -6.041312 -1.244484 0
M  V30 30 C -0.432741 -6.142283 -1.703234 0
M  V30 31 C -0.832508 -5.184428 -2.623401 0
M  V30 32 C -2.103939 -5.083516 -3.197608 0
M  V30 33 C -2.998540 -6.058407 -2.765940 0
M  V30 34 C -2.633818 -7.025920 -1.851338 0
M  V30 35 C -1.364806 -7.062002 -1.330169 0
M  V30 36 H 1.808511 -4.939516 3.080835 0
M  V30 37 H 0.120266 -4.356756 2.925046 0
M  V30 38 H 3.418645 -2.689331 2.619299 0
M  V30 39 H 3.524720 -3.519027 0.981518 0
M  V30 40 H 4.755167 -0.848674 0.674032 0
M  V30 41 H 4.074066 1.381255 -0.239311 0
M  V30 42 H -1.369504 5.588872 0.485867 0
M  V30 43 H -0.481303 4.070454 2.690413 0
M  V30 44 H -3.232961 5.196239 2.036506 0
M  V30 45 H -2.014402 5.740090 3.251686 0
M  V30 46 H -3.482927 4.443674 4.638530 0
M  V30 47 H -2.166826 3.276799 4.165351 0
M  V30 48 H -3.568526 1.410330 2.107542 0
M  V30 49 H -3.887275 2.898453 1.118130 0
M  V30 50 H -1.660870 2.317060 0.828617 0
M  V30 51 H -1.324486 1.985456 2.539631 0
M  V30 52 H 1.710592 4.630911 -2.938934 0
M  V30 53 H 0.025664 0.378532 0.403248 0
M  V30 54 H 1.512309 -4.219300 -0.213875 0
M  V30 55 H 1.596890 -5.647941 -2.059065 0
M  V30 56 H 1.368980 -7.061363 -1.015846 0
M  V30 57 H -0.136424 -4.412202 -2.970040 0
M  V30 58 H -2.334173 -4.304581 -3.909040 0
M  V30 59 H -4.000212 -6.033587 -3.174169 0
M  V30 60 H -3.349466 -7.755472 -1.546353 0
M  V30 61 H -1.052011 -7.804834 -0.617049 0
M  V30 END ATOM
M  V30 BEGIN BOND
M  V30 1 2 1 2
M  V30 2 1 2 3
M  V30 3 1 3 4
M  V30 4 1 4 5
M  V30 5 1 5 6
M  V30 6 2 6 7
M  V30 7 1 7 8
M  V30 8 2 8 9
M  V30 9 1 9 10
M  V30 10 2 10 11
M  V30 11 1 11 12
M  V30 12 1 12 13
M  V30 13 1 13 14
M  V30 14 1 14 15
M  V30 15 1 15 16
M  V30 16 1 16 17
M  V30 17 1 17 18
M  V30 18 1 18 19
M  V30 19 2 12 20
M  V30 20 1 20 21
M  V30 21 2 21 22
M  V30 22 1 22 23
M  V30 23 1 9 24
M  V30 24 2 24 25
M  V30 25 1 25 26
M  V30 26 2 26 27
M  V30 27 1 2 28
M  V30 28 1 28 29
M  V30 29 1 29 30
M  V30 30 2 30 31
M  V30 31 1 31 32
M  V30 32 2 32 33
M  V30 33 1 33 34
M  V30 34 2 34 35
M  V30 35 1 26 4
M  V30 36 1 35 30
M  V30 37 1 25 6
M  V30 38 1 22 10
M  V30 39 1 19 14
M  V30 40 1 3 36
M  V30 41 1 3 37
M  V30 42 1 5 38
M  V30 43 1 5 39
M  V30 44 1 7 40
M  V30 45 1 8 41
M  V30 46 1 13 42
M  V30 47 1 14 43
M  V30 48 1 15 44
M  V30 49 1 15 45
M  V30 50 1 16 46
M  V30 51 1 16 47
M  V30 52 1 18 48
M  V30 53 1 18 49
M  V30 54 1 19 50
M  V30 55 1 19 51
M  V30 56 1 21 52
M  V30 57 1 24 53
M  V30 58 1 28 54
M  V30 59 1 29 55
M  V30 60 1 29 56
M  V30 61 1 31 57
M  V30 62 1 32 58
M  V30 63 1 33 59
M  V30 64 1 34 60
M  V30 65 1 35 61
M  V30 END BOND
M  V30 END CTAB
M  END
>  <Dataset>  (354) 
ChEMBL_Kinases

>  <Ligand_Instance>  (354) 
nan

>  <PDB_ID>  (354) 
nan

>  <Standardized_SMILES>  (354) 
O=C(CN1Cc2ccc(-c3nc(NC4CCOCC4)ncc3Cl)cc2C1=O)NCc1ccccc1

>  <Name>  (354) 
nan

>  <Pocket>  (354) 
nan

>  <ATP_Site>  (354) 
nan

>  <Peripheral>  (354) 
nan

>  <Num_H_Atoms_ProtBoundConf>  (354) 
nan

>  <Num_Resolved_Atoms>  (354) 
nan

>  <Num_Not_Resolved_Atoms>  (354) 
nan

$$$$
CHEMBL4213444
     RDKit          3D

  0  0  0  0  0  0  0  0  0  0999 V3000
M  V30 BEGIN CTAB
M  V30 COUNTS 91 97 0 0 0
M  V30 BEGIN ATOM
M  V30 1 C 0.700414 0.517086 -0.446693 0
M  V30 2 S -1.084623 0.429736 -0.414044 0
M  V30 3 C -1.793959 1.435291 -1.751052 0 CFG=2
M  V30 4 C -1.517802 2.886462 -1.524327 0
M  V30 5 O -2.504348 3.686534 -1.355096 0
M  V30 6 N -0.252661 3.523842 -1.468612 0
M  V30 7 C -0.337052 4.939073 -1.224234 0
M  V30 8 C -0.493512 5.974959 -2.089768 0
M  V30 9 C -0.519531 7.263151 -1.585684 0
M  V30 10 C -0.391711 7.516986 -0.238340 0
M  V30 11 N -0.385476 8.662652 0.470474 0
M  V30 12 N -0.226545 8.345849 1.760658 0
M  V30 13 C -0.130861 7.019610 1.893799 0
M  V30 14 C 0.052272 6.325209 3.163563 0
M  V30 15 C 0.977994 5.313708 3.324375 0
M  V30 16 C 1.131932 4.660776 4.553129 0
M  V30 17 C 0.359360 5.012858 5.639249 0
M  V30 18 O 0.574846 4.323210 6.796275 0
M  V30 19 C -0.110343 4.524771 8.024116 0
M  V30 20 C -0.929356 3.277151 8.373907 0
M  V30 21 C 0.851786 4.767317 9.134444 0
M  V30 22 N -0.553966 6.011389 5.480716 0
M  V30 23 C -0.699737 6.637094 4.298694 0
M  V30 24 C -0.233148 6.462016 0.634849 0
M  V30 25 C -0.203694 5.155229 0.156283 0
M  V30 26 C -3.271744 1.273835 -1.853916 0
M  V30 27 C -3.516076 1.031998 -3.325268 0
M  V30 28 N -2.347334 0.385246 -3.782073 0
M  V30 29 C -2.467221 -0.990109 -4.003502 0
M  V30 30 C -2.675651 -1.830721 -2.819263 0
M  V30 31 O -2.837112 -2.128295 -1.616194 0
M  V30 32 N -2.794679 -3.258661 -2.887615 0
M  V30 33 C -2.999871 -4.127694 -1.778128 0
M  V30 34 C -1.718565 -4.864516 -1.565294 0
M  V30 35 C -1.268505 -5.473257 -2.664301 0
M  V30 36 C -0.037508 -6.201641 -2.532729 0
M  V30 37 C 0.692401 -6.300337 -1.382796 0
M  V30 38 C 1.870871 -6.998463 -1.250330 0
M  V30 39 C 2.392153 -7.665557 -2.338854 0
M  V30 40 C 3.633858 -8.406655 -2.221315 0
M  V30 41 N 3.713049 -9.266210 -1.166465 0
M  V30 42 C 4.904028 -9.886504 -1.169313 0
M  V30 43 N 5.563509 -9.398202 -2.243271 0
M  V30 44 C 6.898063 -9.813581 -2.607983 0
M  V30 45 N 4.801577 -8.518510 -2.864312 0
M  V30 46 C 1.702356 -7.605053 -3.530131 0
M  V30 47 C 0.526719 -6.886043 -3.589570 0
M  V30 48 C -2.031884 -5.377008 -3.922497 0
M  V30 49 C -2.700096 -4.033257 -4.138032 0
M  V30 50 C -1.268399 0.905929 -3.041639 0
M  V30 51 H 1.094559 0.559734 -1.473547 0
M  V30 52 H 1.083201 1.374425 0.180166 0
M  V30 53 H 1.180298 -0.377669 0.051331 0
M  V30 54 H 0.569806 2.891687 -1.611139 0
M  V30 55 H -0.583244 5.651937 -3.116099 0
M  V30 56 H -0.645451 8.043707 -2.314144 0
M  V30 57 H -0.484183 9.636147 0.108002 0
M  V30 58 H 1.611518 4.995585 2.515170 0
M  V30 59 H 1.880058 3.873090 4.609574 0
M  V30 60 H -0.817059 5.368021 7.958920 0
M  V30 61 H -0.954784 3.129023 9.472901 0
M  V30 62 H -1.965300 3.420859 7.996947 0
M  V30 63 H -0.482124 2.389947 7.870161 0
M  V30 64 H 1.878652 5.048169 8.816999 0
M  V30 65 H 0.472055 5.594393 9.790549 0
M  V30 66 H 0.971239 3.864245 9.793824 0
M  V30 67 H -1.419999 7.442301 4.122595 0
M  V30 68 H -0.076431 4.409581 0.939005 0
M  V30 69 H -3.705089 0.424760 -1.300662 0
M  V30 70 H -3.813186 2.225656 -1.570813 0
M  V30 71 H -3.763142 1.973814 -3.863149 0
M  V30 72 H -4.390911 0.353972 -3.443713 0
M  V30 73 H -1.527449 -1.336127 -4.533647 0
M  V30 74 H -3.259809 -1.147604 -4.778050 0
M  V30 75 H -3.738717 -4.927432 -2.079371 0
M  V30 76 H -3.378813 -3.702136 -0.853336 0
M  V30 77 H -1.300615 -4.828909 -0.575358 0
M  V30 78 H 0.389909 -5.824506 -0.466867 0
M  V30 79 H 2.437508 -7.061393 -0.313917 0
M  V30 80 H 5.223487 -10.613913 -0.446100 0
M  V30 81 H 6.975527 -9.756254 -3.718768 0
M  V30 82 H 7.646695 -9.176833 -2.117009 0
M  V30 83 H 7.021688 -10.876161 -2.338309 0
M  V30 84 H 2.133198 -8.134354 -4.359051 0
M  V30 85 H 0.079395 -6.914045 -4.570417 0
M  V30 86 H -2.867342 -6.134964 -3.814489 0
M  V30 87 H -1.441076 -5.604413 -4.814064 0
M  V30 88 H -3.736949 -4.184691 -4.522054 0
M  V30 89 H -2.113978 -3.493964 -4.908073 0
M  V30 90 H -0.848238 1.790494 -3.589651 0
M  V30 91 H -0.409409 0.214629 -2.914687 0
M  V30 END ATOM
M  V30 BEGIN BOND
M  V30 1 1 1 2
M  V30 2 1 3 2 CFG=1
M  V30 3 1 3 4
M  V30 4 2 4 5
M  V30 5 1 4 6
M  V30 6 1 6 7
M  V30 7 2 7 8
M  V30 8 1 8 9
M  V30 9 2 9 10
M  V30 10 1 10 11
M  V30 11 1 11 12
M  V30 12 2 12 13
M  V30 13 1 13 14
M  V30 14 2 14 15
M  V30 15 1 15 16
M  V30 16 2 16 17
M  V30 17 1 17 18
M  V30 18 1 18 19
M  V30 19 1 19 20
M  V30 20 1 19 21
M  V30 21 1 17 22
M  V30 22 2 22 23
M  V30 23 1 13 24
M  V30 24 2 24 25
M  V30 25 1 3 26
M  V30 26 1 26 27
M  V30 27 1 27 28
M  V30 28 1 28 29
M  V30 29 1 29 30
M  V30 30 2 30 31
M  V30 31 1 30 32
M  V30 32 1 32 33
M  V30 33 1 33 34
M  V30 34 2 34 35
M  V30 35 1 35 36
M  V30 36 2 36 37
M  V30 37 1 37 38
M  V30 38 2 38 39
M  V30 39 1 39 40
M  V30 40 1 40 41
M  V30 41 2 41 42
M  V30 42 1 42 43
M  V30 43 1 43 44
M  V30 44 1 43 45
M  V30 45 1 39 46
M  V30 46 2 46 47
M  V30 47 1 35 48
M  V30 48 1 48 49
M  V30 49 1 28 50
M  V30 50 1 50 3
M  V30 51 1 25 7
M  V30 52 1 49 32
M  V30 53 1 24 10
M  V30 54 1 47 36
M  V30 55 1 23 14
M  V30 56 2 45 40
M  V30 57 1 1 51
M  V30 58 1 1 52
M  V30 59 1 1 53
M  V30 60 1 6 54
M  V30 61 1 8 55
M  V30 62 1 9 56
M  V30 63 1 11 57
M  V30 64 1 15 58
M  V30 65 1 16 59
M  V30 66 1 19 60
M  V30 67 1 20 61
M  V30 68 1 20 62
M  V30 69 1 20 63
M  V30 70 1 21 64
M  V30 71 1 21 65
M  V30 72 1 21 66
M  V30 73 1 23 67
M  V30 74 1 25 68
M  V30 75 1 26 69
M  V30 76 1 26 70
M  V30 77 1 27 71
M  V30 78 1 27 72
M  V30 79 1 29 73
M  V30 80 1 29 74
M  V30 81 1 33 75
M  V30 82 1 33 76
M  V30 83 1 34 77
M  V30 84 1 37 78
M  V30 85 1 38 79
M  V30 86 1 42 80
M  V30 87 1 44 81
M  V30 88 1 44 82
M  V30 89 1 44 83
M  V30 90 1 46 84
M  V30 91 1 47 85
M  V30 92 1 48 86
M  V30 93 1 48 87
M  V30 94 1 49 88
M  V30 95 1 49 89
M  V30 96 1 50 90
M  V30 97 1 50 91
M  V30 END BOND
M  V30 END CTAB
M  END
>  <Dataset>  (355) 
ChEMBL_Kinases

>  <Ligand_Instance>  (355) 
nan

>  <PDB_ID>  (355) 
nan

>  <Standardized_SMILES>  (355) 
CS[C@]1(C(=O)Nc2ccc3[nH]nc(-c4ccc(OC(C)C)nc4)c3c2)CCN(CC(=O)N2CC=C(c3ccc(-c4ncn(C)n4)cc3)CC2)C1

>  <Name>  (355) 
nan

>  <Pocket>  (355) 
nan

>  <ATP_Site>  (355) 
nan

>  <Peripheral>  (355) 
nan

>  <Num_H_Atoms_ProtBoundConf>  (355) 
nan

>  <Num_Resolved_Atoms>  (355) 
nan

>  <Num_Not_Resolved_Atoms>  (355) 
nan

$$$$
CHEMBL4213305
     RDKit          3D

  0  0  0  0  0  0  0  0  0  0999 V3000
M  V30 BEGIN CTAB
M  V30 COUNTS 58 62 0 0 0
M  V30 BEGIN ATOM
M  V30 1 C 5.569341 -3.760973 2.157317 0
M  V30 2 C 4.354213 -2.903079 2.347435 0
M  V30 3 N 4.018186 -2.072326 1.233113 0
M  V30 4 C 5.020414 -1.068866 1.075616 0
M  V30 5 C 4.946447 -0.114735 2.250425 0
M  V30 6 C 3.693452 -2.820957 0.062331 0
M  V30 7 C 3.336786 -1.941575 -1.120705 0
M  V30 8 N 2.189955 -1.114514 -0.797722 0
M  V30 9 C 1.642268 -0.194937 -1.720391 0
M  V30 10 O 2.236222 -0.155756 -2.851174 0
M  V30 11 C 0.492075 0.649672 -1.421423 0
M  V30 12 C -0.201403 0.647308 -0.229261 0
M  V30 13 C -1.285837 1.472634 0.008481 0
M  V30 14 C -1.925407 1.366482 1.319167 0
M  V30 15 C -1.700338 1.994668 2.529075 0
M  V30 16 N -2.595662 1.513063 3.439218 0
M  V30 17 N -3.367481 0.606297 2.827810 0
M  V30 18 C -4.390530 -0.118893 3.365298 0
M  V30 19 C -5.049902 -1.005012 2.520149 0
M  V30 20 C -4.654415 -1.114275 1.203052 0
M  V30 21 C -5.305635 -2.016391 0.279769 0
M  V30 22 C -6.327404 -2.840712 0.517379 0
M  V30 23 C -6.853627 -3.648186 -0.455688 0
M  V30 24 C -6.192807 -3.510979 -1.740241 0
M  V30 25 S -4.879877 -2.243746 -1.451744 0
M  V30 26 N -3.638576 -0.374522 0.725775 0
M  V30 27 C -2.986461 0.488963 1.526252 0
M  V30 28 C -1.647853 2.305089 -1.004836 0
M  V30 29 N -2.670329 3.207696 -1.025173 0
M  V30 30 C -2.679735 3.828099 -2.226576 0
M  V30 31 C -1.628759 3.275405 -2.941325 0
M  V30 32 N -0.997602 2.337773 -2.182464 0
M  V30 33 C 0.065275 1.524468 -2.406606 0
M  V30 34 H 6.523446 -3.173436 2.207485 0
M  V30 35 H 5.613021 -4.428162 3.067284 0
M  V30 36 H 5.540069 -4.437402 1.305351 0
M  V30 37 H 4.512054 -2.313243 3.274764 0
M  V30 38 H 3.519155 -3.600583 2.601184 0
M  V30 39 H 6.037770 -1.534799 1.082795 0
M  V30 40 H 4.935082 -0.501647 0.150402 0
M  V30 41 H 5.478762 -0.505731 3.140968 0
M  V30 42 H 5.451334 0.850456 1.988811 0
M  V30 43 H 3.897534 0.157071 2.500320 0
M  V30 44 H 2.761602 -3.396187 0.305495 0
M  V30 45 H 4.456624 -3.561380 -0.177111 0
M  V30 46 H 4.168512 -1.362844 -1.516133 0
M  V30 47 H 2.993637 -2.655362 -1.927197 0
M  V30 48 H 1.755422 -1.198297 0.141851 0
M  V30 49 H 0.130188 -0.033640 0.539647 0
M  V30 50 H -0.912225 2.741520 2.643334 0
M  V30 51 H -4.709288 -0.049496 4.374970 0
M  V30 52 H -5.878753 -1.632000 2.842537 0
M  V30 53 H -6.789493 -2.901540 1.516441 0
M  V30 54 H -7.668829 -4.350139 -0.393425 0
M  V30 55 H -6.499125 -4.103349 -2.659016 0
M  V30 56 H -3.330544 4.584359 -2.598287 0
M  V30 57 H -1.370282 3.569832 -3.961290 0
M  V30 58 H 0.543939 1.600961 -3.376247 0
M  V30 END ATOM
M  V30 BEGIN BOND
M  V30 1 1 1 2
M  V30 2 1 2 3
M  V30 3 1 3 4
M  V30 4 1 4 5
M  V30 5 1 3 6
M  V30 6 1 6 7
M  V30 7 1 7 8
M  V30 8 1 8 9
M  V30 9 2 9 10
M  V30 10 1 9 11
M  V30 11 1 11 12
M  V30 12 2 12 13
M  V30 13 1 13 14
M  V30 14 1 14 15
M  V30 15 2 15 16
M  V30 16 1 16 17
M  V30 17 1 17 18
M  V30 18 2 18 19
M  V30 19 1 19 20
M  V30 20 1 20 21
M  V30 21 2 21 22
M  V30 22 1 22 23
M  V30 23 2 23 24
M  V30 24 1 24 25
M  V30 25 2 20 26
M  V30 26 1 26 27
M  V30 27 1 13 28
M  V30 28 2 28 29
M  V30 29 1 29 30
M  V30 30 2 30 31
M  V30 31 1 31 32
M  V30 32 1 32 33
M  V30 33 2 33 11
M  V30 34 2 27 14
M  V30 35 1 32 28
M  V30 36 1 27 17
M  V30 37 1 25 21
M  V30 38 1 1 34
M  V30 39 1 1 35
M  V30 40 1 1 36
M  V30 41 1 2 37
M  V30 42 1 2 38
M  V30 43 1 4 39
M  V30 44 1 4 40
M  V30 45 1 5 41
M  V30 46 1 5 42
M  V30 47 1 5 43
M  V30 48 1 6 44
M  V30 49 1 6 45
M  V30 50 1 7 46
M  V30 51 1 7 47
M  V30 52 1 8 48
M  V30 53 1 12 49
M  V30 54 1 15 50
M  V30 55 1 18 51
M  V30 56 1 19 52
M  V30 57 1 22 53
M  V30 58 1 23 54
M  V30 59 1 24 55
M  V30 60 1 30 56
M  V30 61 1 31 57
M  V30 62 1 33 58
M  V30 END BOND
M  V30 END CTAB
M  END
>  <Dataset>  (356) 
ChEMBL_Kinases

>  <Ligand_Instance>  (356) 
nan

>  <PDB_ID>  (356) 
nan

>  <Standardized_SMILES>  (356) 
CCN(CC)CCNC(=O)c1cc(-c2cnn3ccc(-c4cccs4)nc23)c2nccn2c1

>  <Name>  (356) 
nan

>  <Pocket>  (356) 
nan

>  <ATP_Site>  (356) 
nan

>  <Peripheral>  (356) 
nan

>  <Num_H_Atoms_ProtBoundConf>  (356) 
nan

>  <Num_Resolved_Atoms>  (356) 
nan

>  <Num_Not_Resolved_Atoms>  (356) 
nan

$$$$
CHEMBL4213805
     RDKit          3D

  0  0  0  0  0  0  0  0  0  0999 V3000
M  V30 BEGIN CTAB
M  V30 COUNTS 50 54 0 0 0
M  V30 BEGIN ATOM
M  V30 1 C -1.565599 0.142752 -3.512841 0
M  V30 2 C -0.351653 0.651513 -4.167885 0
M  V30 3 N -0.160105 0.748013 -5.516971 0
M  V30 4 N 1.021084 1.238004 -5.766031 0
M  V30 5 C 1.610169 1.465395 -4.585898 0
M  V30 6 C 0.772828 1.106732 -3.541336 0
M  V30 7 C 1.076860 1.212947 -2.119767 0
M  V30 8 C 0.405626 0.919584 -1.014812 0
M  V30 9 C 0.968743 1.134797 0.202077 0
M  V30 10 C 2.261847 1.668873 0.228908 0
M  V30 11 S 2.626107 1.845339 -1.546924 0
M  V30 12 C 3.003293 1.949191 1.475395 0
M  V30 13 O 4.152187 2.429465 1.313797 0
M  V30 14 N 2.359715 1.655564 2.711214 0
M  V30 15 C 1.374400 0.625514 2.628275 0 CFG=1
M  V30 16 C 2.114561 -0.667645 2.260434 0
M  V30 17 C 1.022019 -1.624099 1.830950 0
M  V30 18 C 0.070026 -1.914533 2.937881 0 CFG=2
M  V30 19 O 0.736821 -2.780999 3.833749 0
M  V30 20 C -1.062119 -2.698553 2.384242 0
M  V30 21 C -1.991363 -2.986906 3.369696 0
M  V30 22 C -3.143414 -3.708603 3.119672 0
M  V30 23 C -3.374164 -4.162585 1.819178 0
M  V30 24 F -4.480151 -4.882442 1.469866 0
M  V30 25 C -2.442923 -3.870260 0.845266 0
M  V30 26 C -1.295653 -3.149673 1.101980 0
M  V30 27 C -0.414965 -0.692103 3.662746 0
M  V30 28 C 0.643017 0.340717 3.887862 0
M  V30 29 N 0.484579 0.919108 1.522415 0
M  V30 30 H -1.394600 -0.806389 -2.961279 0
M  V30 31 H -2.318092 -0.156291 -4.306009 0
M  V30 32 H -2.125030 0.909009 -2.924793 0
M  V30 33 H 1.427143 1.417631 -6.710286 0
M  V30 34 H 2.625102 1.882809 -4.522221 0
M  V30 35 H -0.586558 0.512862 -1.149221 0
M  V30 36 H 2.690769 2.228410 3.514445 0
M  V30 37 H 2.780291 -0.485057 1.414784 0
M  V30 38 H 2.589708 -1.043793 3.168290 0
M  V30 39 H 1.504502 -2.536653 1.474492 0
M  V30 40 H 0.442395 -1.180663 0.981259 0
M  V30 41 H 0.936191 -3.629387 3.365488 0
M  V30 42 H -1.947308 -2.701217 4.422248 0
M  V30 43 H -3.901043 -3.965614 3.834612 0
M  V30 44 H -2.570137 -4.196639 -0.179200 0
M  V30 45 H -0.520486 -2.875808 0.418800 0
M  V30 46 H -0.734646 -1.042194 4.682026 0
M  V30 47 H -1.321392 -0.248449 3.203378 0
M  V30 48 H 0.102925 1.284849 4.173284 0
M  V30 49 H 1.349787 0.113233 4.681484 0
M  V30 50 H -0.549775 0.962805 1.754545 0
M  V30 END ATOM
M  V30 BEGIN BOND
M  V30 1 1 1 2
M  V30 2 2 2 3
M  V30 3 1 3 4
M  V30 4 1 4 5
M  V30 5 2 5 6
M  V30 6 1 6 7
M  V30 7 2 7 8
M  V30 8 1 8 9
M  V30 9 2 9 10
M  V30 10 1 10 11
M  V30 11 1 10 12
M  V30 12 2 12 13
M  V30 13 1 12 14
M  V30 14 1 15 14 CFG=1
M  V30 15 1 15 16
M  V30 16 1 16 17
M  V30 17 1 17 18
M  V30 18 1 18 19 CFG=1
M  V30 19 1 18 20
M  V30 20 2 20 21
M  V30 21 1 21 22
M  V30 22 2 22 23
M  V30 23 1 23 24
M  V30 24 1 23 25
M  V30 25 2 25 26
M  V30 26 1 18 27
M  V30 27 1 27 28
M  V30 28 1 15 29
M  V30 29 1 6 2
M  V30 30 1 11 7
M  V30 31 1 28 15
M  V30 32 1 29 9
M  V30 33 1 26 20
M  V30 34 1 1 30
M  V30 35 1 1 31
M  V30 36 1 1 32
M  V30 37 1 4 33
M  V30 38 1 5 34
M  V30 39 1 8 35
M  V30 40 1 14 36
M  V30 41 1 16 37
M  V30 42 1 16 38
M  V30 43 1 17 39
M  V30 44 1 17 40
M  V30 45 1 19 41
M  V30 46 1 21 42
M  V30 47 1 22 43
M  V30 48 1 25 44
M  V30 49 1 26 45
M  V30 50 1 27 46
M  V30 51 1 27 47
M  V30 52 1 28 48
M  V30 53 1 28 49
M  V30 54 1 29 50
M  V30 END BOND
M  V30 END CTAB
M  END
>  <Dataset>  (357) 
ChEMBL_Kinases

>  <Ligand_Instance>  (357) 
nan

>  <PDB_ID>  (357) 
nan

>  <Standardized_SMILES>  (357) 
Cc1n[nH]cc1-c1cc2c(s1)C(=O)N[C@]1(CC[C@](O)(c3ccc(F)cc3)CC1)N2

>  <Name>  (357) 
nan

>  <Pocket>  (357) 
nan

>  <ATP_Site>  (357) 
nan

>  <Peripheral>  (357) 
nan

>  <Num_H_Atoms_ProtBoundConf>  (357) 
nan

>  <Num_Resolved_Atoms>  (357) 
nan

>  <Num_Not_Resolved_Atoms>  (357) 
nan

$$$$
CHEMBL4214539
     RDKit          3D

  0  0  0  0  0  0  0  0  0  0999 V3000
M  V30 BEGIN CTAB
M  V30 COUNTS 43 46 0 0 0
M  V30 BEGIN ATOM
M  V30 1 O 1.146284 -4.158364 -0.302587 0
M  V30 2 C 1.490111 -2.928085 -0.437204 0
M  V30 3 C 2.905695 -3.008055 -0.862659 0
M  V30 4 C 3.541261 -1.697687 -1.110483 0
M  V30 5 C 4.174369 -1.108768 -0.010393 0
M  V30 6 C 4.781975 0.127711 -0.236283 0
M  V30 7 C 4.737681 0.704343 -1.492876 0
M  V30 8 Cl 5.479073 2.249151 -1.837361 0
M  V30 9 C 4.107319 0.107397 -2.567998 0
M  V30 10 C 3.496433 -1.114280 -2.381888 0
M  V30 11 N 0.539057 -1.874009 -0.176253 0
M  V30 12 C 0.544250 -0.426451 -0.214466 0
M  V30 13 C 0.201919 0.193730 1.093713 0
M  V30 14 N -0.748112 -0.559160 1.867491 0
M  V30 15 C -1.595267 -0.017925 2.869295 0
M  V30 16 N -1.117817 -0.402430 4.092162 0
M  V30 17 C -1.729556 0.010492 5.240610 0
M  V30 18 N -2.830638 0.815375 5.198415 0
M  V30 19 C -3.324471 1.209674 4.012952 0
M  V30 20 N -4.347284 1.958277 3.561836 0
M  V30 21 C -4.368668 2.005218 2.199781 0
M  V30 22 C -3.304674 1.248235 1.737782 0
M  V30 23 Br -2.902682 0.974946 -0.100059 0
M  V30 24 C -2.706387 0.791838 2.865588 0
M  V30 25 C -0.926430 -1.986001 1.704679 0
M  V30 26 C -0.778790 -2.306688 0.234605 0
M  V30 27 H 2.941528 -3.545539 -1.856032 0
M  V30 28 H 3.530638 -3.597402 -0.137692 0
M  V30 29 H 4.180496 -1.599092 0.947370 0
M  V30 30 H 5.286058 0.629481 0.576802 0
M  V30 31 H 4.049524 0.521589 -3.561937 0
M  V30 32 H 2.980195 -1.648877 -3.175134 0
M  V30 33 H 1.540190 -0.067182 -0.541306 0
M  V30 34 H -0.172105 -0.110360 -0.997045 0
M  V30 35 H -0.079724 1.249950 0.936167 0
M  V30 36 H 1.166679 0.275191 1.705225 0
M  V30 37 H -1.390298 -0.266049 6.229259 0
M  V30 38 H -5.039931 2.443535 4.191755 0
M  V30 39 H -5.080553 2.533436 1.569732 0
M  V30 40 H -1.874881 -2.374505 2.119768 0
M  V30 41 H -0.049867 -2.456516 2.230547 0
M  V30 42 H -1.549417 -1.776517 -0.341359 0
M  V30 43 H -0.928216 -3.399008 0.044270 0
M  V30 END ATOM
M  V30 BEGIN BOND
M  V30 1 2 1 2
M  V30 2 1 2 3
M  V30 3 1 3 4
M  V30 4 2 4 5
M  V30 5 1 5 6
M  V30 6 2 6 7
M  V30 7 1 7 8
M  V30 8 1 7 9
M  V30 9 2 9 10
M  V30 10 1 2 11
M  V30 11 1 11 12
M  V30 12 1 12 13
M  V30 13 1 13 14
M  V30 14 1 14 15
M  V30 15 2 15 16
M  V30 16 1 16 17
M  V30 17 2 17 18
M  V30 18 1 18 19
M  V30 19 1 19 20
M  V30 20 1 20 21
M  V30 21 2 21 22
M  V30 22 1 22 23
M  V30 23 1 22 24
M  V30 24 1 14 25
M  V30 25 1 25 26
M  V30 26 1 10 4
M  V30 27 1 26 11
M  V30 28 1 24 15
M  V30 29 2 24 19
M  V30 30 1 3 27
M  V30 31 1 3 28
M  V30 32 1 5 29
M  V30 33 1 6 30
M  V30 34 1 9 31
M  V30 35 1 10 32
M  V30 36 1 12 33
M  V30 37 1 12 34
M  V30 38 1 13 35
M  V30 39 1 13 36
M  V30 40 1 17 37
M  V30 41 1 20 38
M  V30 42 1 21 39
M  V30 43 1 25 40
M  V30 44 1 25 41
M  V30 45 1 26 42
M  V30 46 1 26 43
M  V30 END BOND
M  V30 END CTAB
M  END
>  <Dataset>  (358) 
ChEMBL_Kinases

>  <Ligand_Instance>  (358) 
nan

>  <PDB_ID>  (358) 
nan

>  <Standardized_SMILES>  (358) 
O=C(Cc1ccc(Cl)cc1)N1CCN(c2ncnc3[nH]cc(Br)c23)CC1

>  <Name>  (358) 
nan

>  <Pocket>  (358) 
nan

>  <ATP_Site>  (358) 
nan

>  <Peripheral>  (358) 
nan

>  <Num_H_Atoms_ProtBoundConf>  (358) 
nan

>  <Num_Resolved_Atoms>  (358) 
nan

>  <Num_Not_Resolved_Atoms>  (358) 
nan

$$$$
CHEMBL4214523
     RDKit          3D

  0  0  0  0  0  0  0  0  0  0999 V3000
M  V30 BEGIN CTAB
M  V30 COUNTS 63 66 0 0 0
M  V30 BEGIN ATOM
M  V30 1 C 4.885302 -1.830112 4.756516 0
M  V30 2 N 3.957807 -1.062334 3.912209 0
M  V30 3 C 4.470294 -0.346540 2.797202 0
M  V30 4 O 5.718709 -0.426325 2.607571 0
M  V30 5 C 3.692184 0.459828 1.869395 0
M  V30 6 C 4.356038 1.083812 0.833857 0
M  V30 7 C 3.665106 1.859228 -0.058434 0
M  V30 8 C 2.306946 2.072048 0.001730 0
M  V30 9 O 1.490110 2.820485 -0.821041 0
M  V30 10 C 1.864630 3.553825 -1.939066 0
M  V30 11 C 1.531393 5.019125 -1.882740 0
M  V30 12 C 1.160804 2.924830 -3.151161 0
M  V30 13 C 1.641903 1.439096 1.050583 0
M  V30 14 N 0.234961 1.589428 1.250997 0
M  V30 15 C -0.530189 0.927683 2.246337 0
M  V30 16 N -0.684664 1.166634 3.594168 0
M  V30 17 C -1.513468 0.356034 4.301584 0
M  V30 18 C -2.214264 -0.692088 3.762731 0
M  V30 19 C -2.036897 -0.899329 2.417374 0
M  V30 20 C -2.763220 -1.993006 1.728256 0
M  V30 21 C -3.626169 -2.881261 2.325131 0
M  V30 22 C -4.253988 -3.847636 1.552029 0
M  V30 23 C -5.156805 -4.772997 2.174666 0
M  V30 24 N -5.899404 -5.506018 2.681424 0
M  V30 25 C -4.036243 -3.944957 0.192594 0
M  V30 26 C -3.173631 -3.062381 -0.419824 0
M  V30 27 C -2.569244 -2.123944 0.353327 0
M  V30 28 C -3.070349 -3.318174 -1.901603 0 CFG=1
M  V30 29 C -3.515977 -2.123043 -2.688933 0
M  V30 30 C -1.625843 -3.665823 -2.180850 0
M  V30 31 O -1.371785 -3.930230 -3.521582 0
M  V30 32 C -3.913046 -4.548516 -2.113403 0
M  V30 33 N -4.530157 -4.811141 -0.818963 0
M  V30 34 N -1.216550 -0.093481 1.734919 0
M  V30 35 C 2.343654 0.661799 1.941582 0
M  V30 36 H 4.645646 -1.575095 5.792207 0
M  V30 37 H 4.755590 -2.909206 4.567311 0
M  V30 38 H 5.918953 -1.523568 4.524430 0
M  V30 39 H 2.946746 -1.009878 4.083142 0
M  V30 40 H 5.419846 1.013329 0.651758 0
M  V30 41 H 4.159091 2.358429 -0.881131 0
M  V30 42 H 2.969823 3.472878 -2.069189 0
M  V30 43 H 2.464531 5.650395 -1.800363 0
M  V30 44 H 0.801782 5.300000 -1.120248 0
M  V30 45 H 1.103153 5.319596 -2.877628 0
M  V30 46 H 1.382581 1.833611 -3.050036 0
M  V30 47 H 1.569177 3.337926 -4.078834 0
M  V30 48 H 0.068777 3.046050 -3.027298 0
M  V30 49 H -0.339413 2.221880 0.649802 0
M  V30 50 H -1.561974 0.626982 5.346109 0
M  V30 51 H -2.849441 -1.289238 4.380625 0
M  V30 52 H -3.779655 -2.785454 3.389841 0
M  V30 53 H -1.887146 -1.425679 -0.131180 0
M  V30 54 H -2.603520 -1.619888 -3.108902 0
M  V30 55 H -3.983727 -1.386711 -2.005109 0
M  V30 56 H -4.175363 -2.432560 -3.509683 0
M  V30 57 H -1.388195 -4.625767 -1.646490 0
M  V30 58 H -0.975081 -2.901297 -1.759040 0
M  V30 59 H -0.529795 -4.466202 -3.566659 0
M  V30 60 H -4.655472 -4.399617 -2.922735 0
M  V30 61 H -3.301253 -5.429172 -2.413208 0
M  V30 62 H -5.243188 -5.566529 -0.740690 0
M  V30 63 H 1.794116 0.177701 2.754907 0
M  V30 END ATOM
M  V30 BEGIN BOND
M  V30 1 1 1 2
M  V30 2 1 2 3
M  V30 3 2 3 4
M  V30 4 1 3 5
M  V30 5 2 5 6
M  V30 6 1 6 7
M  V30 7 2 7 8
M  V30 8 1 8 9
M  V30 9 1 9 10
M  V30 10 1 10 11
M  V30 11 1 10 12
M  V30 12 1 8 13
M  V30 13 1 13 14
M  V30 14 1 14 15
M  V30 15 2 15 16
M  V30 16 1 16 17
M  V30 17 2 17 18
M  V30 18 1 18 19
M  V30 19 1 19 20
M  V30 20 2 20 21
M  V30 21 1 21 22
M  V30 22 1 22 23
M  V30 23 3 23 24
M  V30 24 2 22 25
M  V30 25 1 25 26
M  V30 26 2 26 27
M  V30 27 1 26 28
M  V30 28 1 28 29 CFG=3
M  V30 29 1 28 30
M  V30 30 1 30 31
M  V30 31 1 28 32
M  V30 32 1 32 33
M  V30 33 2 19 34
M  V30 34 2 13 35
M  V30 35 1 35 5
M  V30 36 1 34 15
M  V30 37 1 27 20
M  V30 38 1 33 25
M  V30 39 1 1 36
M  V30 40 1 1 37
M  V30 41 1 1 38
M  V30 42 1 2 39
M  V30 43 1 6 40
M  V30 44 1 7 41
M  V30 45 1 10 42
M  V30 46 1 11 43
M  V30 47 1 11 44
M  V30 48 1 11 45
M  V30 49 1 12 46
M  V30 50 1 12 47
M  V30 51 1 12 48
M  V30 52 1 14 49
M  V30 53 1 17 50
M  V30 54 1 18 51
M  V30 55 1 21 52
M  V30 56 1 27 53
M  V30 57 1 29 54
M  V30 58 1 29 55
M  V30 59 1 29 56
M  V30 60 1 30 57
M  V30 61 1 30 58
M  V30 62 1 31 59
M  V30 63 1 32 60
M  V30 64 1 32 61
M  V30 65 1 33 62
M  V30 66 1 35 63
M  V30 END BOND
M  V30 END CTAB
M  END
>  <Dataset>  (359) 
ChEMBL_Kinases

>  <Ligand_Instance>  (359) 
nan

>  <PDB_ID>  (359) 
nan

>  <Standardized_SMILES>  (359) 
CNC(=O)c1ccc(OC(C)C)c(Nc2nccc(-c3cc(C#N)c4c(c3)[C@@](C)(CO)CN4)n2)c1

>  <Name>  (359) 
nan

>  <Pocket>  (359) 
nan

>  <ATP_Site>  (359) 
nan

>  <Peripheral>  (359) 
nan

>  <Num_H_Atoms_ProtBoundConf>  (359) 
nan

>  <Num_Resolved_Atoms>  (359) 
nan

>  <Num_Not_Resolved_Atoms>  (359) 
nan

$$$$
CHEMBL4214498
     RDKit          3D

  0  0  0  0  0  0  0  0  0  0999 V3000
M  V30 BEGIN CTAB
M  V30 COUNTS 24 26 0 0 0
M  V30 BEGIN ATOM
M  V30 1 C 1.467783 -1.295250 4.328454 0
M  V30 2 C 1.179912 -2.348818 3.485066 0
M  V30 3 C 0.827224 -2.086163 2.177369 0
M  V30 4 C 0.737098 -0.822657 1.631857 0
M  V30 5 C 0.357657 -0.618301 0.238796 0
M  V30 6 C 0.062829 -1.608624 -0.640686 0
M  V30 7 C -0.294810 -1.400183 -1.956508 0
M  V30 8 N -0.357593 -0.124842 -2.406266 0
M  V30 9 C -0.073377 0.891230 -1.569276 0
M  V30 10 N -0.080529 2.216921 -1.828958 0
M  V30 11 C 0.260151 2.884540 -0.728492 0
M  V30 12 C 0.484392 1.938265 0.240558 0
M  V30 13 C 0.282651 0.667501 -0.256519 0
M  V30 14 N 1.027329 0.163752 2.495546 0
M  V30 15 C 1.376277 -0.033345 3.778286 0
M  V30 16 H 1.755325 -1.364403 5.368985 0
M  V30 17 H 1.245902 -3.346592 3.897312 0
M  V30 18 H 0.624497 -2.971819 1.608818 0
M  V30 19 H 0.100958 -2.632828 -0.323460 0
M  V30 20 H -0.519231 -2.239896 -2.610810 0
M  V30 21 H -0.307969 2.701026 -2.727844 0
M  V30 22 H 0.343165 3.952170 -0.620150 0
M  V30 23 H 0.779284 2.167363 1.254713 0
M  V30 24 H 1.573212 0.902701 4.317221 0
M  V30 END ATOM
M  V30 BEGIN BOND
M  V30 1 2 1 2
M  V30 2 1 2 3
M  V30 3 2 3 4
M  V30 4 1 4 5
M  V30 5 2 5 6
M  V30 6 1 6 7
M  V30 7 2 7 8
M  V30 8 1 8 9
M  V30 9 1 9 10
M  V30 10 1 10 11
M  V30 11 2 11 12
M  V30 12 1 12 13
M  V30 13 1 4 14
M  V30 14 2 14 15
M  V30 15 1 15 1
M  V30 16 1 13 5
M  V30 17 2 13 9
M  V30 18 1 1 16
M  V30 19 1 2 17
M  V30 20 1 3 18
M  V30 21 1 6 19
M  V30 22 1 7 20
M  V30 23 1 10 21
M  V30 24 1 11 22
M  V30 25 1 12 23
M  V30 26 1 15 24
M  V30 END BOND
M  V30 END CTAB
M  END
>  <Dataset>  (360) 
ChEMBL_Kinases

>  <Ligand_Instance>  (360) 
nan

>  <PDB_ID>  (360) 
nan

>  <Standardized_SMILES>  (360) 
c1ccc(-c2ccnc3[nH]ccc23)nc1

>  <Name>  (360) 
nan

>  <Pocket>  (360) 
nan

>  <ATP_Site>  (360) 
nan

>  <Peripheral>  (360) 
nan

>  <Num_H_Atoms_ProtBoundConf>  (360) 
nan

>  <Num_Resolved_Atoms>  (360) 
nan

>  <Num_Not_Resolved_Atoms>  (360) 
nan

$$$$
CHEMBL4214476
     RDKit          3D

  0  0  0  0  0  0  0  0  0  0999 V3000
M  V30 BEGIN CTAB
M  V30 COUNTS 53 57 0 0 0
M  V30 BEGIN ATOM
M  V30 1 C 5.837883 -3.686053 0.930758 0
M  V30 2 N 4.616630 -4.025862 1.637316 0
M  V30 3 C 3.471926 -3.193731 1.480065 0
M  V30 4 N 3.558975 -2.113128 0.677309 0
M  V30 5 C 2.505221 -1.305564 0.502924 0
M  V30 6 C 1.334208 -1.606062 1.162341 0
M  V30 7 C 0.098449 -0.998054 1.199282 0
M  V30 8 C -0.308961 0.211083 0.493014 0
M  V30 9 C 0.485029 1.340486 0.448870 0
M  V30 10 C 0.087620 2.478002 -0.222938 0
M  V30 11 C -1.133165 2.490563 -0.867822 0
M  V30 12 N -1.718029 3.555643 -1.608172 0
M  V30 13 C -3.008660 3.552888 -2.284488 0
M  V30 14 C -3.877660 4.578785 -1.596615 0
M  V30 15 N -3.106377 5.354753 -0.628206 0
M  V30 16 C -2.007810 5.974897 -1.336760 0
M  V30 17 C -1.095912 4.872308 -1.817173 0
M  V30 18 N -1.911842 1.387588 -0.826417 0
M  V30 19 C -1.521960 0.279402 -0.170504 0
M  V30 20 N -0.701598 -1.726017 2.022041 0
M  V30 21 N -0.016603 -2.762641 2.499833 0
M  V30 22 C -0.496965 -3.766697 3.397565 0
M  V30 23 C -1.108226 -4.952320 2.638527 0
M  V30 24 O -0.162826 -5.538351 1.809086 0
M  V30 25 C -0.264377 -6.904420 1.916262 0
M  V30 26 C -1.372994 -7.145765 2.917369 0
M  V30 27 O -1.526492 -5.909355 3.542602 0
M  V30 28 C 1.229924 -2.714541 1.991495 0
M  V30 29 N 2.323219 -3.480595 2.121284 0
M  V30 30 H 5.890836 -4.260107 -0.022501 0
M  V30 31 H 6.715964 -3.869707 1.582523 0
M  V30 32 H 5.803863 -2.609717 0.644967 0
M  V30 33 H 4.572204 -4.870063 2.255398 0
M  V30 34 H 2.584610 -0.457753 -0.131124 0
M  V30 35 H 1.446656 1.361045 0.944445 0
M  V30 36 H 0.646720 3.386860 -0.300298 0
M  V30 37 H -3.486652 2.533924 -2.208085 0
M  V30 38 H -2.879952 3.813595 -3.359825 0
M  V30 39 H -4.752340 4.115379 -1.095782 0
M  V30 40 H -4.213882 5.311613 -2.355651 0
M  V30 41 H -3.699580 6.008087 -0.105204 0
M  V30 42 H -1.512229 6.672851 -0.637199 0
M  V30 43 H -2.394226 6.584664 -2.177795 0
M  V30 44 H -0.085534 4.936633 -1.406687 0
M  V30 45 H -0.991806 4.983903 -2.916051 0
M  V30 46 H -2.147351 -0.611896 -0.134970 0
M  V30 47 H 0.355528 -4.185155 3.976710 0
M  V30 48 H -1.257806 -3.332768 4.076723 0
M  V30 49 H -2.016280 -4.605117 2.091871 0
M  V30 50 H 0.670486 -7.380037 2.304333 0
M  V30 51 H -0.472838 -7.367723 0.924228 0
M  V30 52 H -2.318625 -7.487664 2.441594 0
M  V30 53 H -1.080328 -7.932071 3.647136 0
M  V30 END ATOM
M  V30 BEGIN BOND
M  V30 1 1 1 2
M  V30 2 1 2 3
M  V30 3 2 3 4
M  V30 4 1 4 5
M  V30 5 2 5 6
M  V30 6 1 6 7
M  V30 7 1 7 8
M  V30 8 2 8 9
M  V30 9 1 9 10
M  V30 10 2 10 11
M  V30 11 1 11 12
M  V30 12 1 12 13
M  V30 13 1 13 14
M  V30 14 1 14 15
M  V30 15 1 15 16
M  V30 16 1 16 17
M  V30 17 1 11 18
M  V30 18 2 18 19
M  V30 19 2 7 20
M  V30 20 1 20 21
M  V30 21 1 21 22
M  V30 22 1 22 23
M  V30 23 1 23 24
M  V30 24 1 24 25
M  V30 25 1 25 26
M  V30 26 1 26 27
M  V30 27 1 21 28
M  V30 28 2 28 29
M  V30 29 1 29 3
M  V30 30 1 28 6
M  V30 31 1 19 8
M  V30 32 1 27 23
M  V30 33 1 17 12
M  V30 34 1 1 30
M  V30 35 1 1 31
M  V30 36 1 1 32
M  V30 37 1 2 33
M  V30 38 1 5 34
M  V30 39 1 9 35
M  V30 40 1 10 36
M  V30 41 1 13 37
M  V30 42 1 13 38
M  V30 43 1 14 39
M  V30 44 1 14 40
M  V30 45 1 15 41
M  V30 46 1 16 42
M  V30 47 1 16 43
M  V30 48 1 17 44
M  V30 49 1 17 45
M  V30 50 1 19 46
M  V30 51 1 22 47
M  V30 52 1 22 48
M  V30 53 1 23 49
M  V30 54 1 25 50
M  V30 55 1 25 51
M  V30 56 1 26 52
M  V30 57 1 26 53
M  V30 END BOND
M  V30 END CTAB
M  END
>  <Dataset>  (361) 
ChEMBL_Kinases

>  <Ligand_Instance>  (361) 
nan

>  <PDB_ID>  (361) 
nan

>  <Standardized_SMILES>  (361) 
CNc1ncc2c(-c3ccc(N4CCNCC4)nc3)nn(CC3OCCO3)c2n1

>  <Name>  (361) 
nan

>  <Pocket>  (361) 
nan

>  <ATP_Site>  (361) 
nan

>  <Peripheral>  (361) 
nan

>  <Num_H_Atoms_ProtBoundConf>  (361) 
nan

>  <Num_Resolved_Atoms>  (361) 
nan

>  <Num_Not_Resolved_Atoms>  (361) 
nan

$$$$
CHEMBL4214470
     RDKit          3D

  0  0  0  0  0  0  0  0  0  0999 V3000
M  V30 BEGIN CTAB
M  V30 COUNTS 57 61 0 0 0
M  V30 BEGIN ATOM
M  V30 1 N 5.091217 -4.069001 2.268010 0
M  V30 2 C 4.117066 -3.075468 1.820012 0 CFG=1
M  V30 3 C 4.837740 -1.802096 1.548728 0
M  V30 4 C 4.051118 -0.793328 0.735794 0
M  V30 5 C 2.697776 -1.359215 0.478156 0 CFG=1
M  V30 6 N 1.739760 -0.500587 -0.126588 0
M  V30 7 C 1.471291 0.634798 0.687258 0
M  V30 8 C 0.413555 1.520655 0.078894 0
M  V30 9 C 0.672436 2.704073 -0.603159 0
M  V30 10 C -0.540365 3.207284 -1.015058 0
M  V30 11 N -1.545272 2.377675 -0.612609 0
M  V30 12 N -2.870848 2.369856 -0.727289 0
M  V30 13 C -3.564308 1.375292 -0.193316 0
M  V30 14 C -5.018922 1.401144 -0.351107 0
M  V30 15 C -5.655031 2.421584 -1.046120 0
M  V30 16 C -7.035816 2.505039 -1.240650 0
M  V30 17 C -7.685744 1.425701 -0.642375 0
M  V30 18 C -7.132517 0.384118 0.057252 0
M  V30 19 N -5.793835 0.433365 0.165575 0
M  V30 20 N -3.021683 0.326645 0.483856 0
M  V30 21 C -1.659049 0.328293 0.604964 0
M  V30 22 N -1.185338 -0.796188 1.332187 0
M  V30 23 C -0.963151 -2.124730 0.795122 0
M  V30 24 C -1.260254 -2.233653 -0.544978 0
M  V30 25 C -1.028197 -3.552255 -0.973859 0
M  V30 26 N -0.584268 -4.523260 -0.161187 0
M  V30 27 C -0.323312 -4.310651 1.139858 0
M  V30 28 C -0.509407 -3.042717 1.703500 0
M  V30 29 F -0.277113 -2.727750 2.998051 0
M  V30 30 C -0.952639 1.369416 0.044055 0
M  V30 31 C 2.925140 -2.631792 -0.336433 0
M  V30 32 C 3.441015 -3.667225 0.617104 0
M  V30 33 H 4.818816 -5.025795 1.947881 0
M  V30 34 H 5.191129 -4.075770 3.308368 0
M  V30 35 H 3.418325 -2.929505 2.684909 0
M  V30 36 H 5.855673 -1.956987 1.121839 0
M  V30 37 H 5.016669 -1.316509 2.553495 0
M  V30 38 H 4.033360 0.196729 1.197177 0
M  V30 39 H 4.615530 -0.660739 -0.234447 0
M  V30 40 H 2.309533 -1.704636 1.478820 0
M  V30 41 H 2.111166 -0.171089 -1.066240 0
M  V30 42 H 2.387464 1.242534 0.804744 0
M  V30 43 H 1.184056 0.326909 1.709559 0
M  V30 44 H 1.614315 3.190827 -0.807049 0
M  V30 45 H -0.821327 4.093345 -1.570777 0
M  V30 46 H -5.023339 3.209286 -1.465204 0
M  V30 47 H -7.525285 3.283766 -1.772240 0
M  V30 48 H -8.782926 1.406483 -0.744558 0
M  V30 49 H -7.760518 -0.390790 0.469856 0
M  V30 50 H -1.024414 -0.500283 2.319408 0
M  V30 51 H -1.612831 -1.430398 -1.161516 0
M  V30 52 H -1.231011 -3.770902 -2.035634 0
M  V30 53 H 0.037136 -5.101272 1.794832 0
M  V30 54 H 3.738988 -2.393059 -1.053892 0
M  V30 55 H 2.011807 -2.934640 -0.881634 0
M  V30 56 H 2.569438 -4.238933 0.996275 0
M  V30 57 H 4.079219 -4.437345 0.113467 0
M  V30 END ATOM
M  V30 BEGIN BOND
M  V30 1 1 1 2
M  V30 2 1 2 3
M  V30 3 1 3 4
M  V30 4 1 4 5
M  V30 5 1 5 6
M  V30 6 1 6 7
M  V30 7 1 7 8
M  V30 8 1 8 9
M  V30 9 2 9 10
M  V30 10 1 10 11
M  V30 11 1 11 12
M  V30 12 2 12 13
M  V30 13 1 13 14
M  V30 14 2 14 15
M  V30 15 1 15 16
M  V30 16 2 16 17
M  V30 17 1 17 18
M  V30 18 2 18 19
M  V30 19 1 13 20
M  V30 20 2 20 21
M  V30 21 1 21 22
M  V30 22 1 22 23
M  V30 23 2 23 24
M  V30 24 1 24 25
M  V30 25 2 25 26
M  V30 26 1 26 27
M  V30 27 2 27 28
M  V30 28 1 28 29
M  V30 29 1 21 30
M  V30 30 1 5 31
M  V30 31 1 31 32
M  V30 32 1 32 2
M  V30 33 2 30 8
M  V30 34 1 30 11
M  V30 35 1 19 14
M  V30 36 1 28 23
M  V30 37 1 1 33
M  V30 38 1 1 34
M  V30 39 1 2 35 CFG=1
M  V30 40 1 3 36
M  V30 41 1 3 37
M  V30 42 1 4 38
M  V30 43 1 4 39
M  V30 44 1 5 40 CFG=1
M  V30 45 1 6 41
M  V30 46 1 7 42
M  V30 47 1 7 43
M  V30 48 1 9 44
M  V30 49 1 10 45
M  V30 50 1 15 46
M  V30 51 1 16 47
M  V30 52 1 17 48
M  V30 53 1 18 49
M  V30 54 1 22 50
M  V30 55 1 24 51
M  V30 56 1 25 52
M  V30 57 1 27 53
M  V30 58 1 31 54
M  V30 59 1 31 55
M  V30 60 1 32 56
M  V30 61 1 32 57
M  V30 END BOND
M  V30 END CTAB
M  END
>  <Dataset>  (362) 
ChEMBL_Kinases

>  <Ligand_Instance>  (362) 
nan

>  <PDB_ID>  (362) 
nan

>  <Standardized_SMILES>  (362) 
N[C@H]1CC[C@@H](NCc2ccn3nc(-c4ccccn4)nc(Nc4ccncc4F)c23)CC1

>  <Name>  (362) 
nan

>  <Pocket>  (362) 
nan

>  <ATP_Site>  (362) 
nan

>  <Peripheral>  (362) 
nan

>  <Num_H_Atoms_ProtBoundConf>  (362) 
nan

>  <Num_Resolved_Atoms>  (362) 
nan

>  <Num_Not_Resolved_Atoms>  (362) 
nan

$$$$
CHEMBL4779020
     RDKit          3D

  0  0  0  0  0  0  0  0  0  0999 V3000
M  V30 BEGIN CTAB
M  V30 COUNTS 55 59 0 0 0
M  V30 BEGIN ATOM
M  V30 1 C 5.070811 0.353005 4.083746 0
M  V30 2 C 3.796460 -0.106561 4.711757 0
M  V30 3 C 3.499560 -1.550471 4.508545 0
M  V30 4 S 3.300327 -2.001721 2.821099 0
M  V30 5 O 3.037494 -3.503599 2.813852 0
M  V30 6 O 4.591345 -1.813686 2.054701 0
M  V30 7 N 2.021945 -1.179384 2.049988 0
M  V30 8 C 1.763086 0.181601 1.772669 0
M  V30 9 C 2.850593 0.952887 1.474435 0
M  V30 10 C 2.676916 2.272375 1.182540 0
M  V30 11 C 1.415993 2.853053 1.180273 0
M  V30 12 F 1.351993 4.188663 0.873030 0
M  V30 13 C 0.307500 2.095405 1.476240 0
M  V30 14 C -0.975659 2.741585 1.501425 0
M  V30 15 O -0.850111 3.994256 1.749022 0
M  V30 16 C -2.360413 2.377600 1.327274 0
M  V30 17 N -3.351120 3.083656 1.888275 0
M  V30 18 N -4.528944 2.547813 1.537179 0
M  V30 19 C -4.380359 1.477447 0.737329 0
M  V30 20 N -5.228872 0.641705 0.133197 0
M  V30 21 C -4.776596 -0.364041 -0.652084 0
M  V30 22 C -3.393295 -0.478003 -0.794363 0
M  V30 23 C -2.862755 -1.560543 -1.643081 0
M  V30 24 C -1.653261 -2.194190 -1.433867 0
M  V30 25 C -1.222432 -3.201584 -2.273507 0
M  V30 26 C -2.048938 -3.547062 -3.326878 0
M  V30 27 C -1.604250 -4.614151 -4.226897 0
M  V30 28 N -2.239024 -5.109881 -5.307115 0
M  V30 29 N -1.532038 -6.070138 -5.876171 0
M  V30 30 N -0.434710 -6.188632 -5.151943 0
M  V30 31 N -0.460395 -5.319135 -4.153330 0
M  V30 32 C -3.274309 -2.957494 -3.599981 0
M  V30 33 C -3.650973 -1.949206 -2.716731 0
M  V30 34 C -2.517140 0.376891 -0.175971 0
M  V30 35 C -3.009374 1.390270 0.618818 0
M  V30 36 C 0.523025 0.776019 1.765203 0
M  V30 37 F -0.465622 -0.077063 2.116526 0
M  V30 38 H 5.636243 -0.424647 3.540633 0
M  V30 39 H 5.786802 0.707035 4.893184 0
M  V30 40 H 4.875826 1.269611 3.490948 0
M  V30 41 H 2.904518 0.464538 4.314771 0
M  V30 42 H 3.809893 0.113796 5.822523 0
M  V30 43 H 2.524827 -1.769230 5.034947 0
M  V30 44 H 4.297521 -2.213126 4.932661 0
M  V30 45 H 1.223602 -1.747285 1.676027 0
M  V30 46 H 3.853581 0.549838 1.458234 0
M  V30 47 H 3.547318 2.884388 0.945865 0
M  V30 48 H -5.412225 2.976046 1.889650 0
M  V30 49 H -5.488245 -1.038907 -1.138238 0
M  V30 50 H -1.061780 -1.861616 -0.580636 0
M  V30 51 H -0.278668 -3.697882 -2.113321 0
M  V30 52 H 0.278903 -5.192860 -3.423617 0
M  V30 53 H -3.875254 -3.269211 -4.436058 0
M  V30 54 H -4.616447 -1.495806 -2.943976 0
M  V30 55 H -1.447788 0.286695 -0.301555 0
M  V30 END ATOM
M  V30 BEGIN BOND
M  V30 1 1 1 2
M  V30 2 1 2 3
M  V30 3 1 3 4
M  V30 4 2 4 5
M  V30 5 2 4 6
M  V30 6 1 4 7
M  V30 7 1 7 8
M  V30 8 2 8 9
M  V30 9 1 9 10
M  V30 10 2 10 11
M  V30 11 1 11 12
M  V30 12 1 11 13
M  V30 13 1 13 14
M  V30 14 2 14 15
M  V30 15 1 14 16
M  V30 16 2 16 17
M  V30 17 1 17 18
M  V30 18 1 18 19
M  V30 19 2 19 20
M  V30 20 1 20 21
M  V30 21 2 21 22
M  V30 22 1 22 23
M  V30 23 2 23 24
M  V30 24 1 24 25
M  V30 25 2 25 26
M  V30 26 1 26 27
M  V30 27 2 27 28
M  V30 28 1 28 29
M  V30 29 2 29 30
M  V30 30 1 30 31
M  V30 31 1 26 32
M  V30 32 2 32 33
M  V30 33 1 22 34
M  V30 34 2 34 35
M  V30 35 2 13 36
M  V30 36 1 36 37
M  V30 37 1 36 8
M  V30 38 1 35 16
M  V30 39 1 35 19
M  V30 40 1 33 23
M  V30 41 1 31 27
M  V30 42 1 1 38
M  V30 43 1 1 39
M  V30 44 1 1 40
M  V30 45 1 2 41
M  V30 46 1 2 42
M  V30 47 1 3 43
M  V30 48 1 3 44
M  V30 49 1 7 45
M  V30 50 1 9 46
M  V30 51 1 10 47
M  V30 52 1 18 48
M  V30 53 1 21 49
M  V30 54 1 24 50
M  V30 55 1 25 51
M  V30 56 1 31 52
M  V30 57 1 32 53
M  V30 58 1 33 54
M  V30 59 1 34 55
M  V30 END BOND
M  V30 END CTAB
M  END
>  <Dataset>  (363) 
ChEMBL_Kinases

>  <Ligand_Instance>  (363) 
nan

>  <PDB_ID>  (363) 
nan

>  <Standardized_SMILES>  (363) 
CCCS(=O)(=O)Nc1ccc(F)c(C(=O)c2n[nH]c3ncc(-c4ccc(-c5nnn[nH]5)cc4)cc23)c1F

>  <Name>  (363) 
nan

>  <Pocket>  (363) 
nan

>  <ATP_Site>  (363) 
nan

>  <Peripheral>  (363) 
nan

>  <Num_H_Atoms_ProtBoundConf>  (363) 
nan

>  <Num_Resolved_Atoms>  (363) 
nan

>  <Num_Not_Resolved_Atoms>  (363) 
nan

$$$$
CHEMBL4214403
     RDKit          3D

  0  0  0  0  0  0  0  0  0  0999 V3000
M  V30 BEGIN CTAB
M  V30 COUNTS 40 44 0 0 0
M  V30 BEGIN ATOM
M  V30 1 C -0.554021 -5.373963 0.201832 0
M  V30 2 C -0.560772 -4.282379 1.074511 0
M  V30 3 C 0.447742 -3.357525 0.857118 0
M  V30 4 C 1.402974 -3.446042 -0.114248 0
M  V30 5 C 2.464818 -2.425457 -0.305990 0
M  V30 6 N 2.055352 -1.374011 -1.226992 0
M  V30 7 C 2.248743 -1.401383 -2.577799 0
M  V30 8 N 1.733970 -0.250598 -3.084452 0
M  V30 9 C 1.221690 0.503231 -2.099163 0
M  V30 10 C 0.590234 1.731767 -2.023730 0
M  V30 11 C 0.191676 2.194659 -0.786696 0
M  V30 12 C 0.403154 1.467230 0.390620 0
M  V30 13 C -0.104487 2.161085 1.569664 0
M  V30 14 C 0.153036 3.509830 1.727599 0
M  V30 15 C -0.293113 4.236410 2.815843 0
M  V30 16 N -1.020470 3.622489 3.790446 0
M  V30 17 C -1.278361 2.305887 3.647434 0
M  V30 18 N -1.970809 1.459006 4.458569 0
M  V30 19 C -1.970191 0.212770 3.903436 0
M  V30 20 C -1.262782 0.272208 2.716544 0
M  V30 21 C -0.841750 1.562378 2.568018 0
M  V30 22 C 1.034708 0.244215 0.293426 0
M  V30 23 C 1.431723 -0.216313 -0.940974 0
M  V30 24 N 1.365792 -4.523039 -0.933906 0
M  V30 25 C 0.418770 -5.440522 -0.768673 0
M  V30 26 H -1.343050 -6.108078 0.363541 0
M  V30 27 H -1.307820 -4.197753 1.846416 0
M  V30 28 H 0.436274 -2.510404 1.540231 0
M  V30 29 H 3.447045 -2.870800 -0.595781 0
M  V30 30 H 2.653589 -1.985860 0.712352 0
M  V30 31 H 2.737968 -2.236005 -3.082143 0
M  V30 32 H 0.444189 2.262164 -2.943541 0
M  V30 33 H -0.292060 3.163763 -0.835433 0
M  V30 34 H 0.727498 4.080658 0.996096 0
M  V30 35 H -0.088719 5.299378 2.937852 0
M  V30 36 H -2.452559 1.654776 5.371882 0
M  V30 37 H -2.450416 -0.676997 4.331526 0
M  V30 38 H -1.085490 -0.547595 2.047953 0
M  V30 39 H 1.153025 -0.238351 1.239864 0
M  V30 40 H 0.316377 -6.329275 -1.377423 0
M  V30 END ATOM
M  V30 BEGIN BOND
M  V30 1 2 1 2
M  V30 2 1 2 3
M  V30 3 2 3 4
M  V30 4 1 4 5
M  V30 5 1 5 6
M  V30 6 1 6 7
M  V30 7 2 7 8
M  V30 8 1 8 9
M  V30 9 2 9 10
M  V30 10 1 10 11
M  V30 11 2 11 12
M  V30 12 1 12 13
M  V30 13 2 13 14
M  V30 14 1 14 15
M  V30 15 2 15 16
M  V30 16 1 16 17
M  V30 17 1 17 18
M  V30 18 1 18 19
M  V30 19 2 19 20
M  V30 20 1 20 21
M  V30 21 1 12 22
M  V30 22 2 22 23
M  V30 23 1 4 24
M  V30 24 2 24 25
M  V30 25 1 25 1
M  V30 26 1 23 6
M  V30 27 1 23 9
M  V30 28 1 21 13
M  V30 29 2 21 17
M  V30 30 1 1 26
M  V30 31 1 2 27
M  V30 32 1 3 28
M  V30 33 1 5 29
M  V30 34 1 5 30
M  V30 35 1 7 31
M  V30 36 1 10 32
M  V30 37 1 11 33
M  V30 38 1 14 34
M  V30 39 1 15 35
M  V30 40 1 18 36
M  V30 41 1 19 37
M  V30 42 1 20 38
M  V30 43 1 22 39
M  V30 44 1 25 40
M  V30 END BOND
M  V30 END CTAB
M  END
>  <Dataset>  (364) 
ChEMBL_Kinases

>  <Ligand_Instance>  (364) 
nan

>  <PDB_ID>  (364) 
nan

>  <Standardized_SMILES>  (364) 
c1ccc(Cn2cnc3ccc(-c4ccnc5[nH]ccc45)cc32)nc1

>  <Name>  (364) 
nan

>  <Pocket>  (364) 
nan

>  <ATP_Site>  (364) 
nan

>  <Peripheral>  (364) 
nan

>  <Num_H_Atoms_ProtBoundConf>  (364) 
nan

>  <Num_Resolved_Atoms>  (364) 
nan

>  <Num_Not_Resolved_Atoms>  (364) 
nan

$$$$
CHEMBL4214345
     RDKit          3D

  0  0  0  0  0  0  0  0  0  0999 V3000
M  V30 BEGIN CTAB
M  V30 COUNTS 57 60 0 0 0
M  V30 BEGIN ATOM
M  V30 1 C 0.844672 1.185593 3.521953 0
M  V30 2 C 2.008887 0.684267 2.648585 0
M  V30 3 N 2.152253 -0.687185 2.660418 0
M  V30 4 C 2.558032 -1.215426 3.920902 0
M  V30 5 C 3.953554 -0.860728 4.352270 0
M  V30 6 C 1.937113 -1.575795 1.635261 0
M  V30 7 C 2.841029 -1.665982 0.456046 0
M  V30 8 C 2.971129 -0.419564 -0.354987 0
M  V30 9 N 1.697104 0.048898 -0.860226 0
M  V30 10 C 1.419996 1.180635 -1.641721 0
M  V30 11 O 2.381827 1.918486 -1.970023 0
M  V30 12 C 0.085948 1.550553 -2.091623 0
M  V30 13 C -0.025370 2.751442 -2.762248 0
M  V30 14 C -1.262165 3.200463 -3.234216 0
M  V30 15 N -2.370509 2.433838 -3.024350 0
M  V30 16 C -2.289940 1.245883 -2.366810 0
M  V30 17 C -3.521845 0.493881 -2.179491 0
M  V30 18 C -4.762709 0.904624 -2.562002 0
M  V30 19 N -5.621859 -0.070234 -2.213564 0
M  V30 20 N -4.969923 -1.072975 -1.629504 0
M  V30 21 C -5.464968 -2.238605 -1.137762 0
M  V30 22 C -4.581829 -3.160506 -0.562757 0
M  V30 23 C -3.254318 -2.807556 -0.540514 0
M  V30 24 C -2.293111 -3.719236 0.041910 0
M  V30 25 C -0.944664 -3.650577 0.141938 0
M  V30 26 C -0.243874 -4.657630 0.740494 0
M  V30 27 C -1.053330 -5.760477 1.236134 0
M  V30 28 S -2.807453 -5.234161 0.782598 0
M  V30 29 N -2.831862 -1.628780 -1.049220 0
M  V30 30 C -3.682091 -0.745145 -1.600132 0
M  V30 31 C -1.063192 0.816030 -1.907078 0
M  V30 32 H 0.593736 2.222683 3.193511 0
M  V30 33 H -0.063668 0.577878 3.399720 0
M  V30 34 H 1.115465 1.163658 4.596293 0
M  V30 35 H 2.911824 1.150354 3.151137 0
M  V30 36 H 1.961312 1.210654 1.667885 0
M  V30 37 H 2.403385 -2.316113 3.958137 0
M  V30 38 H 1.881136 -0.788355 4.724806 0
M  V30 39 H 4.173784 -1.530872 5.229713 0
M  V30 40 H 3.932622 0.188590 4.769529 0
M  V30 41 H 4.697225 -0.932772 3.552802 0
M  V30 42 H 1.825954 -2.618149 2.119770 0
M  V30 43 H 0.887487 -1.487540 1.169992 0
M  V30 44 H 2.379505 -2.452393 -0.222212 0
M  V30 45 H 3.846671 -2.030897 0.802308 0
M  V30 46 H 3.440013 0.391442 0.213223 0
M  V30 47 H 3.651735 -0.638843 -1.258413 0
M  V30 48 H 0.856702 -0.528934 -0.615720 0
M  V30 49 H 0.785454 3.449413 -2.990697 0
M  V30 50 H -1.389119 4.141439 -3.764273 0
M  V30 51 H -5.019547 1.834110 -3.053239 0
M  V30 52 H -6.527129 -2.501707 -1.166909 0
M  V30 53 H -4.977711 -4.088546 -0.173590 0
M  V30 54 H -0.479007 -2.772221 -0.275327 0
M  V30 55 H 0.829449 -4.650196 0.844456 0
M  V30 56 H -0.486602 -6.632327 1.752225 0
M  V30 57 H -0.975197 -0.118139 -1.384319 0
M  V30 END ATOM
M  V30 BEGIN BOND
M  V30 1 1 1 2
M  V30 2 1 2 3
M  V30 3 1 3 4
M  V30 4 1 4 5
M  V30 5 1 3 6
M  V30 6 1 6 7
M  V30 7 1 7 8
M  V30 8 1 8 9
M  V30 9 1 9 10
M  V30 10 2 10 11
M  V30 11 1 10 12
M  V30 12 2 12 13
M  V30 13 1 13 14
M  V30 14 2 14 15
M  V30 15 1 15 16
M  V30 16 1 16 17
M  V30 17 1 17 18
M  V30 18 2 18 19
M  V30 19 1 19 20
M  V30 20 1 20 21
M  V30 21 2 21 22
M  V30 22 1 22 23
M  V30 23 1 23 24
M  V30 24 2 24 25
M  V30 25 1 25 26
M  V30 26 2 26 27
M  V30 27 1 27 28
M  V30 28 2 23 29
M  V30 29 1 29 30
M  V30 30 2 16 31
M  V30 31 1 31 12
M  V30 32 2 30 17
M  V30 33 1 30 20
M  V30 34 1 28 24
M  V30 35 1 1 32
M  V30 36 1 1 33
M  V30 37 1 1 34
M  V30 38 1 2 35
M  V30 39 1 2 36
M  V30 40 1 4 37
M  V30 41 1 4 38
M  V30 42 1 5 39
M  V30 43 1 5 40
M  V30 44 1 5 41
M  V30 45 1 6 42
M  V30 46 1 6 43
M  V30 47 1 7 44
M  V30 48 1 7 45
M  V30 49 1 8 46
M  V30 50 1 8 47
M  V30 51 1 9 48
M  V30 52 1 13 49
M  V30 53 1 14 50
M  V30 54 1 18 51
M  V30 55 1 21 52
M  V30 56 1 22 53
M  V30 57 1 25 54
M  V30 58 1 26 55
M  V30 59 1 27 56
M  V30 60 1 31 57
M  V30 END BOND
M  V30 END CTAB
M  END
>  <Dataset>  (365) 
ChEMBL_Kinases

>  <Ligand_Instance>  (365) 
nan

>  <PDB_ID>  (365) 
nan

>  <Standardized_SMILES>  (365) 
CCN(CC)CCCNC(=O)c1ccnc(-c2cnn3ccc(-c4cccs4)nc23)c1

>  <Name>  (365) 
nan

>  <Pocket>  (365) 
nan

>  <ATP_Site>  (365) 
nan

>  <Peripheral>  (365) 
nan

>  <Num_H_Atoms_ProtBoundConf>  (365) 
nan

>  <Num_Resolved_Atoms>  (365) 
nan

>  <Num_Not_Resolved_Atoms>  (365) 
nan

$$$$
CHEMBL4214342
     RDKit          3D

  0  0  0  0  0  0  0  0  0  0999 V3000
M  V30 BEGIN CTAB
M  V30 COUNTS 80 85 0 0 0
M  V30 BEGIN ATOM
M  V30 1 C -0.742235 -7.145954 -3.952778 0
M  V30 2 C -1.641962 -6.691069 -5.039936 0
M  V30 3 O -2.737461 -7.335272 -4.913141 0
M  V30 4 N -1.360991 -5.708459 -6.060639 0
M  V30 5 C -0.026647 -5.134641 -5.972464 0
M  V30 6 C -0.078042 -3.873369 -6.837130 0
M  V30 7 N -1.390807 -3.311013 -6.823029 0
M  V30 8 C -1.820000 -2.148269 -6.135042 0
M  V30 9 C -0.915089 -1.521075 -5.305867 0
M  V30 10 C -1.351982 -0.388098 -4.616760 0
M  V30 11 C -2.663698 0.046107 -4.799112 0
M  V30 12 N -3.140791 1.194308 -4.065169 0
M  V30 13 C -2.190022 1.709514 -3.119412 0
M  V30 14 N -1.454823 2.820969 -2.981277 0
M  V30 15 C -0.612742 3.005211 -1.955225 0
M  V30 16 C -0.440737 2.063751 -0.966119 0
M  V30 17 C -1.194166 0.918998 -1.106571 0
M  V30 18 N -2.033361 0.766022 -2.151029 0
M  V30 19 N -1.053656 -0.139870 -0.147000 0
M  V30 20 C -1.884725 -1.325083 -0.355964 0
M  V30 21 C -0.128177 0.039031 0.918013 0
M  V30 22 O -0.120816 -0.982931 1.680719 0
M  V30 23 N 0.634182 1.215205 1.037530 0
M  V30 24 C 1.536390 1.091217 2.120736 0
M  V30 25 C 1.289395 1.385761 3.441970 0
M  V30 26 C 2.214008 1.230251 4.425805 0
M  V30 27 N 2.034766 1.501705 5.780929 0
M  V30 28 C 0.937436 2.006493 6.501871 0
M  V30 29 O -0.092628 2.280515 5.839175 0
M  V30 30 C 0.877467 2.243223 7.932010 0
M  V30 31 C -0.266535 2.772513 8.485507 0
M  V30 32 C -0.401311 3.023722 9.831975 0
M  V30 33 C 0.637841 2.748170 10.723443 0
M  V30 34 C 1.801927 2.212288 10.178805 0
M  V30 35 C 2.896504 1.929293 11.142053 0
M  V30 36 F 3.547497 0.790797 10.700558 0
M  V30 37 F 2.402806 1.669350 12.407599 0
M  V30 38 F 3.810329 2.972292 11.126699 0
M  V30 39 C 1.886704 1.979792 8.826210 0
M  V30 40 C 3.428154 0.752367 4.001372 0
M  V30 41 C 3.739543 0.442914 2.720905 0
M  V30 42 C 2.773604 0.610940 1.727818 0
M  V30 43 C 3.142323 0.271427 0.340876 0
M  V30 44 C 0.480448 2.342038 0.143710 0
M  V30 45 C -3.545227 -0.621115 -5.650561 0
M  V30 46 N -3.088687 -1.726604 -6.311265 0
M  V30 47 C -2.298418 -4.145018 -7.630879 0
M  V30 48 C -2.490213 -5.492573 -6.968929 0
M  V30 49 H -0.507231 -8.237400 -4.006775 0
M  V30 50 H 0.241192 -6.636155 -3.970507 0
M  V30 51 H -1.244519 -6.887671 -2.986913 0
M  V30 52 H 0.155433 -4.788766 -4.929463 0
M  V30 53 H 0.761615 -5.771938 -6.369901 0
M  V30 54 H 0.203588 -4.121514 -7.889186 0
M  V30 55 H 0.730869 -3.220482 -6.464871 0
M  V30 56 H 0.103108 -1.822883 -5.137098 0
M  V30 57 H -0.651278 0.118009 -3.960722 0
M  V30 58 H -4.097224 1.553845 -4.261809 0
M  V30 59 H -0.108028 3.947706 -2.003975 0
M  V30 60 H -1.394163 -2.225925 0.015720 0
M  V30 61 H -2.825495 -1.149375 0.194955 0
M  V30 62 H -2.117981 -1.421599 -1.434481 0
M  V30 63 H 0.307494 1.751801 3.663413 0
M  V30 64 H 2.834837 1.316587 6.455963 0
M  V30 65 H -1.141007 3.021180 7.864582 0
M  V30 66 H -1.308530 3.438707 10.238191 0
M  V30 67 H 0.474859 2.966415 11.768796 0
M  V30 68 H 2.811198 1.563665 8.463494 0
M  V30 69 H 4.234446 0.596983 4.736816 0
M  V30 70 H 4.714817 0.073872 2.460222 0
M  V30 71 H 2.276246 0.330522 -0.339006 0
M  V30 72 H 3.883253 1.044277 0.017047 0
M  V30 73 H 3.643411 -0.702679 0.324939 0
M  V30 74 H 1.478852 2.657621 -0.244367 0
M  V30 75 H 0.039836 3.172051 0.768991 0
M  V30 76 H -4.548643 -0.229672 -5.746127 0
M  V30 77 H -1.887555 -4.276950 -8.634391 0
M  V30 78 H -3.298129 -3.645389 -7.648576 0
M  V30 79 H -2.450021 -6.265144 -7.752767 0
M  V30 80 H -3.449212 -5.524018 -6.399369 0
M  V30 END ATOM
M  V30 BEGIN BOND
M  V30 1 1 1 2
M  V30 2 2 2 3
M  V30 3 1 2 4
M  V30 4 1 4 5
M  V30 5 1 5 6
M  V30 6 1 6 7
M  V30 7 1 7 8
M  V30 8 2 8 9
M  V30 9 1 9 10
M  V30 10 2 10 11
M  V30 11 1 11 12
M  V30 12 1 12 13
M  V30 13 2 13 14
M  V30 14 1 14 15
M  V30 15 2 15 16
M  V30 16 1 16 17
M  V30 17 2 17 18
M  V30 18 1 17 19
M  V30 19 1 19 20
M  V30 20 1 19 21
M  V30 21 2 21 22
M  V30 22 1 21 23
M  V30 23 1 23 24
M  V30 24 2 24 25
M  V30 25 1 25 26
M  V30 26 1 26 27
M  V30 27 1 27 28
M  V30 28 2 28 29
M  V30 29 1 28 30
M  V30 30 2 30 31
M  V30 31 1 31 32
M  V30 32 2 32 33
M  V30 33 1 33 34
M  V30 34 1 34 35
M  V30 35 1 35 36
M  V30 36 1 35 37
M  V30 37 1 35 38
M  V30 38 2 34 39
M  V30 39 2 26 40
M  V30 40 1 40 41
M  V30 41 2 41 42
M  V30 42 1 42 43
M  V30 43 1 23 44
M  V30 44 1 11 45
M  V30 45 2 45 46
M  V30 46 1 7 47
M  V30 47 1 47 48
M  V30 48 1 48 4
M  V30 49 1 46 8
M  V30 50 1 18 13
M  V30 51 1 42 24
M  V30 52 1 44 16
M  V30 53 1 39 30
M  V30 54 1 1 49
M  V30 55 1 1 50
M  V30 56 1 1 51
M  V30 57 1 5 52
M  V30 58 1 5 53
M  V30 59 1 6 54
M  V30 60 1 6 55
M  V30 61 1 9 56
M  V30 62 1 10 57
M  V30 63 1 12 58
M  V30 64 1 15 59
M  V30 65 1 20 60
M  V30 66 1 20 61
M  V30 67 1 20 62
M  V30 68 1 25 63
M  V30 69 1 27 64
M  V30 70 1 31 65
M  V30 71 1 32 66
M  V30 72 1 33 67
M  V30 73 1 39 68
M  V30 74 1 40 69
M  V30 75 1 41 70
M  V30 76 1 43 71
M  V30 77 1 43 72
M  V30 78 1 43 73
M  V30 79 1 44 74
M  V30 80 1 44 75
M  V30 81 1 45 76
M  V30 82 1 47 77
M  V30 83 1 47 78
M  V30 84 1 48 79
M  V30 85 1 48 80
M  V30 END BOND
M  V30 END CTAB
M  END
>  <Dataset>  (366) 
ChEMBL_Kinases

>  <Ligand_Instance>  (366) 
nan

>  <PDB_ID>  (366) 
nan

>  <Standardized_SMILES>  (366) 
CC(=O)N1CCN(c2ccc(Nc3ncc4c(n3)N(C)C(=O)N(c3cc(NC(=O)c5cccc(C(F)(F)F)c5)ccc3C)C4)cn2)CC1

>  <Name>  (366) 
nan

>  <Pocket>  (366) 
nan

>  <ATP_Site>  (366) 
nan

>  <Peripheral>  (366) 
nan

>  <Num_H_Atoms_ProtBoundConf>  (366) 
nan

>  <Num_Resolved_Atoms>  (366) 
nan

>  <Num_Not_Resolved_Atoms>  (366) 
nan

$$$$
CHEMBL4214237
     RDKit          3D

  0  0  0  0  0  0  0  0  0  0999 V3000
M  V30 BEGIN CTAB
M  V30 COUNTS 65 69 0 0 0
M  V30 BEGIN ATOM
M  V30 1 O 1.684519 -0.299138 1.063271 0
M  V30 2 C 2.301482 -0.372243 2.151070 0
M  V30 3 C 3.224221 -1.496554 2.036957 0
M  V30 4 N 3.208698 -2.180888 0.807647 0
M  V30 5 C 3.680822 -1.522561 -0.336430 0
M  V30 6 C 2.789740 -1.445882 -1.509323 0
M  V30 7 N 1.570139 -2.141901 -1.469826 0
M  V30 8 C 0.491718 -1.579272 -2.198144 0
M  V30 9 C 0.640606 -1.603958 -3.690535 0
M  V30 10 O 1.773512 -0.898430 -4.077851 0
M  V30 11 C 1.259799 -2.957849 -0.380035 0
M  V30 12 C 2.328759 -3.249427 0.605509 0
M  V30 13 N 2.072019 0.516198 3.224055 0
M  V30 14 C 1.149534 1.582329 3.241664 0
M  V30 15 C 0.280842 1.977060 2.252362 0
M  V30 16 C -0.606808 3.040392 2.327423 0
M  V30 17 N -1.467231 3.298518 1.198938 0
M  V30 18 C -2.067415 2.192548 0.524460 0
M  V30 19 N -1.937816 0.968220 1.058538 0
M  V30 20 C -2.487596 -0.083842 0.439433 0
M  V30 21 C -2.323764 -1.391035 1.065749 0
M  V30 22 C -1.627978 -1.530303 2.266476 0
M  V30 23 C -1.440735 -2.733555 2.913948 0
M  V30 24 C -1.969259 -3.872418 2.347289 0
M  V30 25 C -2.656719 -3.733095 1.160020 0
M  V30 26 C -3.197684 -5.008038 0.597051 0
M  V30 27 F -3.972487 -4.756742 -0.498553 0
M  V30 28 F -2.149253 -5.865546 0.301335 0
M  V30 29 F -3.991884 -5.667540 1.530253 0
M  V30 30 N -2.808978 -2.551066 0.577288 0
M  V30 31 N -3.170887 0.028353 -0.703900 0
M  V30 32 N -3.324999 1.221006 -1.269341 0
M  V30 33 C -3.942387 1.642292 -2.391344 0
M  V30 34 C -3.767039 3.003450 -2.466331 0
M  V30 35 C -3.027098 3.451738 -1.375877 0
M  V30 36 C -2.772948 2.297329 -0.653932 0
M  V30 37 C -0.613388 3.768038 3.507861 0
M  V30 38 C 0.261603 3.361337 4.490152 0
M  V30 39 N 1.101889 2.319671 4.364143 0
M  V30 40 H 3.047776 -2.220715 2.867647 0
M  V30 41 H 4.265307 -1.117414 2.226819 0
M  V30 42 H 4.651279 -2.021342 -0.620261 0
M  V30 43 H 4.002792 -0.480412 -0.062006 0
M  V30 44 H 2.554714 -0.371783 -1.763714 0
M  V30 45 H 3.339952 -1.790583 -2.430739 0
M  V30 46 H -0.437522 -2.120026 -1.913160 0
M  V30 47 H 0.348287 -0.531075 -1.862499 0
M  V30 48 H -0.236324 -1.040753 -4.103743 0
M  V30 49 H 0.605091 -2.620276 -4.091347 0
M  V30 50 H 1.546250 0.068727 -3.997833 0
M  V30 51 H 0.914950 -3.954742 -0.786383 0
M  V30 52 H 0.357444 -2.555607 0.150885 0
M  V30 53 H 1.903613 -3.640007 1.552060 0
M  V30 54 H 2.931772 -4.116403 0.200943 0
M  V30 55 H 2.682060 0.284498 4.021928 0
M  V30 56 H 0.299317 1.429296 1.346899 0
M  V30 57 H -1.692655 4.253400 0.820528 0
M  V30 58 H -1.198179 -0.660838 2.754869 0
M  V30 59 H -0.888229 -2.779015 3.857679 0
M  V30 60 H -1.811689 -4.822456 2.872001 0
M  V30 61 H -4.456066 0.931800 -3.043058 0
M  V30 62 H -4.173487 3.575504 -3.276597 0
M  V30 63 H -2.733285 4.468525 -1.160304 0
M  V30 64 H -1.290076 4.597491 3.584976 0
M  V30 65 H 0.290293 3.899201 5.427730 0
M  V30 END ATOM
M  V30 BEGIN BOND
M  V30 1 2 1 2
M  V30 2 1 2 3
M  V30 3 1 3 4
M  V30 4 1 4 5
M  V30 5 1 5 6
M  V30 6 1 6 7
M  V30 7 1 7 8
M  V30 8 1 8 9
M  V30 9 1 9 10
M  V30 10 1 7 11
M  V30 11 1 11 12
M  V30 12 1 2 13
M  V30 13 1 13 14
M  V30 14 2 14 15
M  V30 15 1 15 16
M  V30 16 1 16 17
M  V30 17 1 17 18
M  V30 18 2 18 19
M  V30 19 1 19 20
M  V30 20 1 20 21
M  V30 21 2 21 22
M  V30 22 1 22 23
M  V30 23 2 23 24
M  V30 24 1 24 25
M  V30 25 1 25 26
M  V30 26 1 26 27
M  V30 27 1 26 28
M  V30 28 1 26 29
M  V30 29 2 25 30
M  V30 30 2 20 31
M  V30 31 1 31 32
M  V30 32 1 32 33
M  V30 33 2 33 34
M  V30 34 1 34 35
M  V30 35 2 35 36
M  V30 36 2 16 37
M  V30 37 1 37 38
M  V30 38 2 38 39
M  V30 39 1 12 4
M  V30 40 1 39 14
M  V30 41 1 36 18
M  V30 42 1 30 21
M  V30 43 1 36 32
M  V30 44 1 3 40
M  V30 45 1 3 41
M  V30 46 1 5 42
M  V30 47 1 5 43
M  V30 48 1 6 44
M  V30 49 1 6 45
M  V30 50 1 8 46
M  V30 51 1 8 47
M  V30 52 1 9 48
M  V30 53 1 9 49
M  V30 54 1 10 50
M  V30 55 1 11 51
M  V30 56 1 11 52
M  V30 57 1 12 53
M  V30 58 1 12 54
M  V30 59 1 13 55
M  V30 60 1 15 56
M  V30 61 1 17 57
M  V30 62 1 22 58
M  V30 63 1 23 59
M  V30 64 1 24 60
M  V30 65 1 33 61
M  V30 66 1 34 62
M  V30 67 1 35 63
M  V30 68 1 37 64
M  V30 69 1 38 65
M  V30 END BOND
M  V30 END CTAB
M  END
>  <Dataset>  (367) 
ChEMBL_Kinases

>  <Ligand_Instance>  (367) 
nan

>  <PDB_ID>  (367) 
nan

>  <Standardized_SMILES>  (367) 
O=C(CN1CCN(CCO)CC1)Nc1cc(Nc2nc(-c3cccc(C(F)(F)F)n3)nn3cccc23)ccn1

>  <Name>  (367) 
nan

>  <Pocket>  (367) 
nan

>  <ATP_Site>  (367) 
nan

>  <Peripheral>  (367) 
nan

>  <Num_H_Atoms_ProtBoundConf>  (367) 
nan

>  <Num_Resolved_Atoms>  (367) 
nan

>  <Num_Not_Resolved_Atoms>  (367) 
nan

$$$$
CHEMBL4214215
     RDKit          3D

  0  0  0  0  0  0  0  0  0  0999 V3000
M  V30 BEGIN CTAB
M  V30 COUNTS 36 38 0 0 0
M  V30 BEGIN ATOM
M  V30 1 O -1.125869 -2.653677 -0.211804 0
M  V30 2 C -0.540246 -2.106305 0.751339 0
M  V30 3 C 0.001400 -2.824356 1.974219 0
M  V30 4 C 1.267495 -3.532476 1.636046 0
M  V30 5 C 2.403387 -2.753882 1.928213 0
M  V30 6 C 3.690782 -3.190724 1.685439 0
M  V30 7 C 3.798962 -4.447119 1.134378 0
M  V30 8 N 5.118612 -4.938851 0.886047 0 CHG=1 VAL=4
M  V30 9 O 6.147885 -4.298516 1.093283 0
M  V30 10 O 5.605292 -6.107034 0.401636 0 CHG=-1 VAL=1
M  V30 11 C 2.718215 -5.242734 0.833093 0
M  V30 12 C 1.417709 -4.783141 1.085971 0
M  V30 13 N -0.407039 -0.704850 0.622588 0
M  V30 14 N -0.520287 0.550781 0.058766 0
M  V30 15 C -1.488005 1.344447 0.164148 0
M  V30 16 C -2.729454 1.184969 0.880257 0
M  V30 17 O -2.966918 0.137117 1.521102 0
M  V30 18 N -3.458652 2.380403 0.661718 0
M  V30 19 C -2.725324 3.286566 -0.169293 0
M  V30 20 C -2.955326 4.571092 -0.693441 0
M  V30 21 C -1.952792 5.093807 -1.467341 0
M  V30 22 Br -2.211838 6.857403 -2.204135 0
M  V30 23 C -0.756667 4.525084 -1.795471 0
M  V30 24 C -0.521437 3.265122 -1.289062 0
M  V30 25 C -1.510162 2.669653 -0.485536 0
M  V30 26 H -0.765625 -3.534878 2.357287 0
M  V30 27 H 0.137037 -2.056982 2.754197 0
M  V30 28 H 2.346678 -1.742429 2.375415 0
M  V30 29 H 4.559177 -2.595719 1.909898 0
M  V30 30 H 2.851900 -6.235540 0.381582 0
M  V30 31 H 0.526578 -5.325861 0.883468 0
M  V30 32 H 0.116400 -0.264290 1.455209 0
M  V30 33 H -4.392270 2.561843 1.055795 0
M  V30 34 H -3.877620 5.047353 -0.455183 0
M  V30 35 H 0.003090 4.960774 -2.407256 0
M  V30 36 H 0.408600 2.776076 -1.517585 0
M  V30 END ATOM
M  V30 BEGIN BOND
M  V30 1 2 1 2
M  V30 2 1 2 3
M  V30 3 1 3 4
M  V30 4 2 4 5
M  V30 5 1 5 6
M  V30 6 2 6 7
M  V30 7 1 7 8
M  V30 8 2 8 9
M  V30 9 1 8 10
M  V30 10 1 7 11
M  V30 11 2 11 12
M  V30 12 1 2 13
M  V30 13 1 13 14
M  V30 14 2 14 15
M  V30 15 1 15 16
M  V30 16 2 16 17
M  V30 17 1 16 18
M  V30 18 1 18 19
M  V30 19 2 19 20
M  V30 20 1 20 21
M  V30 21 1 21 22
M  V30 22 2 21 23
M  V30 23 1 23 24
M  V30 24 2 24 25
M  V30 25 1 12 4
M  V30 26 1 25 15
M  V30 27 1 25 19
M  V30 28 1 3 26
M  V30 29 1 3 27
M  V30 30 1 5 28
M  V30 31 1 6 29
M  V30 32 1 11 30
M  V30 33 1 12 31
M  V30 34 1 13 32
M  V30 35 1 18 33
M  V30 36 1 20 34
M  V30 37 1 23 35
M  V30 38 1 24 36
M  V30 END BOND
M  V30 END CTAB
M  END
>  <Dataset>  (368) 
ChEMBL_Kinases

>  <Ligand_Instance>  (368) 
nan

>  <PDB_ID>  (368) 
nan

>  <Standardized_SMILES>  (368) 
O=C(Cc1ccc([N+](=O)[O-])cc1)N/N=C1\C(=O)Nc2cc(Br)ccc21

>  <Name>  (368) 
nan

>  <Pocket>  (368) 
nan

>  <ATP_Site>  (368) 
nan

>  <Peripheral>  (368) 
nan

>  <Num_H_Atoms_ProtBoundConf>  (368) 
nan

>  <Num_Resolved_Atoms>  (368) 
nan

>  <Num_Not_Resolved_Atoms>  (368) 
nan

$$$$
CHEMBL4214032
     RDKit          3D

  0  0  0  0  0  0  0  0  0  0999 V3000
M  V30 BEGIN CTAB
M  V30 COUNTS 45 47 0 0 0
M  V30 BEGIN ATOM
M  V30 1 C 7.066021 -2.113760 -0.685341 0
M  V30 2 O 6.191803 -2.399186 -1.761922 0
M  V30 3 C 4.859485 -2.036990 -1.608997 0
M  V30 4 C 3.965634 -2.295685 -2.635175 0
M  V30 5 C 2.614685 -1.969820 -2.573258 0
M  V30 6 C 1.720233 -2.266507 -3.685183 0
M  V30 7 N 0.370978 -1.898958 -3.528634 0
M  V30 8 O 2.155676 -2.824744 -4.724799 0
M  V30 9 N 2.214827 -1.372293 -1.427544 0
M  V30 10 C 3.049753 -1.103081 -0.406980 0
M  V30 11 C 2.534161 -0.452214 0.801200 0
M  V30 12 C 3.419643 -0.191220 1.828325 0
M  V30 13 C 2.886267 0.423620 2.946569 0
M  V30 14 C 1.548679 0.762166 3.043649 0
M  V30 15 C 0.734352 0.463805 1.967816 0
M  V30 16 C -0.673578 0.806054 2.038317 0
M  V30 17 C -1.854510 1.077643 2.109946 0
M  V30 18 C -3.270161 1.393301 2.217717 0 CFG=2
M  V30 19 O -3.631210 2.502711 1.466894 0
M  V30 20 C -3.605659 1.513067 3.666398 0
M  V30 21 C -5.028152 0.971523 3.736760 0
M  V30 22 N -5.006826 -0.166761 2.810650 0
M  V30 23 C -5.646047 -1.472315 2.783200 0
M  V30 24 C -4.128688 0.259458 1.775889 0
M  V30 25 O -3.964204 -0.155613 0.579008 0
M  V30 26 C 1.182436 -0.154324 0.799800 0
M  V30 27 N 4.347090 -1.441320 -0.523379 0
M  V30 28 H 7.612417 -1.158665 -0.835081 0
M  V30 29 H 7.803854 -2.948647 -0.663645 0
M  V30 30 H 6.501794 -2.026553 0.255182 0
M  V30 31 H 4.280427 -2.781602 -3.572023 0
M  V30 32 H 0.396710 -0.854450 -3.648142 0
M  V30 33 H -0.341888 -1.138749 -3.508643 0
M  V30 34 H 4.465217 -0.461141 1.740549 0
M  V30 35 H 3.533063 0.654102 3.786434 0
M  V30 36 H 1.128823 1.246099 3.923762 0
M  V30 37 H -4.133967 2.235599 0.661095 0
M  V30 38 H -3.674539 2.583932 3.928740 0
M  V30 39 H -2.912998 0.942558 4.283909 0
M  V30 40 H -5.232021 0.560910 4.748325 0
M  V30 41 H -5.752731 1.719797 3.399544 0
M  V30 42 H -4.869359 -2.236235 2.920932 0
M  V30 43 H -6.114789 -1.680428 1.784373 0
M  V30 44 H -6.457041 -1.507606 3.530507 0
M  V30 45 H 0.543174 -0.380482 -0.026599 0
M  V30 END ATOM
M  V30 BEGIN BOND
M  V30 1 1 1 2
M  V30 2 1 2 3
M  V30 3 2 3 4
M  V30 4 1 4 5
M  V30 5 1 5 6
M  V30 6 1 6 7
M  V30 7 2 6 8
M  V30 8 2 5 9
M  V30 9 1 9 10
M  V30 10 1 10 11
M  V30 11 2 11 12
M  V30 12 1 12 13
M  V30 13 2 13 14
M  V30 14 1 14 15
M  V30 15 1 15 16
M  V30 16 3 16 17
M  V30 17 1 18 17 CFG=1
M  V30 18 1 18 19
M  V30 19 1 18 20
M  V30 20 1 20 21
M  V30 21 1 21 22
M  V30 22 1 22 23
M  V30 23 1 22 24
M  V30 24 2 24 25
M  V30 25 2 15 26
M  V30 26 2 10 27
M  V30 27 1 27 3
M  V30 28 1 26 11
M  V30 29 1 24 18
M  V30 30 1 1 28
M  V30 31 1 1 29
M  V30 32 1 1 30
M  V30 33 1 4 31
M  V30 34 1 7 32
M  V30 35 1 7 33
M  V30 36 1 12 34
M  V30 37 1 13 35
M  V30 38 1 14 36
M  V30 39 1 19 37
M  V30 40 1 20 38
M  V30 41 1 20 39
M  V30 42 1 21 40
M  V30 43 1 21 41
M  V30 44 1 23 42
M  V30 45 1 23 43
M  V30 46 1 23 44
M  V30 47 1 26 45
M  V30 END BOND
M  V30 END CTAB
M  END
>  <Dataset>  (369) 
ChEMBL_Kinases

>  <Ligand_Instance>  (369) 
nan

>  <PDB_ID>  (369) 
nan

>  <Standardized_SMILES>  (369) 
COc1cc(C(N)=O)nc(-c2cccc(C#C[C@]3(O)CCN(C)C3=O)c2)n1

>  <Name>  (369) 
nan

>  <Pocket>  (369) 
nan

>  <ATP_Site>  (369) 
nan

>  <Peripheral>  (369) 
nan

>  <Num_H_Atoms_ProtBoundConf>  (369) 
nan

>  <Num_Resolved_Atoms>  (369) 
nan

>  <Num_Not_Resolved_Atoms>  (369) 
nan

$$$$
CHEMBL4779077
     RDKit          3D

  0  0  0  0  0  0  0  0  0  0999 V3000
M  V30 BEGIN CTAB
M  V30 COUNTS 45 48 0 0 0
M  V30 BEGIN ATOM
M  V30 1 O -0.315572 -3.783616 0.661574 0
M  V30 2 C -1.030115 -2.742267 0.641791 0
M  V30 3 N -0.317557 -1.515088 0.746057 0
M  V30 4 C 1.095148 -1.324062 0.869119 0
M  V30 5 C 1.618467 -0.581303 -0.340742 0
M  V30 6 C 1.189884 0.871110 -0.332424 0
M  V30 7 N 1.874177 1.427406 0.859835 0
M  V30 8 C 2.953413 2.309785 0.610143 0
M  V30 9 N 3.011642 2.885129 -0.616787 0
M  V30 10 C 3.963689 3.766196 -0.952758 0
M  V30 11 N 4.917088 4.123828 -0.076471 0
M  V30 12 C 4.937846 3.602765 1.163143 0
M  V30 13 N 5.748293 3.757266 2.220954 0
M  V30 14 N 5.270774 2.958351 3.189581 0
M  V30 15 C 4.189335 2.322480 2.745095 0
M  V30 16 C 3.937186 2.703194 1.455004 0
M  V30 17 C 1.193472 0.898354 2.017063 0
M  V30 18 C 1.519430 -0.582909 2.114572 0
M  V30 19 C -2.485198 -2.780261 0.520964 0
M  V30 20 C -3.318436 -1.680164 0.493648 0
M  V30 21 C -4.687136 -1.808517 0.376538 0
M  V30 22 C -5.225230 -3.082144 0.284842 0
M  V30 23 C -4.442422 -4.225819 0.306393 0
M  V30 24 C -5.051443 -5.578818 0.205917 0
M  V30 25 F -5.573341 -6.016112 1.395097 0
M  V30 26 F -5.971229 -5.655475 -0.834640 0
M  V30 27 F -4.040273 -6.465873 -0.136715 0
M  V30 28 C -3.076000 -4.032776 0.425731 0
M  V30 29 H -0.815834 -0.598827 0.739355 0
M  V30 30 H 1.643304 -2.295020 0.877908 0
M  V30 31 H 1.294279 -1.060817 -1.284729 0
M  V30 32 H 2.721647 -0.604484 -0.247168 0
M  V30 33 H 0.116503 1.033475 -0.273435 0
M  V30 34 H 1.547481 1.347895 -1.260626 0
M  V30 35 H 3.904971 4.159827 -1.967451 0
M  V30 36 H 6.587351 4.392263 2.247831 0
M  V30 37 H 3.645922 1.623084 3.347572 0
M  V30 38 H 1.417329 1.376746 2.967643 0
M  V30 39 H 0.074186 0.927809 1.812232 0
M  V30 40 H 2.627305 -0.658172 2.157532 0
M  V30 41 H 1.119880 -1.017239 3.031170 0
M  V30 42 H -2.846248 -0.710433 0.568593 0
M  V30 43 H -5.310224 -0.923341 0.358445 0
M  V30 44 H -6.311302 -3.207097 0.191050 0
M  V30 45 H -2.473609 -4.929334 0.441700 0
M  V30 END ATOM
M  V30 BEGIN BOND
M  V30 1 2 1 2
M  V30 2 1 2 3
M  V30 3 1 3 4
M  V30 4 1 4 5
M  V30 5 1 5 6
M  V30 6 1 6 7
M  V30 7 1 7 8
M  V30 8 2 8 9
M  V30 9 1 9 10
M  V30 10 2 10 11
M  V30 11 1 11 12
M  V30 12 1 12 13
M  V30 13 1 13 14
M  V30 14 2 14 15
M  V30 15 1 15 16
M  V30 16 1 7 17
M  V30 17 1 17 18
M  V30 18 1 2 19
M  V30 19 2 19 20
M  V30 20 1 20 21
M  V30 21 2 21 22
M  V30 22 1 22 23
M  V30 23 1 23 24
M  V30 24 1 24 25
M  V30 25 1 24 26
M  V30 26 1 24 27
M  V30 27 2 23 28
M  V30 28 1 18 4
M  V30 29 1 28 19
M  V30 30 1 16 8
M  V30 31 2 16 12
M  V30 32 1 3 29
M  V30 33 1 4 30
M  V30 34 1 5 31
M  V30 35 1 5 32
M  V30 36 1 6 33
M  V30 37 1 6 34
M  V30 38 1 10 35
M  V30 39 1 13 36
M  V30 40 1 15 37
M  V30 41 1 17 38
M  V30 42 1 17 39
M  V30 43 1 18 40
M  V30 44 1 18 41
M  V30 45 1 20 42
M  V30 46 1 21 43
M  V30 47 1 22 44
M  V30 48 1 28 45
M  V30 END BOND
M  V30 END CTAB
M  END
>  <Dataset>  (370) 
ChEMBL_Kinases

>  <Ligand_Instance>  (370) 
nan

>  <PDB_ID>  (370) 
nan

>  <Standardized_SMILES>  (370) 
O=C(NC1CCN(c2ncnc3[nH]ncc23)CC1)c1cccc(C(F)(F)F)c1

>  <Name>  (370) 
nan

>  <Pocket>  (370) 
nan

>  <ATP_Site>  (370) 
nan

>  <Peripheral>  (370) 
nan

>  <Num_H_Atoms_ProtBoundConf>  (370) 
nan

>  <Num_Resolved_Atoms>  (370) 
nan

>  <Num_Not_Resolved_Atoms>  (370) 
nan

$$$$
CHEMBL4779114
     RDKit          3D

  0  0  0  0  0  0  0  0  0  0999 V3000
M  V30 BEGIN CTAB
M  V30 COUNTS 63 67 0 0 0
M  V30 BEGIN ATOM
M  V30 1 O 4.266367 2.860035 3.352685 0
M  V30 2 S 3.766047 1.445290 3.375416 0
M  V30 3 O 4.539611 0.769102 4.501180 0
M  V30 4 N 4.222541 0.610403 1.934368 0
M  V30 5 C 3.574371 1.195637 0.765736 0
M  V30 6 C 4.028881 0.417005 -0.451311 0
M  V30 7 N 3.435357 0.902248 -1.661463 0
M  V30 8 C 2.049450 0.759127 -1.973888 0
M  V30 9 C 1.180754 0.026833 -1.218756 0
M  V30 10 C -0.172527 -0.148797 -1.448916 0
M  V30 11 C -1.055909 -0.945685 -0.627782 0
M  V30 12 N -1.492509 -1.008347 0.641588 0
M  V30 13 C -2.348493 -2.034415 0.800270 0
M  V30 14 C -3.008007 -2.395660 2.049115 0
M  V30 15 C -3.874970 -3.465395 2.113273 0
M  V30 16 C -4.526523 -3.852821 3.278212 0
M  V30 17 C -4.256429 -3.096219 4.393326 0
M  V30 18 C -3.396956 -2.004413 4.413378 0
M  V30 19 C -2.783679 -1.681260 3.206016 0
M  V30 20 N -2.458773 -2.637403 -0.394279 0
M  V30 21 C -1.666360 -1.981704 -1.299928 0
M  V30 22 C -1.657230 -2.499314 -2.661846 0
M  V30 23 C -2.879187 -2.467135 -3.312029 0
M  V30 24 C -2.919401 -2.955524 -4.624665 0
M  V30 25 C -1.757373 -3.437463 -5.197374 0
M  V30 26 C -0.562232 -3.448816 -4.508618 0
M  V30 27 O 0.528325 -3.958907 -5.198034 0
M  V30 28 C -0.489197 -2.975546 -3.216022 0
M  V30 29 C -0.680789 0.503112 -2.580502 0
M  V30 30 C 0.204975 1.241767 -3.338677 0
M  V30 31 N 1.509434 1.361986 -3.046145 0
M  V30 32 C 2.051200 1.365092 3.687510 0
M  V30 33 C 1.324395 0.452954 4.419342 0
M  V30 34 C -0.038359 0.626467 4.507477 0
M  V30 35 C -0.705289 1.665818 3.899855 0
M  V30 36 O -2.101005 1.713767 4.078558 0
M  V30 37 C 0.001568 2.580243 3.168995 0
M  V30 38 C 1.372343 2.423005 3.068480 0
M  V30 39 H 4.049636 -0.405010 2.017310 0
M  V30 40 H 2.485874 1.286486 0.865244 0
M  V30 41 H 3.987503 2.238967 0.714618 0
M  V30 42 H 5.128174 0.534869 -0.524034 0
M  V30 43 H 3.847461 -0.663148 -0.267430 0
M  V30 44 H 4.026614 1.394773 -2.377576 0
M  V30 45 H 1.517146 -0.502618 -0.339020 0
M  V30 46 H -1.130721 -0.292877 1.305807 0
M  V30 47 H -4.062098 -4.030331 1.229288 0
M  V30 48 H -5.203275 -4.695630 3.305826 0
M  V30 49 H -4.771237 -3.402424 5.313849 0
M  V30 50 H -3.204740 -1.430589 5.304414 0
M  V30 51 H -2.099777 -0.854325 3.110166 0
M  V30 52 H -3.783263 -2.086573 -2.854023 0
M  V30 53 H -3.852475 -2.958687 -5.193589 0
M  V30 54 H -1.844107 -3.802459 -6.210897 0
M  V30 55 H 1.455811 -4.073173 -4.846573 0
M  V30 56 H 0.453897 -2.990746 -2.692784 0
M  V30 57 H -1.726367 0.417271 -2.829080 0
M  V30 58 H -0.192649 1.746187 -4.215689 0
M  V30 59 H 1.947605 -0.306441 4.841581 0
M  V30 60 H -0.553170 -0.122438 5.095995 0
M  V30 61 H -2.626350 1.543521 3.207060 0
M  V30 62 H -0.552175 3.377138 2.709553 0
M  V30 63 H 1.822797 3.220622 2.455730 0
M  V30 END ATOM
M  V30 BEGIN BOND
M  V30 1 2 1 2
M  V30 2 2 2 3
M  V30 3 1 2 4
M  V30 4 1 4 5
M  V30 5 1 5 6
M  V30 6 1 6 7
M  V30 7 1 7 8
M  V30 8 2 8 9
M  V30 9 1 9 10
M  V30 10 1 10 11
M  V30 11 1 11 12
M  V30 12 1 12 13
M  V30 13 1 13 14
M  V30 14 2 14 15
M  V30 15 1 15 16
M  V30 16 2 16 17
M  V30 17 1 17 18
M  V30 18 2 18 19
M  V30 19 2 13 20
M  V30 20 1 20 21
M  V30 21 1 21 22
M  V30 22 2 22 23
M  V30 23 1 23 24
M  V30 24 2 24 25
M  V30 25 1 25 26
M  V30 26 1 26 27
M  V30 27 2 26 28
M  V30 28 2 10 29
M  V30 29 1 29 30
M  V30 30 2 30 31
M  V30 31 1 2 32
M  V30 32 2 32 33
M  V30 33 1 33 34
M  V30 34 2 34 35
M  V30 35 1 35 36
M  V30 36 1 35 37
M  V30 37 2 37 38
M  V30 38 1 31 8
M  V30 39 1 38 32
M  V30 40 2 21 11
M  V30 41 1 28 22
M  V30 42 1 19 14
M  V30 43 1 4 39
M  V30 44 1 5 40
M  V30 45 1 5 41
M  V30 46 1 6 42
M  V30 47 1 6 43
M  V30 48 1 7 44
M  V30 49 1 9 45
M  V30 50 1 12 46
M  V30 51 1 15 47
M  V30 52 1 16 48
M  V30 53 1 17 49
M  V30 54 1 18 50
M  V30 55 1 19 51
M  V30 56 1 23 52
M  V30 57 1 24 53
M  V30 58 1 25 54
M  V30 59 1 27 55
M  V30 60 1 28 56
M  V30 61 1 29 57
M  V30 62 1 30 58
M  V30 63 1 33 59
M  V30 64 1 34 60
M  V30 65 1 36 61
M  V30 66 1 37 62
M  V30 67 1 38 63
M  V30 END BOND
M  V30 END CTAB
M  END
>  <Dataset>  (371) 
ChEMBL_Kinases

>  <Ligand_Instance>  (371) 
nan

>  <PDB_ID>  (371) 
nan

>  <Standardized_SMILES>  (371) 
O=S(=O)(NCCNc1cc(-c2[nH]c(-c3ccccc3)nc2-c2cccc(O)c2)ccn1)c1ccc(O)cc1

>  <Name>  (371) 
nan

>  <Pocket>  (371) 
nan

>  <ATP_Site>  (371) 
nan

>  <Peripheral>  (371) 
nan

>  <Num_H_Atoms_ProtBoundConf>  (371) 
nan

>  <Num_Resolved_Atoms>  (371) 
nan

>  <Num_Not_Resolved_Atoms>  (371) 
nan

$$$$
CHEMBL4779121
     RDKit          3D

  0  0  0  0  0  0  0  0  0  0999 V3000
M  V30 BEGIN CTAB
M  V30 COUNTS 55 59 0 0 0
M  V30 BEGIN ATOM
M  V30 1 O 0.595524 0.889902 1.487009 0
M  V30 2 C 1.274250 0.870176 0.422262 0
M  V30 3 C 2.440476 0.822502 -0.451312 0
M  V30 4 C 3.775891 0.717868 0.177607 0
M  V30 5 N 4.074953 -0.433744 0.943148 0
M  V30 6 C 3.397240 -0.633694 2.178050 0
M  V30 7 C 3.564977 0.584076 3.065537 0
M  V30 8 O 4.917154 0.837524 3.296340 0
M  V30 9 C 5.723639 0.765641 2.193514 0
M  V30 10 C 5.506340 -0.410704 1.301880 0
M  V30 11 N 0.126511 0.943770 -0.468066 0
M  V30 12 C -1.237256 1.008339 0.004795 0
M  V30 13 C -1.725004 2.306995 0.202181 0
M  V30 14 C -3.008436 2.525277 0.651039 0
M  V30 15 C -3.855795 1.475452 0.920654 0
M  V30 16 C -3.366012 0.213115 0.721978 0
M  V30 17 C -2.105103 -0.022635 0.282020 0
M  V30 18 C -4.398940 -0.704643 1.075834 0
M  V30 19 C -4.334821 -1.997381 0.965258 0
M  V30 20 C -3.311957 -2.896999 0.486008 0
M  V30 21 C -2.767286 -3.864319 1.344674 0
M  V30 22 N -1.879181 -4.660418 0.725864 0
M  V30 23 C -1.788454 -4.270559 -0.556607 0
M  V30 24 C -1.092521 -4.653297 -1.684047 0
M  V30 25 C -1.249441 -4.002718 -2.913714 0
M  V30 26 C -2.145315 -2.929945 -2.988792 0
M  V30 27 C -2.871904 -2.497965 -1.896040 0
M  V30 28 C -2.647151 -3.209488 -0.712006 0
M  V30 29 C -5.555455 0.063099 1.508734 0
M  V30 30 O -6.654752 -0.397642 1.898397 0
M  V30 31 N -5.189045 1.428911 1.401400 0
M  V30 32 H 2.337634 -0.045074 -1.160741 0
M  V30 33 H 2.482178 1.708799 -1.150456 0
M  V30 34 H 3.932024 1.677586 0.748108 0
M  V30 35 H 4.593106 0.785169 -0.609759 0
M  V30 36 H 2.368916 -0.951902 2.158658 0
M  V30 37 H 3.975086 -1.453310 2.709098 0
M  V30 38 H 3.118097 0.323416 4.047939 0
M  V30 39 H 3.015336 1.444668 2.667735 0
M  V30 40 H 5.769150 1.707067 1.601956 0
M  V30 41 H 6.778394 0.651483 2.594348 0
M  V30 42 H 5.690749 -1.360685 1.845026 0
M  V30 43 H 6.137815 -0.320260 0.417458 0
M  V30 44 H -0.106440 0.971467 -1.516356 0
M  V30 45 H -1.162144 3.206441 0.027318 0
M  V30 46 H -3.405298 3.517124 0.810242 0
M  V30 47 H -1.561194 -0.922505 0.100413 0
M  V30 48 H -5.227828 -2.558502 1.292018 0
M  V30 49 H -2.992510 -4.015217 2.412822 0
M  V30 50 H -1.340936 -5.448944 1.141905 0
M  V30 51 H -0.411446 -5.502227 -1.539196 0
M  V30 52 H -0.673140 -4.350696 -3.764859 0
M  V30 53 H -2.241860 -2.444805 -3.971251 0
M  V30 54 H -3.552681 -1.675823 -1.972578 0
M  V30 55 H -5.791052 2.249298 1.633801 0
M  V30 END ATOM
M  V30 BEGIN BOND
M  V30 1 2 1 2
M  V30 2 1 2 3
M  V30 3 1 3 4
M  V30 4 1 4 5
M  V30 5 1 5 6
M  V30 6 1 6 7
M  V30 7 1 7 8
M  V30 8 1 8 9
M  V30 9 1 9 10
M  V30 10 1 2 11
M  V30 11 1 11 12
M  V30 12 2 12 13
M  V30 13 1 13 14
M  V30 14 2 14 15
M  V30 15 1 15 16
M  V30 16 2 16 17
M  V30 17 1 16 18
M  V30 18 2 18 19
M  V30 19 1 19 20
M  V30 20 2 20 21
M  V30 21 1 21 22
M  V30 22 1 22 23
M  V30 23 2 23 24
M  V30 24 1 24 25
M  V30 25 2 25 26
M  V30 26 1 26 27
M  V30 27 2 27 28
M  V30 28 1 18 29
M  V30 29 2 29 30
M  V30 30 1 29 31
M  V30 31 1 10 5
M  V30 32 1 17 12
M  V30 33 1 28 20
M  V30 34 1 31 15
M  V30 35 1 28 23
M  V30 36 1 3 32
M  V30 37 1 3 33
M  V30 38 1 4 34
M  V30 39 1 4 35
M  V30 40 1 6 36
M  V30 41 1 6 37
M  V30 42 1 7 38
M  V30 43 1 7 39
M  V30 44 1 9 40
M  V30 45 1 9 41
M  V30 46 1 10 42
M  V30 47 1 10 43
M  V30 48 1 11 44
M  V30 49 1 13 45
M  V30 50 1 14 46
M  V30 51 1 17 47
M  V30 52 1 19 48
M  V30 53 1 21 49
M  V30 54 1 22 50
M  V30 55 1 24 51
M  V30 56 1 25 52
M  V30 57 1 26 53
M  V30 58 1 27 54
M  V30 59 1 31 55
M  V30 END BOND
M  V30 END CTAB
M  END
>  <Dataset>  (372) 
ChEMBL_Kinases

>  <Ligand_Instance>  (372) 
nan

>  <PDB_ID>  (372) 
nan

>  <Standardized_SMILES>  (372) 
O=C(CCN1CCOCC1)Nc1ccc2c(c1)/C(=C\c1c[nH]c3ccccc13)C(=O)N2

>  <Name>  (372) 
nan

>  <Pocket>  (372) 
nan

>  <ATP_Site>  (372) 
nan

>  <Peripheral>  (372) 
nan

>  <Num_H_Atoms_ProtBoundConf>  (372) 
nan

>  <Num_Resolved_Atoms>  (372) 
nan

>  <Num_Not_Resolved_Atoms>  (372) 
nan

$$$$
CHEMBL4779139
     RDKit          3D

  0  0  0  0  0  0  0  0  0  0999 V3000
M  V30 BEGIN CTAB
M  V30 COUNTS 158 164 0 0 0
M  V30 BEGIN ATOM
M  V30 1 C 10.823635 -0.620259 0.704713 0
M  V30 2 C 10.287994 -0.221595 2.034218 0
M  V30 3 N 10.986842 -0.573151 3.073874 0
M  V30 4 C 10.551661 -0.245411 4.273880 0
M  V30 5 S 8.972520 0.664485 3.882642 0
M  V30 6 C 9.111731 0.479729 2.140575 0
M  V30 7 C 8.127277 1.004876 1.259627 0
M  V30 8 C 7.026873 1.650855 1.825505 0
M  V30 9 C 6.001540 2.209265 1.087640 0
M  V30 10 C 6.049541 2.135571 -0.285851 0
M  V30 11 C 5.049362 2.672323 -1.257454 0
M  V30 12 N 4.015322 1.709216 -1.576017 0
M  V30 13 C 2.880864 1.413272 -0.735048 0
M  V30 14 O 2.721377 2.005949 0.367519 0
M  V30 15 C 2.003542 0.391602 -1.320718 0 CFG=2
M  V30 16 C 1.644739 0.798077 -2.713383 0
M  V30 17 C 0.192101 0.374249 -2.828202 0 CFG=1
M  V30 18 O 0.193386 -1.008881 -2.943081 0
M  V30 19 C -0.355688 0.728698 -1.454075 0
M  V30 20 N 0.744550 0.337472 -0.596781 0
M  V30 21 C 0.360108 0.013353 0.714382 0
M  V30 22 O -0.884693 0.202345 0.654430 0
M  V30 23 C 0.512223 -0.415516 2.102993 0 CFG=1
M  V30 24 N -0.798441 -0.770355 2.607060 0
M  V30 25 C -1.894327 0.039896 3.029367 0
M  V30 26 O -1.740514 1.294592 2.940890 0
M  V30 27 C -3.054762 -0.738174 3.509313 0
M  V30 28 O -4.099301 0.064515 3.886274 0
M  V30 29 C -5.096677 -0.682613 4.470322 0
M  V30 30 C -6.351486 0.017939 4.812549 0
M  V30 31 O -6.224420 1.071079 5.674366 0
M  V30 32 C -5.518259 2.116082 5.144192 0
M  V30 33 C -5.509367 3.320811 6.132977 0
M  V30 34 O -4.794966 4.280739 5.473350 0
M  V30 35 C -4.588129 5.490852 6.063333 0
M  V30 36 C -3.780082 6.296332 5.010083 0
M  V30 37 O -2.599330 5.628726 4.747115 0
M  V30 38 C -1.866200 6.232303 3.780590 0
M  V30 39 C -2.575685 6.290142 2.428546 0
M  V30 40 N -2.903928 4.964449 1.943422 0
M  V30 41 C -3.539139 4.669075 0.688750 0
M  V30 42 O -3.824379 5.665349 -0.052976 0
M  V30 43 C -3.778019 3.236606 0.422511 0
M  V30 44 C -4.229322 3.004610 -1.006718 0
M  V30 45 C -4.484784 1.592205 -1.247678 0
M  V30 46 O -4.677362 0.842868 -0.246927 0
M  V30 47 N -4.595989 0.724307 -2.356802 0
M  V30 48 C -4.922153 -0.600330 -1.916674 0
M  V30 49 C -5.010106 -1.600424 -3.021561 0
M  V30 50 N -3.763482 -1.639118 -3.756700 0
M  V30 51 C -3.736671 -2.567231 -4.842345 0 CFG=1
M  V30 52 C -2.316812 -2.615712 -5.365883 0
M  V30 53 C -1.913384 -3.985015 -5.800522 0
M  V30 54 C -2.016352 -5.061939 -4.779556 0 CFG=1
M  V30 55 N -0.735683 -5.393747 -4.127671 0
M  V30 56 C -0.737488 -6.514277 -3.237080 0
M  V30 57 N -1.898199 -7.164074 -3.078263 0
M  V30 58 C -1.928189 -8.218561 -2.232544 0
M  V30 59 N -0.843065 -8.628484 -1.555697 0
M  V30 60 N 0.287870 -7.973390 -1.728022 0
M  V30 61 C 1.450206 -8.248515 -1.135119 0
M  V30 62 C 2.330036 -7.308331 -1.620585 0
M  V30 63 C 1.689779 -6.448866 -2.522476 0
M  V30 64 C 2.273411 -5.311817 -3.274916 0
M  V30 65 C 2.030268 -3.997338 -2.588005 0
M  V30 66 C 3.807690 -5.508543 -3.136879 0
M  V30 67 C 0.392692 -6.906498 -2.560820 0
M  V30 68 C -3.080638 -4.700152 -3.778005 0
M  V30 69 C -4.170173 -3.953995 -4.560004 0
M  V30 70 C -3.446107 -0.303991 -4.260168 0
M  V30 71 C -4.480779 0.686135 -3.780756 0
M  V30 72 C 1.485900 -1.497927 2.379187 0
M  V30 73 C 2.900424 -1.130290 1.970650 0
M  V30 74 C 1.510761 -1.709753 3.892069 0
M  V30 75 C 1.077193 -2.827939 1.771191 0
M  V30 76 C 7.115346 1.507429 -0.929899 0
M  V30 77 C 8.089218 0.981084 -0.090576 0
M  V30 78 H 10.097321 -1.316076 0.185834 0
M  V30 79 H 11.752362 -1.231769 0.752219 0
M  V30 80 H 11.090196 0.264835 0.112648 0
M  V30 81 H 11.037134 -0.474663 5.225390 0
M  V30 82 H 6.838103 1.794005 2.897969 0
M  V30 83 H 5.153491 2.704257 1.481887 0
M  V30 84 H 5.504686 3.124409 -2.138533 0
M  V30 85 H 4.539836 3.530940 -0.724008 0
M  V30 86 H 4.191478 1.248460 -2.501020 0
M  V30 87 H 2.489006 -0.607791 -1.390254 0
M  V30 88 H 1.726934 1.889927 -2.914422 0
M  V30 89 H 2.263018 0.287936 -3.481427 0
M  V30 90 H -0.304636 0.915496 -3.626785 0
M  V30 91 H 1.092244 -1.360633 -3.174105 0
M  V30 92 H -0.512161 1.833032 -1.442174 0
M  V30 93 H -1.302268 0.218841 -1.259961 0
M  V30 94 H 0.845995 0.502921 2.716625 0
M  V30 95 H -0.913338 -1.832713 2.644821 0
M  V30 96 H -2.734517 -1.354713 4.377018 0
M  V30 97 H -3.331016 -1.470682 2.709477 0
M  V30 98 H -4.732295 -1.178846 5.414594 0
M  V30 99 H -5.365693 -1.508447 3.739764 0
M  V30 100 H -6.910518 0.342550 3.875114 0
M  V30 101 H -7.029705 -0.765560 5.299114 0
M  V30 102 H -5.880262 2.495578 4.167795 0
M  V30 103 H -4.425550 1.855572 5.058730 0
M  V30 104 H -5.014746 2.978996 7.053263 0
M  V30 105 H -6.568206 3.583089 6.306785 0
M  V30 106 H -3.966574 5.409834 6.955217 0
M  V30 107 H -5.511275 6.032294 6.313401 0
M  V30 108 H -3.569542 7.308471 5.411465 0
M  V30 109 H -4.401862 6.291477 4.112809 0
M  V30 110 H -0.907930 5.660658 3.612658 0
M  V30 111 H -1.553938 7.275160 4.021526 0
M  V30 112 H -1.883371 6.747565 1.663315 0
M  V30 113 H -3.467084 6.919688 2.458492 0
M  V30 114 H -2.636489 4.164410 2.595575 0
M  V30 115 H -4.592308 2.925058 1.135387 0
M  V30 116 H -2.845724 2.696997 0.674791 0
M  V30 117 H -5.216200 3.542944 -1.087330 0
M  V30 118 H -3.542931 3.468682 -1.722620 0
M  V30 119 H -4.131096 -0.899195 -1.164256 0
M  V30 120 H -5.849059 -0.548480 -1.312623 0
M  V30 121 H -5.084980 -2.617102 -2.532649 0
M  V30 122 H -5.882743 -1.385892 -3.645823 0
M  V30 123 H -4.363910 -2.117834 -5.657977 0
M  V30 124 H -1.597484 -2.271121 -4.595569 0
M  V30 125 H -2.217728 -1.942485 -6.222859 0
M  V30 126 H -2.567855 -4.270962 -6.668638 0
M  V30 127 H -0.897963 -3.903836 -6.250741 0
M  V30 128 H -2.345391 -6.041090 -5.239239 0
M  V30 129 H -0.038310 -4.706588 -4.454979 0
M  V30 130 H -2.889924 -8.717611 -2.130416 0
M  V30 131 H 1.691663 -9.034075 -0.420205 0
M  V30 132 H 3.391218 -7.238884 -1.338256 0
M  V30 133 H 2.134091 -5.334692 -4.351445 0
M  V30 134 H 0.990815 -3.680817 -2.543410 0
M  V30 135 H 2.341779 -4.159777 -1.513159 0
M  V30 136 H 2.742841 -3.272284 -3.016435 0
M  V30 137 H 4.338812 -4.760438 -3.771578 0
M  V30 138 H 4.033324 -6.510078 -3.516690 0
M  V30 139 H 4.076913 -5.443513 -2.066495 0
M  V30 140 H -3.554659 -5.567417 -3.293211 0
M  V30 141 H -2.676522 -4.038553 -2.985491 0
M  V30 142 H -4.243508 -4.486572 -5.538034 0
M  V30 143 H -5.166738 -4.056816 -4.109767 0
M  V30 144 H -3.344290 -0.258974 -5.346078 0
M  V30 145 H -2.492524 -0.020630 -3.769070 0
M  V30 146 H -4.221001 1.728736 -4.100916 0
M  V30 147 H -5.463490 0.486874 -4.229749 0
M  V30 148 H 3.131228 -0.124357 2.332396 0
M  V30 149 H 2.960870 -1.249271 0.868702 0
M  V30 150 H 3.647530 -1.831427 2.393609 0
M  V30 151 H 0.741034 -2.412176 4.208260 0
M  V30 152 H 1.459550 -0.726478 4.381507 0
M  V30 153 H 2.511864 -2.163042 4.122921 0
M  V30 154 H 1.876952 -3.081989 1.015218 0
M  V30 155 H 1.045481 -3.652877 2.520551 0
M  V30 156 H 0.157855 -2.727083 1.173072 0
M  V30 157 H 7.208105 1.415740 -2.021310 0
M  V30 158 H 8.899985 0.502911 -0.608025 0
M  V30 END ATOM
M  V30 BEGIN BOND
M  V30 1 1 1 2
M  V30 2 1 2 3
M  V30 3 2 3 4
M  V30 4 1 4 5
M  V30 5 1 5 6
M  V30 6 1 6 7
M  V30 7 2 7 8
M  V30 8 1 8 9
M  V30 9 2 9 10
M  V30 10 1 10 11
M  V30 11 1 11 12
M  V30 12 1 12 13
M  V30 13 2 13 14
M  V30 14 1 13 15
M  V30 15 1 15 16
M  V30 16 1 16 17
M  V30 17 1 17 18
M  V30 18 1 17 19
M  V30 19 1 19 20
M  V30 20 1 20 21
M  V30 21 2 21 22
M  V30 22 1 21 23
M  V30 23 1 23 24
M  V30 24 1 24 25
M  V30 25 2 25 26
M  V30 26 1 25 27
M  V30 27 1 27 28
M  V30 28 1 28 29
M  V30 29 1 29 30
M  V30 30 1 30 31
M  V30 31 1 31 32
M  V30 32 1 32 33
M  V30 33 1 33 34
M  V30 34 1 34 35
M  V30 35 1 35 36
M  V30 36 1 36 37
M  V30 37 1 37 38
M  V30 38 1 38 39
M  V30 39 1 39 40
M  V30 40 1 40 41
M  V30 41 2 41 42
M  V30 42 1 41 43
M  V30 43 1 43 44
M  V30 44 1 44 45
M  V30 45 2 45 46
M  V30 46 1 45 47
M  V30 47 1 47 48
M  V30 48 1 48 49
M  V30 49 1 49 50
M  V30 50 1 50 51
M  V30 51 1 51 52
M  V30 52 1 52 53
M  V30 53 1 53 54
M  V30 54 1 54 55
M  V30 55 1 55 56
M  V30 56 2 56 57
M  V30 57 1 57 58
M  V30 58 2 58 59
M  V30 59 1 59 60
M  V30 60 1 60 61
M  V30 61 2 61 62
M  V30 62 1 62 63
M  V30 63 1 63 64
M  V30 64 1 64 65
M  V30 65 1 64 66
M  V30 66 2 63 67
M  V30 67 1 54 68
M  V30 68 1 68 69
M  V30 69 1 50 70
M  V30 70 1 70 71
M  V30 71 1 23 72
M  V30 72 1 72 73
M  V30 73 1 72 74
M  V30 74 1 72 75
M  V30 75 1 10 76
M  V30 76 2 76 77
M  V30 77 2 6 2
M  V30 78 1 77 7
M  V30 79 1 20 15
M  V30 80 1 71 47
M  V30 81 1 69 51
M  V30 82 1 67 56
M  V30 83 1 67 60
M  V30 84 1 1 78
M  V30 85 1 1 79
M  V30 86 1 1 80
M  V30 87 1 4 81
M  V30 88 1 8 82
M  V30 89 1 9 83
M  V30 90 1 11 84
M  V30 91 1 11 85
M  V30 92 1 12 86
M  V30 93 1 15 87 CFG=3
M  V30 94 1 16 88
M  V30 95 1 16 89
M  V30 96 1 17 90 CFG=3
M  V30 97 1 18 91
M  V30 98 1 19 92
M  V30 99 1 19 93
M  V30 100 1 23 94 CFG=1
M  V30 101 1 24 95
M  V30 102 1 27 96
M  V30 103 1 27 97
M  V30 104 1 29 98
M  V30 105 1 29 99
M  V30 106 1 30 100
M  V30 107 1 30 101
M  V30 108 1 32 102
M  V30 109 1 32 103
M  V30 110 1 33 104
M  V30 111 1 33 105
M  V30 112 1 35 106
M  V30 113 1 35 107
M  V30 114 1 36 108
M  V30 115 1 36 109
M  V30 116 1 38 110
M  V30 117 1 38 111
M  V30 118 1 39 112
M  V30 119 1 39 113
M  V30 120 1 40 114
M  V30 121 1 43 115
M  V30 122 1 43 116
M  V30 123 1 44 117
M  V30 124 1 44 118
M  V30 125 1 48 119
M  V30 126 1 48 120
M  V30 127 1 49 121
M  V30 128 1 49 122
M  V30 129 1 51 123 CFG=3
M  V30 130 1 52 124
M  V30 131 1 52 125
M  V30 132 1 53 126
M  V30 133 1 53 127
M  V30 134 1 54 128 CFG=3
M  V30 135 1 55 129
M  V30 136 1 58 130
M  V30 137 1 61 131
M  V30 138 1 62 132
M  V30 139 1 64 133
M  V30 140 1 65 134
M  V30 141 1 65 135
M  V30 142 1 65 136
M  V30 143 1 66 137
M  V30 144 1 66 138
M  V30 145 1 66 139
M  V30 146 1 68 140
M  V30 147 1 68 141
M  V30 148 1 69 142
M  V30 149 1 69 143
M  V30 150 1 70 144
M  V30 151 1 70 145
M  V30 152 1 71 146
M  V30 153 1 71 147
M  V30 154 1 73 148
M  V30 155 1 73 149
M  V30 156 1 73 150
M  V30 157 1 74 151
M  V30 158 1 74 152
M  V30 159 1 74 153
M  V30 160 1 75 154
M  V30 161 1 75 155
M  V30 162 1 75 156
M  V30 163 1 76 157
M  V30 164 1 77 158
M  V30 END BOND
M  V30 END CTAB
M  END
>  <Dataset>  (373) 
ChEMBL_Kinases

>  <Ligand_Instance>  (373) 
nan

>  <PDB_ID>  (373) 
nan

>  <Standardized_SMILES>  (373) 
Cc1ncsc1-c1ccc(CNC(=O)[C@@H]2C[C@@H](O)CN2C(=O)[C@@H](NC(=O)COCCOCCOCCOCCNC(=O)CCC(=O)N2CCN([C@H]3CC[C@@H](Nc4ncnn5ccc(C(C)C)c45)CC3)CC2)C(C)(C)C)cc1

>  <Name>  (373) 
nan

>  <Pocket>  (373) 
nan

>  <ATP_Site>  (373) 
nan

>  <Peripheral>  (373) 
nan

>  <Num_H_Atoms_ProtBoundConf>  (373) 
nan

>  <Num_Resolved_Atoms>  (373) 
nan

>  <Num_Not_Resolved_Atoms>  (373) 
nan

$$$$
CHEMBL4779203
     RDKit          3D

  0  0  0  0  0  0  0  0  0  0999 V3000
M  V30 BEGIN CTAB
M  V30 COUNTS 83 87 0 0 0
M  V30 BEGIN ATOM
M  V30 1 N 2.702872 2.411106 5.182373 0
M  V30 2 C 3.817745 1.508812 5.199562 0
M  V30 3 C 4.618291 1.148068 4.135589 0
M  V30 4 C 4.473802 1.629332 2.765053 0
M  V30 5 O 3.531625 2.441523 2.575055 0
M  V30 6 N 5.310964 1.232908 1.710824 0
M  V30 7 C 5.262889 1.638467 0.327892 0
M  V30 8 C 4.142728 0.932625 -0.356595 0
M  V30 9 C 4.420590 -0.289980 -0.929369 0
M  V30 10 C 3.451690 -1.050309 -1.599276 0
M  V30 11 C 2.167777 -0.575630 -1.700398 0
M  V30 12 C 1.137856 -1.364263 -2.397771 0
M  V30 13 O 1.612121 -2.445350 -2.853913 0
M  V30 14 N -0.245567 -1.011409 -2.575195 0
M  V30 15 C -0.984904 -1.991064 -3.302515 0 CFG=1
M  V30 16 C -1.895759 -2.792995 -2.430816 0
M  V30 17 C -2.980086 -2.143727 -1.692914 0
M  V30 18 C -2.698462 -1.098159 -0.687349 0
M  V30 19 C -4.094477 -0.700112 -0.120762 0
M  V30 20 C -4.008928 0.533595 0.712263 0
M  V30 21 C -2.580112 0.783990 1.087051 0
M  V30 22 C -1.958050 -0.505856 1.577944 0
M  V30 23 C -1.871648 -1.526516 0.477243 0
M  V30 24 C -1.749532 -1.361180 -4.442390 0
M  V30 25 O -1.851852 -0.169166 -4.874071 0
M  V30 26 N -2.549772 -2.225631 -5.250016 0
M  V30 27 C -3.220207 -1.451180 -6.303610 0
M  V30 28 C -4.045716 -2.427406 -7.087505 0
M  V30 29 C -5.353353 -2.665621 -6.684753 0
M  V30 30 C -6.214563 -3.546633 -7.330915 0
M  V30 31 C -5.657880 -4.179057 -8.426345 0
M  V30 32 C -4.365077 -3.962514 -8.848512 0
M  V30 33 N -3.568455 -3.088605 -8.176326 0
M  V30 34 C 1.920566 0.649944 -1.118347 0
M  V30 35 C 2.855748 1.412792 -0.456048 0
M  V30 36 C 5.541790 0.259506 4.678650 0
M  V30 37 N 5.259383 0.136715 5.991201 0
M  V30 38 N 4.225840 0.881011 6.320143 0
M  V30 39 C 3.619858 1.019247 7.623875 0
M  V30 40 C 3.229248 2.251530 8.119980 0
M  V30 41 C 2.647488 2.401592 9.365562 0
M  V30 42 C 2.461819 1.270076 10.117875 0
M  V30 43 C 2.829379 0.014141 9.680522 0
M  V30 44 C 3.407324 -0.102201 8.433013 0
M  V30 45 H 1.834455 1.998098 5.567247 0
M  V30 46 H 2.989937 3.346999 4.769887 0
M  V30 47 H 6.060317 0.544651 2.019382 0
M  V30 48 H 6.233569 1.442909 -0.134104 0
M  V30 49 H 5.070694 2.721496 0.199032 0
M  V30 50 H 5.422093 -0.689836 -0.866477 0
M  V30 51 H 3.771791 -1.991746 -2.011272 0
M  V30 52 H -0.329811 -0.093981 -2.119167 0
M  V30 53 H -0.293023 -2.714980 -3.837011 0
M  V30 54 H -1.291406 -3.470004 -1.743190 0
M  V30 55 H -2.400328 -3.582382 -3.095860 0
M  V30 56 H -3.745857 -1.708320 -2.397298 0
M  V30 57 H -3.590692 -2.942311 -1.149939 0
M  V30 58 H -2.294929 -0.142239 -1.095155 0
M  V30 59 H -4.483930 -1.537590 0.459029 0
M  V30 60 H -4.772569 -0.496673 -0.963235 0
M  V30 61 H -4.465171 1.417159 0.225100 0
M  V30 62 H -4.587916 0.419414 1.673320 0
M  V30 63 H -1.987254 1.296501 0.324269 0
M  V30 64 H -2.594947 1.458724 1.985236 0
M  V30 65 H -2.569172 -0.861963 2.422601 0
M  V30 66 H -0.958298 -0.219198 1.999488 0
M  V30 67 H -2.297521 -2.505591 0.824528 0
M  V30 68 H -0.798940 -1.647698 0.240352 0
M  V30 69 H -2.646618 -3.274024 -5.110355 0
M  V30 70 H -2.496470 -0.906057 -6.939201 0
M  V30 71 H -3.929771 -0.730529 -5.840434 0
M  V30 72 H -5.711106 -2.119108 -5.805282 0
M  V30 73 H -7.223951 -3.702739 -6.984764 0
M  V30 74 H -6.280293 -4.880396 -8.975179 0
M  V30 75 H -3.982427 -4.485564 -9.714282 0
M  V30 76 H 0.940704 1.099994 -1.149548 0
M  V30 77 H 2.629849 2.370487 -0.011046 0
M  V30 78 H 6.328960 -0.223457 4.114738 0
M  V30 79 H 3.406021 3.110701 7.469901 0
M  V30 80 H 2.347094 3.378185 9.739928 0
M  V30 81 H 2.006774 1.375966 11.094869 0
M  V30 82 H 2.680621 -0.894705 10.284709 0
M  V30 83 H 3.730982 -1.061274 8.002622 0
M  V30 END ATOM
M  V30 BEGIN BOND
M  V30 1 1 1 2
M  V30 2 2 2 3
M  V30 3 1 3 4
M  V30 4 2 4 5
M  V30 5 1 4 6
M  V30 6 1 6 7
M  V30 7 1 7 8
M  V30 8 2 8 9
M  V30 9 1 9 10
M  V30 10 2 10 11
M  V30 11 1 11 12
M  V30 12 2 12 13
M  V30 13 1 12 14
M  V30 14 1 14 15
M  V30 15 1 15 16
M  V30 16 1 16 17
M  V30 17 1 17 18
M  V30 18 1 18 19
M  V30 19 1 19 20
M  V30 20 1 20 21
M  V30 21 1 21 22
M  V30 22 1 22 23
M  V30 23 1 15 24
M  V30 24 2 24 25
M  V30 25 1 24 26
M  V30 26 1 26 27
M  V30 27 1 27 28
M  V30 28 2 28 29
M  V30 29 1 29 30
M  V30 30 2 30 31
M  V30 31 1 31 32
M  V30 32 2 32 33
M  V30 33 1 11 34
M  V30 34 2 34 35
M  V30 35 1 3 36
M  V30 36 2 36 37
M  V30 37 1 37 38
M  V30 38 1 38 39
M  V30 39 2 39 40
M  V30 40 1 40 41
M  V30 41 2 41 42
M  V30 42 1 42 43
M  V30 43 2 43 44
M  V30 44 1 38 2
M  V30 45 1 44 39
M  V30 46 1 35 8
M  V30 47 1 23 18
M  V30 48 1 33 28
M  V30 49 1 1 45
M  V30 50 1 1 46
M  V30 51 1 6 47
M  V30 52 1 7 48
M  V30 53 1 7 49
M  V30 54 1 9 50
M  V30 55 1 10 51
M  V30 56 1 14 52
M  V30 57 1 15 53 CFG=3
M  V30 58 1 16 54
M  V30 59 1 16 55
M  V30 60 1 17 56
M  V30 61 1 17 57
M  V30 62 1 18 58
M  V30 63 1 19 59
M  V30 64 1 19 60
M  V30 65 1 20 61
M  V30 66 1 20 62
M  V30 67 1 21 63
M  V30 68 1 21 64
M  V30 69 1 22 65
M  V30 70 1 22 66
M  V30 71 1 23 67
M  V30 72 1 23 68
M  V30 73 1 26 69
M  V30 74 1 27 70
M  V30 75 1 27 71
M  V30 76 1 29 72
M  V30 77 1 30 73
M  V30 78 1 31 74
M  V30 79 1 32 75
M  V30 80 1 34 76
M  V30 81 1 35 77
M  V30 82 1 36 78
M  V30 83 1 40 79
M  V30 84 1 41 80
M  V30 85 1 42 81
M  V30 86 1 43 82
M  V30 87 1 44 83
M  V30 END BOND
M  V30 END CTAB
M  END
>  <Dataset>  (374) 
ChEMBL_Kinases

>  <Ligand_Instance>  (374) 
nan

>  <PDB_ID>  (374) 
nan

>  <Standardized_SMILES>  (374) 
Nc1c(C(=O)NCc2ccc(C(=O)N[C@@H](CCC3CCCCC3)C(=O)NCc3ccccn3)cc2)cnn1-c1ccccc1

>  <Name>  (374) 
nan

>  <Pocket>  (374) 
nan

>  <ATP_Site>  (374) 
nan

>  <Peripheral>  (374) 
nan

>  <Num_H_Atoms_ProtBoundConf>  (374) 
nan

>  <Num_Resolved_Atoms>  (374) 
nan

>  <Num_Not_Resolved_Atoms>  (374) 
nan

$$$$
CHEMBL4779229
     RDKit          3D

  0  0  0  0  0  0  0  0  0  0999 V3000
M  V30 BEGIN CTAB
M  V30 COUNTS 56 60 0 0 0
M  V30 BEGIN ATOM
M  V30 1 C -0.693677 -8.755380 1.139760 0
M  V30 2 O -0.368412 -8.387595 -0.165887 0
M  V30 3 C 0.097230 -7.136519 -0.538965 0
M  V30 4 C 0.315489 -6.060522 0.297182 0
M  V30 5 C 0.790043 -4.854689 -0.226269 0
M  V30 6 C 1.010370 -3.733261 0.691274 0
M  V30 7 C 0.824876 -2.468912 0.173026 0
M  V30 8 N 1.019762 -1.423225 0.990266 0
M  V30 9 C 1.382496 -1.498020 2.279071 0
M  V30 10 C 1.594346 -0.527304 3.148039 0
M  V30 11 C 1.493988 0.977637 2.962359 0
M  V30 12 C 1.755973 1.822008 3.991480 0
M  V30 13 C 1.670121 3.198249 3.844391 0
M  V30 14 C 1.310743 3.738648 2.628197 0
M  V30 15 C 1.040929 2.895607 1.571359 0
M  V30 16 N 0.661293 3.417505 0.281443 0
M  V30 17 C -0.729231 3.576039 0.140811 0
M  V30 18 O -1.539556 3.277274 1.081705 0
M  V30 19 C -1.585782 4.065713 -0.970965 0
M  V30 20 C -3.020229 3.968859 -0.435101 0
M  V30 21 C -3.799270 4.889961 -1.358236 0
M  V30 22 C -2.844686 6.042540 -1.548041 0
M  V30 23 C -1.452967 5.535020 -1.236048 0
M  V30 24 C 1.136795 1.534865 1.755831 0
M  V30 25 S 2.036817 -1.133106 4.660716 0
M  V30 26 N 1.938581 -2.922722 4.104017 0
M  V30 27 C 1.569833 -2.755189 2.804709 0
M  V30 28 C 1.383666 -3.869085 2.010848 0
M  V30 29 C 1.048813 -4.713075 -1.577115 0
M  V30 30 C 0.835509 -5.790296 -2.447131 0
M  V30 31 C 0.366692 -6.957361 -1.880161 0
M  V30 32 N 0.167248 -8.021758 -2.811608 0
M  V30 33 H 0.110716 -9.444749 1.504834 0
M  V30 34 H -0.817713 -7.945307 1.858083 0
M  V30 35 H -1.628561 -9.373637 1.088382 0
M  V30 36 H 0.105697 -6.205216 1.331083 0
M  V30 37 H 0.530359 -2.306352 -0.861678 0
M  V30 38 H 2.043021 1.470138 4.972091 0
M  V30 39 H 1.877860 3.869092 4.660557 0
M  V30 40 H 1.248571 4.805227 2.529786 0
M  V30 41 H 1.141380 3.717442 -0.597426 0
M  V30 42 H -1.465235 3.493820 -1.897857 0
M  V30 43 H -3.391922 2.940945 -0.408573 0
M  V30 44 H -3.003998 4.424518 0.585605 0
M  V30 45 H -4.728172 5.177162 -0.850250 0
M  V30 46 H -3.963542 4.291375 -2.287731 0
M  V30 47 H -2.912474 6.431589 -2.590303 0
M  V30 48 H -3.114996 6.827136 -0.811748 0
M  V30 49 H -0.827044 5.680715 -2.138477 0
M  V30 50 H -0.988668 6.060324 -0.388407 0
M  V30 51 H 0.915870 0.919081 0.899027 0
M  V30 52 H 1.495843 -4.899115 2.293785 0
M  V30 53 H 1.417232 -3.787185 -2.004987 0
M  V30 54 H 1.036250 -5.682596 -3.499499 0
M  V30 55 H -0.335580 -8.175428 -3.712938 0
M  V30 56 H 0.460808 -9.026750 -2.911474 0
M  V30 END ATOM
M  V30 BEGIN BOND
M  V30 1 1 1 2
M  V30 2 1 2 3
M  V30 3 2 3 4
M  V30 4 1 4 5
M  V30 5 1 5 6
M  V30 6 1 6 7
M  V30 7 2 7 8
M  V30 8 1 8 9
M  V30 9 2 9 10
M  V30 10 1 10 11
M  V30 11 2 11 12
M  V30 12 1 12 13
M  V30 13 2 13 14
M  V30 14 1 14 15
M  V30 15 1 15 16
M  V30 16 1 16 17
M  V30 17 2 17 18
M  V30 18 1 17 19
M  V30 19 1 19 20
M  V30 20 1 20 21
M  V30 21 1 21 22
M  V30 22 1 22 23
M  V30 23 2 15 24
M  V30 24 1 10 25
M  V30 25 1 25 26
M  V30 26 2 26 27
M  V30 27 1 27 28
M  V30 28 2 5 29
M  V30 29 1 29 30
M  V30 30 2 30 31
M  V30 31 1 31 32
M  V30 32 1 31 3
M  V30 33 2 28 6
M  V30 34 1 27 9
M  V30 35 1 24 11
M  V30 36 1 23 19
M  V30 37 1 1 33
M  V30 38 1 1 34
M  V30 39 1 1 35
M  V30 40 1 4 36
M  V30 41 1 7 37
M  V30 42 1 12 38
M  V30 43 1 13 39
M  V30 44 1 14 40
M  V30 45 1 16 41
M  V30 46 1 19 42
M  V30 47 1 20 43
M  V30 48 1 20 44
M  V30 49 1 21 45
M  V30 50 1 21 46
M  V30 51 1 22 47
M  V30 52 1 22 48
M  V30 53 1 23 49
M  V30 54 1 23 50
M  V30 55 1 24 51
M  V30 56 1 28 52
M  V30 57 1 29 53
M  V30 58 1 30 54
M  V30 59 1 32 55
M  V30 60 1 32 56
M  V30 END BOND
M  V30 END CTAB
M  END
>  <Dataset>  (375) 
ChEMBL_Kinases

>  <Ligand_Instance>  (375) 
nan

>  <PDB_ID>  (375) 
nan

>  <Standardized_SMILES>  (375) 
COc1cc(-c2cnc3c(-c4cccc(NC(=O)C5CCCC5)c4)snc3c2)ccc1N

>  <Name>  (375) 
nan

>  <Pocket>  (375) 
nan

>  <ATP_Site>  (375) 
nan

>  <Peripheral>  (375) 
nan

>  <Num_H_Atoms_ProtBoundConf>  (375) 
nan

>  <Num_Resolved_Atoms>  (375) 
nan

>  <Num_Not_Resolved_Atoms>  (375) 
nan

$$$$
CHEMBL4779231
     RDKit          3D

  0  0  0  0  0  0  0  0  0  0999 V3000
M  V30 BEGIN CTAB
M  V30 COUNTS 58 61 0 0 0
M  V30 BEGIN ATOM
M  V30 1 C 2.840529 -1.818646 4.070798 0
M  V30 2 C 1.899842 -1.661665 2.890565 0
M  V30 3 C 2.582949 -2.004381 1.602526 0
M  V30 4 S 3.984460 -1.009061 1.239790 0
M  V30 5 O 4.618661 -1.583041 -0.007548 0
M  V30 6 O 4.987110 -1.224030 2.342923 0
M  V30 7 N 3.667714 0.652913 1.095707 0
M  V30 8 C 2.959045 1.640284 0.375473 0
M  V30 9 C 3.689377 2.103549 -0.724017 0
M  V30 10 F 4.941510 1.658062 -1.062652 0
M  V30 11 C 3.204072 3.078008 -1.593182 0
M  V30 12 C 1.950414 3.553995 -1.290987 0
M  V30 13 C 1.161532 3.140672 -0.211887 0
M  V30 14 C -0.141294 3.700712 0.006919 0
M  V30 15 O -0.002822 4.968129 -0.056643 0
M  V30 16 C -1.485942 3.242691 0.263690 0
M  V30 17 N -2.433126 4.157933 0.556054 0
M  V30 18 N -3.595907 3.527121 0.742757 0
M  V30 19 C -3.483794 2.201478 0.588306 0
M  V30 20 N -4.316308 1.152287 0.656616 0
M  V30 21 C -3.860371 -0.114985 0.427074 0
M  V30 22 C -2.521359 -0.263304 0.125721 0
M  V30 23 C -2.110238 -1.640819 -0.114602 0
M  V30 24 C -1.007791 -2.215591 0.480634 0
M  V30 25 C -0.586237 -3.515842 0.292566 0
M  V30 26 C -1.317381 -4.320380 -0.558360 0
M  V30 27 S -0.876869 -5.985545 -0.872406 0
M  V30 28 N -1.634026 -7.074532 0.253053 0
M  V30 29 O 0.605897 -6.130148 -0.638602 0
M  V30 30 O -1.131925 -6.383410 -2.277823 0
M  V30 31 C -2.423980 -3.756835 -1.161121 0
M  V30 32 C -2.848354 -2.436641 -0.967608 0
M  V30 33 C -4.043591 -2.003724 -1.693144 0
M  V30 34 C -1.618558 0.791139 0.043367 0
M  V30 35 C -2.149897 2.037386 0.286962 0
M  V30 36 C 1.713939 2.176454 0.595419 0
M  V30 37 F 1.059094 1.691443 1.672744 0
M  V30 38 H 3.554898 -0.975636 4.172320 0
M  V30 39 H 3.336740 -2.810374 4.047077 0
M  V30 40 H 2.160671 -1.847515 4.972326 0
M  V30 41 H 1.476019 -0.658053 2.896038 0
M  V30 42 H 1.060822 -2.361345 3.052077 0
M  V30 43 H 1.841270 -2.006567 0.772463 0
M  V30 44 H 2.870701 -3.093734 1.695405 0
M  V30 45 H 4.132354 1.334774 1.770981 0
M  V30 46 H 3.759382 3.442113 -2.444531 0
M  V30 47 H 1.517833 4.318921 -1.935847 0
M  V30 48 H -4.461086 4.058758 0.980271 0
M  V30 49 H -4.574409 -0.919832 0.497001 0
M  V30 50 H -0.475089 -1.517505 1.144309 0
M  V30 51 H 0.285483 -3.894996 0.792194 0
M  V30 52 H -1.798811 -6.611388 1.173296 0
M  V30 53 H -2.598830 -7.244737 -0.157669 0
M  V30 54 H -2.995055 -4.409670 -1.835120 0
M  V30 55 H -3.961930 -2.466826 -2.723581 0
M  V30 56 H -4.992044 -2.441350 -1.297037 0
M  V30 57 H -4.076904 -0.930750 -1.872254 0
M  V30 58 H -0.593781 0.666185 -0.191535 0
M  V30 END ATOM
M  V30 BEGIN BOND
M  V30 1 1 1 2
M  V30 2 1 2 3
M  V30 3 1 3 4
M  V30 4 2 4 5
M  V30 5 2 4 6
M  V30 6 1 4 7
M  V30 7 1 7 8
M  V30 8 2 8 9
M  V30 9 1 9 10
M  V30 10 1 9 11
M  V30 11 2 11 12
M  V30 12 1 12 13
M  V30 13 1 13 14
M  V30 14 2 14 15
M  V30 15 1 14 16
M  V30 16 2 16 17
M  V30 17 1 17 18
M  V30 18 1 18 19
M  V30 19 2 19 20
M  V30 20 1 20 21
M  V30 21 2 21 22
M  V30 22 1 22 23
M  V30 23 2 23 24
M  V30 24 1 24 25
M  V30 25 2 25 26
M  V30 26 1 26 27
M  V30 27 1 27 28
M  V30 28 2 27 29
M  V30 29 2 27 30
M  V30 30 1 26 31
M  V30 31 2 31 32
M  V30 32 1 32 33
M  V30 33 1 22 34
M  V30 34 2 34 35
M  V30 35 2 13 36
M  V30 36 1 36 37
M  V30 37 1 36 8
M  V30 38 1 35 16
M  V30 39 1 35 19
M  V30 40 1 32 23
M  V30 41 1 1 38
M  V30 42 1 1 39
M  V30 43 1 1 40
M  V30 44 1 2 41
M  V30 45 1 2 42
M  V30 46 1 3 43
M  V30 47 1 3 44
M  V30 48 1 7 45
M  V30 49 1 11 46
M  V30 50 1 12 47
M  V30 51 1 18 48
M  V30 52 1 21 49
M  V30 53 1 24 50
M  V30 54 1 25 51
M  V30 55 1 28 52
M  V30 56 1 28 53
M  V30 57 1 31 54
M  V30 58 1 33 55
M  V30 59 1 33 56
M  V30 60 1 33 57
M  V30 61 1 34 58
M  V30 END BOND
M  V30 END CTAB
M  END
>  <Dataset>  (376) 
ChEMBL_Kinases

>  <Ligand_Instance>  (376) 
nan

>  <PDB_ID>  (376) 
nan

>  <Standardized_SMILES>  (376) 
CCCS(=O)(=O)Nc1c(F)ccc(C(=O)c2n[nH]c3ncc(-c4ccc(S(N)(=O)=O)cc4C)cc23)c1F

>  <Name>  (376) 
nan

>  <Pocket>  (376) 
nan

>  <ATP_Site>  (376) 
nan

>  <Peripheral>  (376) 
nan

>  <Num_H_Atoms_ProtBoundConf>  (376) 
nan

>  <Num_Resolved_Atoms>  (376) 
nan

>  <Num_Not_Resolved_Atoms>  (376) 
nan

$$$$
CHEMBL4779273
     RDKit          3D

  0  0  0  0  0  0  0  0  0  0999 V3000
M  V30 BEGIN CTAB
M  V30 COUNTS 42 45 0 0 0
M  V30 BEGIN ATOM
M  V30 1 C 0.926237 -4.346506 4.870277 0
M  V30 2 O 1.090833 -3.232608 4.008391 0
M  V30 3 C 1.668634 -3.359974 2.737095 0
M  V30 4 C 1.811982 -2.242543 1.922485 0
M  V30 5 C 2.392976 -2.457262 0.681816 0
M  V30 6 C 2.555667 -1.283494 -0.201618 0
M  V30 7 C 3.621668 -0.869747 -0.964587 0
M  V30 8 N 3.248280 0.282247 -1.593022 0
M  V30 9 N 2.013577 0.609919 -1.266568 0
M  V30 10 C 1.264192 1.660025 -1.656280 0
M  V30 11 C -0.026067 1.810175 -1.182326 0
M  V30 12 O -0.904041 2.837665 -1.498862 0
M  V30 13 C -0.469259 3.861999 -2.400934 0
M  V30 14 C -0.464754 0.835532 -0.312823 0
M  V30 15 C -1.836767 0.855225 0.287888 0
M  V30 16 C -1.811029 1.614660 1.582099 0
M  V30 17 C -2.332896 0.614142 2.597990 0
M  V30 18 O -3.039933 -0.299065 1.818066 0
M  V30 19 C -2.269367 -0.533320 0.698833 0
M  V30 20 N 0.325933 -0.187700 0.039839 0
M  V30 21 C 1.580855 -0.328237 -0.424939 0
M  V30 22 C 2.820526 -3.695027 0.237929 0
M  V30 23 C 2.628592 -4.746663 1.135506 0
M  V30 24 N 2.071614 -4.598312 2.349869 0
M  V30 25 H 1.702877 -4.270194 5.659036 0
M  V30 26 H -0.070516 -4.416439 5.321085 0
M  V30 27 H 1.152355 -5.308527 4.338750 0
M  V30 28 H 1.483871 -1.260367 2.249113 0
M  V30 29 H 4.551046 -1.423349 -0.998327 0
M  V30 30 H 1.612085 2.428295 -2.342596 0
M  V30 31 H 0.032656 3.444353 -3.299399 0
M  V30 32 H -1.334221 4.463384 -2.748458 0
M  V30 33 H 0.204784 4.587288 -1.897171 0
M  V30 34 H -2.517260 1.289003 -0.475887 0
M  V30 35 H -2.498912 2.509834 1.576895 0
M  V30 36 H -0.783124 1.926052 1.854551 0
M  V30 37 H -1.479120 0.103789 3.091470 0
M  V30 38 H -3.022053 1.095309 3.317171 0
M  V30 39 H -1.363672 -1.170197 0.911325 0
M  V30 40 H -2.895959 -1.025504 -0.078176 0
M  V30 41 H 3.268372 -3.827064 -0.732956 0
M  V30 42 H 2.954233 -5.739340 0.819163 0
M  V30 END ATOM
M  V30 BEGIN BOND
M  V30 1 1 1 2
M  V30 2 1 2 3
M  V30 3 2 3 4
M  V30 4 1 4 5
M  V30 5 1 5 6
M  V30 6 1 6 7
M  V30 7 2 7 8
M  V30 8 1 8 9
M  V30 9 1 9 10
M  V30 10 2 10 11
M  V30 11 1 11 12
M  V30 12 1 12 13
M  V30 13 1 11 14
M  V30 14 1 14 15
M  V30 15 1 15 16
M  V30 16 1 16 17
M  V30 17 1 17 18
M  V30 18 1 18 19
M  V30 19 2 14 20
M  V30 20 1 20 21
M  V30 21 2 5 22
M  V30 22 1 22 23
M  V30 23 2 23 24
M  V30 24 1 24 3
M  V30 25 2 21 6
M  V30 26 1 21 9
M  V30 27 1 19 15
M  V30 28 1 1 25
M  V30 29 1 1 26
M  V30 30 1 1 27
M  V30 31 1 4 28
M  V30 32 1 7 29
M  V30 33 1 10 30
M  V30 34 1 13 31
M  V30 35 1 13 32
M  V30 36 1 13 33
M  V30 37 1 15 34
M  V30 38 1 16 35
M  V30 39 1 16 36
M  V30 40 1 17 37
M  V30 41 1 17 38
M  V30 42 1 19 39
M  V30 43 1 19 40
M  V30 44 1 22 41
M  V30 45 1 23 42
M  V30 END BOND
M  V30 END CTAB
M  END
>  <Dataset>  (377) 
ChEMBL_Kinases

>  <Ligand_Instance>  (377) 
nan

>  <PDB_ID>  (377) 
nan

>  <Standardized_SMILES>  (377) 
COc1cc(-c2cnn3cc(OC)c(C4CCOC4)nc23)ccn1

>  <Name>  (377) 
nan

>  <Pocket>  (377) 
nan

>  <ATP_Site>  (377) 
nan

>  <Peripheral>  (377) 
nan

>  <Num_H_Atoms_ProtBoundConf>  (377) 
nan

>  <Num_Resolved_Atoms>  (377) 
nan

>  <Num_Not_Resolved_Atoms>  (377) 
nan

$$$$
CHEMBL4779280
     RDKit          3D

  0  0  0  0  0  0  0  0  0  0999 V3000
M  V30 BEGIN CTAB
M  V30 COUNTS 43 46 0 0 0
M  V30 BEGIN ATOM
M  V30 1 C 2.558462 -2.925202 4.034181 0
M  V30 2 C 2.651510 -2.082738 2.778980 0
M  V30 3 C 1.648932 -2.667712 1.806078 0
M  V30 4 S 2.240782 -0.420108 3.224890 0
M  V30 5 O 3.293666 0.054093 4.190091 0
M  V30 6 O 0.905346 -0.344782 3.910930 0
M  V30 7 C 2.186453 0.635647 1.847957 0
M  V30 8 C 3.332505 1.319705 1.426439 0
M  V30 9 C 3.275287 2.157040 0.328974 0
M  V30 10 C 2.118368 2.368257 -0.403162 0
M  V30 11 N 2.061326 3.181602 -1.458854 0
M  V30 12 C 0.880435 3.342829 -2.125192 0
M  V30 13 C -0.228296 2.647229 -1.675513 0
M  V30 14 C -0.196195 1.786926 -0.570672 0
M  V30 15 N -1.437675 1.171882 -0.271793 0
M  V30 16 C -1.715883 -0.244105 -0.295147 0
M  V30 17 C -0.736074 -1.065172 -0.848670 0
M  V30 18 C -1.007042 -2.414901 -0.865749 0
M  V30 19 C -2.228575 -2.839637 -0.331957 0
M  V30 20 S -2.977560 -4.492878 -0.154316 0
M  V30 21 C -4.542096 -3.747860 0.668615 0
M  V30 22 N -4.308026 -2.585448 0.682580 0
M  V30 23 C -3.202927 -2.000555 0.220895 0
M  V30 24 C -2.907110 -0.642081 0.227097 0
M  V30 25 C 1.024596 1.667640 0.059699 0
M  V30 26 C 1.011828 0.818790 1.144881 0
M  V30 27 H 2.469723 -4.011088 3.804936 0
M  V30 28 H 3.451820 -2.677625 4.650853 0
M  V30 29 H 1.663395 -2.566577 4.593632 0
M  V30 30 H 3.633486 -2.083498 2.302771 0
M  V30 31 H 2.077933 -3.572938 1.334427 0
M  V30 32 H 1.412996 -1.980940 0.971461 0
M  V30 33 H 0.694563 -2.961780 2.285933 0
M  V30 34 H 4.262814 1.192195 1.960597 0
M  V30 35 H 4.179235 2.669479 0.031537 0
M  V30 36 H 0.809221 4.000742 -2.988306 0
M  V30 37 H -1.148924 2.818103 -2.252419 0
M  V30 38 H -2.150202 1.880838 -0.025053 0
M  V30 39 H 0.205437 -0.746121 -1.260985 0
M  V30 40 H -0.375870 -3.202628 -1.250259 0
M  V30 41 H -5.469327 -4.220316 1.057971 0
M  V30 42 H -3.591136 0.109891 0.632751 0
M  V30 43 H 0.147771 0.294425 1.487680 0
M  V30 END ATOM
M  V30 BEGIN BOND
M  V30 1 1 1 2
M  V30 2 1 2 3
M  V30 3 1 2 4
M  V30 4 2 4 5
M  V30 5 2 4 6
M  V30 6 1 4 7
M  V30 7 2 7 8
M  V30 8 1 8 9
M  V30 9 2 9 10
M  V30 10 1 10 11
M  V30 11 2 11 12
M  V30 12 1 12 13
M  V30 13 2 13 14
M  V30 14 1 14 15
M  V30 15 1 15 16
M  V30 16 2 16 17
M  V30 17 1 17 18
M  V30 18 2 18 19
M  V30 19 1 19 20
M  V30 20 1 20 21
M  V30 21 2 21 22
M  V30 22 1 22 23
M  V30 23 2 23 24
M  V30 24 1 14 25
M  V30 25 2 25 26
M  V30 26 1 26 7
M  V30 27 1 25 10
M  V30 28 1 24 16
M  V30 29 1 23 19
M  V30 30 1 1 27
M  V30 31 1 1 28
M  V30 32 1 1 29
M  V30 33 1 2 30
M  V30 34 1 3 31
M  V30 35 1 3 32
M  V30 36 1 3 33
M  V30 37 1 8 34
M  V30 38 1 9 35
M  V30 39 1 12 36
M  V30 40 1 13 37
M  V30 41 1 15 38
M  V30 42 1 17 39
M  V30 43 1 18 40
M  V30 44 1 21 41
M  V30 45 1 24 42
M  V30 46 1 26 43
M  V30 END BOND
M  V30 END CTAB
M  END
>  <Dataset>  (378) 
ChEMBL_Kinases

>  <Ligand_Instance>  (378) 
nan

>  <PDB_ID>  (378) 
nan

>  <Standardized_SMILES>  (378) 
CC(C)S(=O)(=O)c1ccc2nccc(Nc3ccc4scnc4c3)c2c1

>  <Name>  (378) 
nan

>  <Pocket>  (378) 
nan

>  <ATP_Site>  (378) 
nan

>  <Peripheral>  (378) 
nan

>  <Num_H_Atoms_ProtBoundConf>  (378) 
nan

>  <Num_Resolved_Atoms>  (378) 
nan

>  <Num_Not_Resolved_Atoms>  (378) 
nan

$$$$
CHEMBL4779321
     RDKit          3D

  0  0  0  0  0  0  0  0  0  0999 V3000
M  V30 BEGIN CTAB
M  V30 COUNTS 131 137 0 0 0
M  V30 BEGIN ATOM
M  V30 1 C -0.819061 -4.888580 4.577905 0
M  V30 2 C -1.227636 -5.718880 3.483695 0
M  V30 3 N -1.116061 -7.001175 3.519820 0
M  V30 4 C -1.569406 -7.922734 2.852810 0
M  V30 5 S -2.455871 -6.808630 1.625880 0
M  V30 6 C -1.967899 -5.264023 2.403733 0
M  V30 7 C -2.304536 -3.985039 1.941559 0
M  V30 8 C -1.347187 -3.112821 1.387515 0
M  V30 9 C -1.654513 -1.809329 1.077092 0
M  V30 10 C -2.927215 -1.348449 1.278736 0
M  V30 11 C -3.212382 0.090413 1.376988 0
M  V30 12 N -2.632110 0.977657 0.450953 0
M  V30 13 C -3.009867 2.334744 0.450008 0
M  V30 14 O -3.773007 2.748973 1.384280 0
M  V30 15 C -2.604914 3.299187 -0.565372 0 CFG=2
M  V30 16 C -2.331718 2.706927 -1.913732 0
M  V30 17 C -1.633839 3.859935 -2.619004 0 CFG=1
M  V30 18 O -2.631873 4.632544 -3.230951 0
M  V30 19 C -1.077386 4.737497 -1.499113 0
M  V30 20 N -1.467056 4.078529 -0.262604 0
M  V30 21 C -0.769719 4.403237 0.919759 0
M  V30 22 O -0.860183 5.557459 1.367606 0
M  V30 23 C 0.031881 3.328812 1.536033 0 CFG=1
M  V30 24 N 0.702863 2.690231 0.453526 0
M  V30 25 C 2.045373 2.524415 0.176015 0
M  V30 26 O 2.886983 3.027964 0.881155 0
M  V30 27 C 2.480495 1.792097 -1.047485 0
M  V30 28 O 3.864368 1.844061 -1.203459 0
M  V30 29 C 4.185830 1.014411 -2.248997 0
M  V30 30 C 5.625305 1.058991 -2.716633 0
M  V30 31 O 6.556916 0.747173 -1.732920 0
M  V30 32 C 6.778987 1.815606 -0.920196 0
M  V30 33 C 7.023933 1.424144 0.486267 0
M  V30 34 N 5.856683 0.703788 0.991473 0
M  V30 35 C 5.615775 0.519473 2.362113 0
M  V30 36 O 6.435204 1.126455 3.141658 0
M  V30 37 C 4.531719 -0.319986 3.028803 0
M  V30 38 O 3.667065 -0.864978 2.190441 0
M  V30 39 C 3.242449 -1.785076 1.437147 0
M  V30 40 C 2.140375 -1.587529 0.568124 0
M  V30 41 N 1.693741 -2.560410 -0.312543 0
M  V30 42 C 2.417855 -3.711612 -0.302976 0
M  V30 43 C 2.176576 -4.620691 -1.338726 0
M  V30 44 C 1.190329 -4.367229 -2.451510 0
M  V30 45 C -0.189974 -4.230747 -1.869376 0
M  V30 46 C -1.110394 -4.038107 -3.165397 0
M  V30 47 N -0.714145 -2.641822 -3.318448 0
M  V30 48 C -1.796529 -1.795359 -3.047708 0
M  V30 49 O -1.244618 -0.943842 -2.235551 0
M  V30 50 C -3.159747 -1.669485 -3.426177 0
M  V30 51 C -3.736877 -2.778913 -3.878562 0
M  V30 52 C -5.071177 -2.966566 -3.826571 0
M  V30 53 C -5.922474 -2.048395 -3.311834 0
M  V30 54 O -7.211341 -1.797733 -2.968861 0
M  V30 55 C -7.734718 -1.930955 -1.649259 0
M  V30 56 F -9.117779 -1.854591 -1.663906 0
M  V30 57 F -7.175550 -2.458853 -0.605036 0
M  V30 58 F -7.502067 -0.426044 -1.339946 0
M  V30 59 C -5.270142 -0.839092 -2.896911 0
M  V30 60 C -3.899481 -0.677630 -2.918220 0
M  V30 61 C 0.589721 -2.263708 -3.746271 0
M  V30 62 C 1.616128 -3.319821 -3.420071 0
M  V30 63 N 3.030979 -5.677337 -1.367521 0
M  V30 64 C 4.037589 -5.857857 -0.534287 0
M  V30 65 N 4.237810 -4.986725 0.498185 0
M  V30 66 C 3.386116 -3.915140 0.563975 0
M  V30 67 C 3.806300 -3.007641 1.426582 0
M  V30 68 C 0.808800 3.946015 2.635062 0
M  V30 69 C 1.690036 2.970195 3.403960 0
M  V30 70 C -0.252712 4.433671 3.614928 0
M  V30 71 C 1.604314 5.192397 2.245990 0
M  V30 72 C -3.871591 -2.202960 1.794736 0
M  V30 73 C -3.548662 -3.496913 2.117448 0
M  V30 74 H -1.279321 -3.890534 4.524859 0
M  V30 75 H -1.179783 -5.267116 5.584616 0
M  V30 76 H 0.264984 -4.901762 4.622636 0
M  V30 77 H -1.560750 -8.964153 2.694517 0
M  V30 78 H -0.366504 -3.541736 1.139932 0
M  V30 79 H -0.923348 -1.167581 0.653487 0
M  V30 80 H -4.345050 0.234259 1.328430 0
M  V30 81 H -2.860391 0.426507 2.405049 0
M  V30 82 H -1.798873 0.718328 -0.140536 0
M  V30 83 H -3.485043 4.025001 -0.741005 0
M  V30 84 H -1.693871 1.808463 -1.864771 0
M  V30 85 H -3.215824 2.456096 -2.518182 0
M  V30 86 H -0.871258 3.520161 -3.330760 0
M  V30 87 H -2.265901 5.236723 -3.914022 0
M  V30 88 H 0.063329 4.685606 -1.513025 0
M  V30 89 H -1.455315 5.742664 -1.500760 0
M  V30 90 H -0.608729 2.582012 1.994368 0
M  V30 91 H 0.030296 2.307755 -0.271435 0
M  V30 92 H 1.989794 2.356941 -1.873061 0
M  V30 93 H 2.133285 0.758718 -1.067484 0
M  V30 94 H 4.033890 -0.040785 -1.809839 0
M  V30 95 H 3.536606 1.076005 -3.141229 0
M  V30 96 H 5.784162 2.108543 -3.094556 0
M  V30 97 H 5.742316 0.379195 -3.550076 0
M  V30 98 H 7.818044 2.236708 -1.285136 0
M  V30 99 H 6.121357 2.678997 -1.029009 0
M  V30 100 H 7.770312 0.538277 0.424395 0
M  V30 101 H 7.384073 2.152236 1.171366 0
M  V30 102 H 5.211634 0.208029 0.333422 0
M  V30 103 H 4.716398 -0.496037 4.030535 0
M  V30 104 H 5.427460 -1.406964 2.767317 0
M  V30 105 H 1.490197 -0.707153 0.663300 0
M  V30 106 H 1.164142 -5.337537 -3.023807 0
M  V30 107 H -0.260346 -3.260985 -1.330311 0
M  V30 108 H -0.417362 -5.088355 -1.303678 0
M  V30 109 H -2.114784 -4.159697 -2.725731 0
M  V30 110 H -0.800686 -4.703097 -3.905352 0
M  V30 111 H -3.127295 -3.380757 -4.625864 0
M  V30 112 H -5.532807 -3.877606 -4.094371 0
M  V30 113 H -5.853116 0.120158 -2.777008 0
M  V30 114 H -3.430790 0.140321 -2.342050 0
M  V30 115 H 0.664975 -1.917792 -4.765728 0
M  V30 116 H 0.849264 -1.333429 -3.094852 0
M  V30 117 H 1.940107 -3.745221 -4.410361 0
M  V30 118 H 2.513650 -2.813217 -3.021958 0
M  V30 119 H 4.724582 -6.689378 -0.704012 0
M  V30 120 H 4.486321 -3.190173 2.287066 0
M  V30 121 H 1.639887 1.937142 2.979771 0
M  V30 122 H 2.711514 3.339273 3.563638 0
M  V30 123 H 1.290605 2.814467 4.454131 0
M  V30 124 H -0.328660 5.532925 3.633585 0
M  V30 125 H -1.250420 4.043546 3.383467 0
M  V30 126 H -0.021640 4.122292 4.651524 0
M  V30 127 H 2.658269 5.151622 2.609380 0
M  V30 128 H 1.199115 6.116509 2.744050 0
M  V30 129 H 1.529377 5.428046 1.163500 0
M  V30 130 H -4.889063 -1.890847 1.939338 0
M  V30 131 H -4.269964 -4.179800 2.554448 0
M  V30 END ATOM
M  V30 BEGIN BOND
M  V30 1 1 1 2
M  V30 2 1 2 3
M  V30 3 2 3 4
M  V30 4 1 4 5
M  V30 5 1 5 6
M  V30 6 1 6 7
M  V30 7 2 7 8
M  V30 8 1 8 9
M  V30 9 2 9 10
M  V30 10 1 10 11
M  V30 11 1 11 12
M  V30 12 1 12 13
M  V30 13 2 13 14
M  V30 14 1 13 15
M  V30 15 1 15 16
M  V30 16 1 16 17
M  V30 17 1 17 18
M  V30 18 1 17 19
M  V30 19 1 19 20
M  V30 20 1 20 21
M  V30 21 2 21 22
M  V30 22 1 21 23
M  V30 23 1 23 24
M  V30 24 1 24 25
M  V30 25 2 25 26
M  V30 26 1 25 27
M  V30 27 1 27 28
M  V30 28 1 28 29
M  V30 29 1 29 30
M  V30 30 1 30 31
M  V30 31 1 31 32
M  V30 32 1 32 33
M  V30 33 1 33 34
M  V30 34 1 34 35
M  V30 35 2 35 36
M  V30 36 1 35 37
M  V30 37 1 37 38
M  V30 38 1 38 39
M  V30 39 2 39 40
M  V30 40 1 40 41
M  V30 41 2 41 42
M  V30 42 1 42 43
M  V30 43 1 43 44
M  V30 44 1 44 45
M  V30 45 1 45 46
M  V30 46 1 46 47
M  V30 47 1 47 48
M  V30 48 2 48 49
M  V30 49 1 48 50
M  V30 50 2 50 51
M  V30 51 1 51 52
M  V30 52 2 52 53
M  V30 53 1 53 54
M  V30 54 1 54 55
M  V30 55 1 55 56
M  V30 56 1 55 57
M  V30 57 1 55 58
M  V30 58 1 53 59
M  V30 59 2 59 60
M  V30 60 1 47 61
M  V30 61 1 61 62
M  V30 62 2 43 63
M  V30 63 1 63 64
M  V30 64 2 64 65
M  V30 65 1 65 66
M  V30 66 2 66 67
M  V30 67 1 23 68
M  V30 68 1 68 69
M  V30 69 1 68 70
M  V30 70 1 68 71
M  V30 71 1 10 72
M  V30 72 2 72 73
M  V30 73 2 6 2
M  V30 74 1 73 7
M  V30 75 1 20 15
M  V30 76 1 67 39
M  V30 77 1 66 42
M  V30 78 1 62 44
M  V30 79 1 60 50
M  V30 80 1 1 74
M  V30 81 1 1 75
M  V30 82 1 1 76
M  V30 83 1 4 77
M  V30 84 1 8 78
M  V30 85 1 9 79
M  V30 86 1 11 80
M  V30 87 1 11 81
M  V30 88 1 12 82
M  V30 89 1 15 83 CFG=3
M  V30 90 1 16 84
M  V30 91 1 16 85
M  V30 92 1 17 86 CFG=3
M  V30 93 1 18 87
M  V30 94 1 19 88
M  V30 95 1 19 89
M  V30 96 1 23 90 CFG=1
M  V30 97 1 24 91
M  V30 98 1 27 92
M  V30 99 1 27 93
M  V30 100 1 29 94
M  V30 101 1 29 95
M  V30 102 1 30 96
M  V30 103 1 30 97
M  V30 104 1 32 98
M  V30 105 1 32 99
M  V30 106 1 33 100
M  V30 107 1 33 101
M  V30 108 1 34 102
M  V30 109 1 37 103
M  V30 110 1 37 104
M  V30 111 1 40 105
M  V30 112 1 44 106
M  V30 113 1 45 107
M  V30 114 1 45 108
M  V30 115 1 46 109
M  V30 116 1 46 110
M  V30 117 1 51 111
M  V30 118 1 52 112
M  V30 119 1 59 113
M  V30 120 1 60 114
M  V30 121 1 61 115
M  V30 122 1 61 116
M  V30 123 1 62 117
M  V30 124 1 62 118
M  V30 125 1 64 119
M  V30 126 1 67 120
M  V30 127 1 69 121
M  V30 128 1 69 122
M  V30 129 1 69 123
M  V30 130 1 70 124
M  V30 131 1 70 125
M  V30 132 1 70 126
M  V30 133 1 71 127
M  V30 134 1 71 128
M  V30 135 1 71 129
M  V30 136 1 72 130
M  V30 137 1 73 131
M  V30 END BOND
M  V30 END CTAB
M  END
>  <Dataset>  (379) 
ChEMBL_Kinases

>  <Ligand_Instance>  (379) 
nan

>  <PDB_ID>  (379) 
nan

>  <Standardized_SMILES>  (379) 
Cc1ncsc1-c1ccc(CNC(=O)[C@@H]2C[C@@H](O)CN2C(=O)[C@@H](NC(=O)COCCOCCNC(=O)COc2cnc3c(C4CCN(C(=O)c5ccc(OC(F)(F)F)cc5)CC4)ncnc3c2)C(C)(C)C)cc1

>  <Name>  (379) 
nan

>  <Pocket>  (379) 
nan

>  <ATP_Site>  (379) 
nan

>  <Peripheral>  (379) 
nan

>  <Num_H_Atoms_ProtBoundConf>  (379) 
nan

>  <Num_Resolved_Atoms>  (379) 
nan

>  <Num_Not_Resolved_Atoms>  (379) 
nan

$$$$
CHEMBL4779347
     RDKit          3D

  0  0  0  0  0  0  0  0  0  0999 V3000
M  V30 BEGIN CTAB
M  V30 COUNTS 48 51 0 0 0
M  V30 BEGIN ATOM
M  V30 1 N -0.373132 -2.582651 -7.756515 0
M  V30 2 C 0.128574 -2.358862 -6.728813 0
M  V30 3 C 0.746710 -2.082712 -5.464616 0
M  V30 4 C 1.752101 -1.158311 -5.342097 0
M  V30 5 C 2.346710 -0.889907 -4.137068 0
M  V30 6 C 1.951564 -1.546212 -2.992858 0
M  V30 7 C 2.580095 -1.274752 -1.669406 0
M  V30 8 C 1.788193 -0.170270 -1.021748 0
M  V30 9 O 0.830212 0.235775 -1.728587 0
M  V30 10 N 2.118058 0.339042 0.262271 0
M  V30 11 C 1.198386 1.389941 0.643983 0
M  V30 12 C 1.497249 1.961688 1.983569 0
M  V30 13 C 1.449125 1.023702 3.134756 0
M  V30 14 N 0.206547 0.376886 3.381962 0
M  V30 15 C -0.636354 1.036853 4.211451 0
M  V30 16 O -0.350499 2.130852 4.722184 0
M  V30 17 C -1.864106 0.501317 4.520310 0
M  V30 18 C -2.724610 1.172470 5.365366 0
M  V30 19 C -3.969206 0.603080 5.662363 0
M  V30 20 F -4.790977 1.288040 6.495714 0
M  V30 21 C -4.369625 -0.603780 5.142918 0
M  V30 22 C -3.507677 -1.273686 4.297902 0
M  V30 23 C -2.289304 -0.707315 4.012565 0
M  V30 24 N -1.439770 -1.335927 3.198592 0
M  V30 25 C -1.511910 -2.488152 2.544836 0
M  V30 26 S -2.662223 -3.631830 2.449050 0
M  V30 27 N -0.395161 -2.693775 1.848813 0
M  V30 28 N 0.396919 -1.634828 2.077327 0
M  V30 29 C -0.247065 -0.796519 2.910056 0
M  V30 30 C 0.942197 -2.471022 -3.128859 0
M  V30 31 C 0.330610 -2.755717 -4.333216 0
M  V30 32 H 2.047560 -0.656986 -6.241974 0
M  V30 33 H 3.146243 -0.145019 -4.079307 0
M  V30 34 H 3.607274 -0.927547 -1.830757 0
M  V30 35 H 2.517067 -2.218165 -1.089372 0
M  V30 36 H 2.935331 -0.086604 0.737580 0
M  V30 37 H 0.166050 1.030056 0.520052 0
M  V30 38 H 1.341322 2.198980 -0.103546 0
M  V30 39 H 0.863118 2.828105 2.226259 0
M  V30 40 H 2.559987 2.344532 1.936511 0
M  V30 41 H 1.795773 1.587527 4.034611 0
M  V30 42 H 2.213556 0.227563 2.993969 0
M  V30 43 H -2.474499 2.132533 5.814047 0
M  V30 44 H -5.367286 -0.960367 5.440699 0
M  V30 45 H -3.892921 -2.205083 3.936070 0
M  V30 46 H -0.017338 -3.429770 1.213772 0
M  V30 47 H 0.620891 -2.995008 -2.238135 0
M  V30 48 H -0.449739 -3.495375 -4.337960 0
M  V30 END ATOM
M  V30 BEGIN BOND
M  V30 1 3 1 2
M  V30 2 1 2 3
M  V30 3 2 3 4
M  V30 4 1 4 5
M  V30 5 2 5 6
M  V30 6 1 6 7
M  V30 7 1 7 8
M  V30 8 2 8 9
M  V30 9 1 8 10
M  V30 10 1 10 11
M  V30 11 1 11 12
M  V30 12 1 12 13
M  V30 13 1 13 14
M  V30 14 1 14 15
M  V30 15 2 15 16
M  V30 16 1 15 17
M  V30 17 2 17 18
M  V30 18 1 18 19
M  V30 19 1 19 20
M  V30 20 2 19 21
M  V30 21 1 21 22
M  V30 22 2 22 23
M  V30 23 1 23 24
M  V30 24 1 24 25
M  V30 25 2 25 26
M  V30 26 1 25 27
M  V30 27 1 27 28
M  V30 28 2 28 29
M  V30 29 1 6 30
M  V30 30 2 30 31
M  V30 31 1 31 3
M  V30 32 1 29 14
M  V30 33 1 23 17
M  V30 34 1 29 24
M  V30 35 1 4 32
M  V30 36 1 5 33
M  V30 37 1 7 34
M  V30 38 1 7 35
M  V30 39 1 10 36
M  V30 40 1 11 37
M  V30 41 1 11 38
M  V30 42 1 12 39
M  V30 43 1 12 40
M  V30 44 1 13 41
M  V30 45 1 13 42
M  V30 46 1 18 43
M  V30 47 1 21 44
M  V30 48 1 22 45
M  V30 49 1 27 46
M  V30 50 1 30 47
M  V30 51 1 31 48
M  V30 END BOND
M  V30 END CTAB
M  END
>  <Dataset>  (380) 
ChEMBL_Kinases

>  <Ligand_Instance>  (380) 
nan

>  <PDB_ID>  (380) 
nan

>  <Standardized_SMILES>  (380) 
N#Cc1ccc(CC(=O)NCCCn2c(=O)c3cc(F)ccc3n3c(=S)[nH]nc23)cc1

>  <Name>  (380) 
nan

>  <Pocket>  (380) 
nan

>  <ATP_Site>  (380) 
nan

>  <Peripheral>  (380) 
nan

>  <Num_H_Atoms_ProtBoundConf>  (380) 
nan

>  <Num_Resolved_Atoms>  (380) 
nan

>  <Num_Not_Resolved_Atoms>  (380) 
nan

$$$$
CHEMBL4779350
     RDKit          3D

  0  0  0  0  0  0  0  0  0  0999 V3000
M  V30 BEGIN CTAB
M  V30 COUNTS 39 42 0 0 0
M  V30 BEGIN ATOM
M  V30 1 O 0.018725 -1.820089 2.214351 0
M  V30 2 C -0.287305 -2.276589 1.064994 0
M  V30 3 N 0.319465 -1.968241 -0.166864 0
M  V30 4 C 1.407860 -1.074816 -0.370026 0
M  V30 5 C 2.757500 -1.358977 -0.358846 0
M  V30 6 C 3.688955 -0.363872 -0.575600 0
M  V30 7 C 3.239057 0.921086 -0.803731 0
M  V30 8 C 4.178285 2.014114 -1.040644 0
M  V30 9 C 5.404907 1.814071 -1.679862 0
M  V30 10 N 5.963660 3.037125 -1.705100 0
M  V30 11 N 5.189065 3.940233 -1.144138 0
M  V30 12 C 4.060784 3.341893 -0.714579 0
M  V30 13 C 1.885580 1.242767 -0.821980 0
M  V30 14 C 0.954770 0.223816 -0.600478 0
M  V30 15 F -0.345234 0.616600 -0.633086 0
M  V30 16 C -1.418728 -3.224512 1.166401 0
M  V30 17 C -2.588653 -2.806593 0.301733 0
M  V30 18 O -3.170874 -1.623130 0.811947 0
M  V30 19 C -3.368667 -1.538012 2.182514 0
M  V30 20 C -4.240364 -0.537844 2.597711 0
M  V30 21 C -4.476655 -0.404266 3.946572 0
M  V30 22 C -3.833491 -1.272782 4.815019 0
M  V30 23 C -2.972617 -2.257157 4.375444 0
M  V30 24 C -2.713405 -2.417636 3.019757 0
M  V30 25 O -1.866719 -3.374732 2.486127 0
M  V30 26 H -0.032712 -2.417874 -1.045241 0
M  V30 27 H 2.993731 -2.395476 -0.171087 0
M  V30 28 H 4.735859 -0.613977 -0.561207 0
M  V30 29 H 5.854573 0.911922 -2.083155 0
M  V30 30 H 5.429230 4.953792 -1.056454 0
M  V30 31 H 3.228355 3.793752 -0.216349 0
M  V30 32 H 1.557222 2.275125 -1.006292 0
M  V30 33 H -1.082478 -4.244536 0.835978 0
M  V30 34 H -3.308543 -3.637762 0.233259 0
M  V30 35 H -2.172886 -2.525436 -0.697071 0
M  V30 36 H -4.725025 0.122218 1.899942 0
M  V30 37 H -5.147006 0.359170 4.315996 0
M  V30 38 H -4.046392 -1.134722 5.871392 0
M  V30 39 H -2.482866 -2.919455 5.058765 0
M  V30 END ATOM
M  V30 BEGIN BOND
M  V30 1 2 1 2
M  V30 2 1 2 3
M  V30 3 1 3 4
M  V30 4 2 4 5
M  V30 5 1 5 6
M  V30 6 2 6 7
M  V30 7 1 7 8
M  V30 8 1 8 9
M  V30 9 2 9 10
M  V30 10 1 10 11
M  V30 11 1 11 12
M  V30 12 1 7 13
M  V30 13 2 13 14
M  V30 14 1 14 15
M  V30 15 1 2 16
M  V30 16 1 16 17
M  V30 17 1 17 18
M  V30 18 1 18 19
M  V30 19 2 19 20
M  V30 20 1 20 21
M  V30 21 2 21 22
M  V30 22 1 22 23
M  V30 23 2 23 24
M  V30 24 1 24 25
M  V30 25 1 14 4
M  V30 26 1 25 16
M  V30 27 2 12 8
M  V30 28 1 24 19
M  V30 29 1 3 26
M  V30 30 1 5 27
M  V30 31 1 6 28
M  V30 32 1 9 29
M  V30 33 1 11 30
M  V30 34 1 12 31
M  V30 35 1 13 32
M  V30 36 1 16 33
M  V30 37 1 17 34
M  V30 38 1 17 35
M  V30 39 1 20 36
M  V30 40 1 21 37
M  V30 41 1 22 38
M  V30 42 1 23 39
M  V30 END BOND
M  V30 END CTAB
M  END
>  <Dataset>  (381) 
ChEMBL_Kinases

>  <Ligand_Instance>  (381) 
nan

>  <PDB_ID>  (381) 
nan

>  <Standardized_SMILES>  (381) 
O=C(Nc1ccc(-c2cn[nH]c2)cc1F)C1COc2ccccc2O1

>  <Name>  (381) 
nan

>  <Pocket>  (381) 
nan

>  <ATP_Site>  (381) 
nan

>  <Peripheral>  (381) 
nan

>  <Num_H_Atoms_ProtBoundConf>  (381) 
nan

>  <Num_Resolved_Atoms>  (381) 
nan

>  <Num_Not_Resolved_Atoms>  (381) 
nan

$$$$
CHEMBL4214200
     RDKit          3D

  0  0  0  0  0  0  0  0  0  0999 V3000
M  V30 BEGIN CTAB
M  V30 COUNTS 34 36 0 0 0
M  V30 BEGIN ATOM
M  V30 1 O 0.489839 -2.052650 4.837456 0
M  V30 2 C 0.808542 -1.711909 3.671598 0
M  V30 3 N 2.217556 -1.678222 3.385439 0
M  V30 4 C 2.408646 -1.275842 2.031828 0
M  V30 5 C 3.474437 -1.060839 1.188752 0
M  V30 6 C 3.299283 -0.658080 -0.120960 0
M  V30 7 C 2.047392 -0.450622 -0.651364 0
M  V30 8 O 1.984013 -0.046865 -1.978134 0
M  V30 9 C 1.992774 1.327054 -2.352684 0
M  V30 10 F 1.920659 1.456266 -3.734402 0
M  V30 11 F 3.204857 1.835798 -1.922030 0
M  V30 12 F 1.019813 2.051579 -1.729608 0
M  V30 13 C 0.946673 -0.657941 0.170645 0
M  V30 14 C 1.171940 -1.058346 1.466368 0
M  V30 15 C 0.117102 -1.312019 2.435592 0
M  V30 16 N -1.165015 -1.284775 2.504744 0
M  V30 17 N -1.943871 -0.928279 1.423145 0
M  V30 18 C -2.357126 -2.007441 0.540956 0
M  V30 19 C -3.251399 -1.366049 -0.498943 0
M  V30 20 O -2.797296 -0.152456 -0.945042 0
M  V30 21 C -2.764008 0.866104 -0.026476 0
M  V30 22 C -2.245998 0.486441 1.318923 0
M  V30 23 H 3.061941 -1.879884 3.947305 0
M  V30 24 H 4.476451 -1.222669 1.599462 0
M  V30 25 H 4.205978 -0.519623 -0.691284 0
M  V30 26 H -0.030045 -0.491553 -0.258034 0
M  V30 27 H -1.534753 -2.484862 0.005876 0
M  V30 28 H -2.967261 -2.722054 1.101093 0
M  V30 29 H -4.313021 -1.311859 -0.148100 0
M  V30 30 H -3.261012 -2.044117 -1.377896 0
M  V30 31 H -2.195106 1.704214 -0.471376 0
M  V30 32 H -3.812277 1.259527 0.108501 0
M  V30 33 H -2.923803 0.823702 2.148489 0
M  V30 34 H -1.287512 1.024786 1.478406 0
M  V30 END ATOM
M  V30 BEGIN BOND
M  V30 1 2 1 2
M  V30 2 1 2 3
M  V30 3 1 3 4
M  V30 4 2 4 5
M  V30 5 1 5 6
M  V30 6 2 6 7
M  V30 7 1 7 8
M  V30 8 1 8 9
M  V30 9 1 9 10
M  V30 10 1 9 11
M  V30 11 1 9 12
M  V30 12 1 7 13
M  V30 13 2 13 14
M  V30 14 1 14 15
M  V30 15 2 15 16 CFG=2
M  V30 16 1 16 17
M  V30 17 1 17 18
M  V30 18 1 18 19
M  V30 19 1 19 20
M  V30 20 1 20 21
M  V30 21 1 21 22
M  V30 22 1 15 2
M  V30 23 1 22 17
M  V30 24 1 14 4
M  V30 25 1 3 23
M  V30 26 1 5 24
M  V30 27 1 6 25
M  V30 28 1 13 26
M  V30 29 1 18 27
M  V30 30 1 18 28
M  V30 31 1 19 29
M  V30 32 1 19 30
M  V30 33 1 21 31
M  V30 34 1 21 32
M  V30 35 1 22 33
M  V30 36 1 22 34
M  V30 END BOND
M  V30 END CTAB
M  END
>  <Dataset>  (382) 
ChEMBL_Kinases

>  <Ligand_Instance>  (382) 
nan

>  <PDB_ID>  (382) 
nan

>  <Standardized_SMILES>  (382) 
O=C1Nc2ccc(OC(F)(F)F)cc2C1=NN1CCOCC1

>  <Name>  (382) 
nan

>  <Pocket>  (382) 
nan

>  <ATP_Site>  (382) 
nan

>  <Peripheral>  (382) 
nan

>  <Num_H_Atoms_ProtBoundConf>  (382) 
nan

>  <Num_Resolved_Atoms>  (382) 
nan

>  <Num_Not_Resolved_Atoms>  (382) 
nan

$$$$
CHEMBL478031
     RDKit          3D

  0  0  0  0  0  0  0  0  0  0999 V3000
M  V30 BEGIN CTAB
M  V30 COUNTS 64 68 0 0 0
M  V30 BEGIN ATOM
M  V30 1 C 0.831482 -2.148981 4.796093 0
M  V30 2 C 1.080127 -1.062611 3.825140 0
M  V30 3 C 1.758022 0.089724 4.171364 0
M  V30 4 C 1.968756 1.095029 3.223799 0
M  V30 5 C 1.504734 0.952788 1.932431 0
M  V30 6 N 1.701505 1.963994 0.931152 0
M  V30 7 C 2.888956 1.830602 0.185885 0
M  V30 8 O 3.615968 0.851287 0.492141 0
M  V30 9 C 3.330189 2.715214 -0.884523 0
M  V30 10 C 4.530886 2.422045 -1.499240 0
M  V30 11 C 4.913234 3.280422 -2.505057 0
M  V30 12 N 4.200971 4.343999 -2.897791 0
M  V30 13 C 3.011648 4.673122 -2.322060 0
M  V30 14 N 2.265967 5.796474 -2.730901 0
M  V30 15 C 0.986737 6.215451 -2.241155 0
M  V30 16 C -0.131677 5.226267 -2.521992 0
M  V30 17 C -1.540644 5.593739 -2.027017 0
M  V30 18 C -1.216466 5.669576 -3.467353 0
M  V30 19 C 2.633465 3.813424 -1.317744 0
M  V30 20 C 0.835683 -0.216098 1.641896 0
M  V30 21 C 0.603035 -1.237238 2.543154 0
M  V30 22 C -0.123445 -2.391593 2.028501 0
M  V30 23 C -1.252303 -2.131198 1.284770 0
M  V30 24 C -2.061915 -3.121584 0.716097 0
M  V30 25 C -1.724822 -4.443719 0.901062 0
M  V30 26 C -2.572369 -5.470708 0.306674 0
M  V30 27 O -3.573940 -5.031886 -0.348575 0
M  V30 28 N -2.321679 -6.886363 0.433408 0
M  V30 29 C -3.177235 -7.875221 -0.146946 0
M  V30 30 C -4.543396 -7.931898 0.424498 0
M  V30 31 C -4.813006 -8.278926 1.840571 0
M  V30 32 C -4.914294 -6.866269 1.426509 0
M  V30 33 C -0.594763 -4.701469 1.645679 0
M  V30 34 C 0.194536 -3.722202 2.200304 0
M  V30 35 H 0.630813 -1.756200 5.821102 0
M  V30 36 H -0.069391 -2.720134 4.497123 0
M  V30 37 H 1.671667 -2.894338 4.852610 0
M  V30 38 H 2.114806 0.181239 5.193223 0
M  V30 39 H 2.502692 1.990634 3.515844 0
M  V30 40 H 1.070034 2.763820 0.708279 0
M  V30 41 H 5.186416 1.594554 -1.266890 0
M  V30 42 H 5.836173 3.194829 -3.096253 0
M  V30 43 H 2.706310 6.397676 -3.488282 0
M  V30 44 H 1.012607 6.294136 -1.115375 0
M  V30 45 H 0.689482 7.186292 -2.632352 0
M  V30 46 H 0.103486 4.143913 -2.524326 0
M  V30 47 H -2.211492 4.783139 -1.700068 0
M  V30 48 H -1.624667 6.516173 -1.409805 0
M  V30 49 H -1.026710 6.647577 -3.973179 0
M  V30 50 H -1.684074 4.908871 -4.139429 0
M  V30 51 H 1.709404 3.982111 -0.788196 0
M  V30 52 H 0.481359 -0.292781 0.603642 0
M  V30 53 H -1.560867 -1.090899 1.110215 0
M  V30 54 H -2.930132 -2.797842 0.148035 0
M  V30 55 H -1.467838 -7.128804 0.981442 0
M  V30 56 H -3.172883 -7.752715 -1.258044 0
M  V30 57 H -2.704604 -8.877937 0.075284 0
M  V30 58 H -5.319853 -8.247128 -0.317101 0
M  V30 59 H -5.766665 -8.768191 2.122800 0
M  V30 60 H -3.948631 -8.608779 2.436778 0
M  V30 61 H -4.197848 -6.204089 1.908110 0
M  V30 62 H -5.902696 -6.397642 1.229019 0
M  V30 63 H -0.288954 -5.720334 1.818749 0
M  V30 64 H 1.078572 -3.927724 2.779984 0
M  V30 END ATOM
M  V30 BEGIN BOND
M  V30 1 1 1 2
M  V30 2 2 2 3
M  V30 3 1 3 4
M  V30 4 2 4 5
M  V30 5 1 5 6
M  V30 6 1 6 7
M  V30 7 2 7 8
M  V30 8 1 7 9
M  V30 9 2 9 10
M  V30 10 1 10 11
M  V30 11 2 11 12
M  V30 12 1 12 13
M  V30 13 1 13 14
M  V30 14 1 14 15
M  V30 15 1 15 16
M  V30 16 1 16 17
M  V30 17 1 17 18
M  V30 18 2 13 19
M  V30 19 1 5 20
M  V30 20 2 20 21
M  V30 21 1 21 22
M  V30 22 2 22 23
M  V30 23 1 23 24
M  V30 24 2 24 25
M  V30 25 1 25 26
M  V30 26 2 26 27
M  V30 27 1 26 28
M  V30 28 1 28 29
M  V30 29 1 29 30
M  V30 30 1 30 31
M  V30 31 1 31 32
M  V30 32 1 25 33
M  V30 33 2 33 34
M  V30 34 1 21 2
M  V30 35 1 34 22
M  V30 36 1 19 9
M  V30 37 1 32 30
M  V30 38 1 18 16
M  V30 39 1 1 35
M  V30 40 1 1 36
M  V30 41 1 1 37
M  V30 42 1 3 38
M  V30 43 1 4 39
M  V30 44 1 6 40
M  V30 45 1 10 41
M  V30 46 1 11 42
M  V30 47 1 14 43
M  V30 48 1 15 44
M  V30 49 1 15 45
M  V30 50 1 16 46
M  V30 51 1 17 47
M  V30 52 1 17 48
M  V30 53 1 18 49
M  V30 54 1 18 50
M  V30 55 1 19 51
M  V30 56 1 20 52
M  V30 57 1 23 53
M  V30 58 1 24 54
M  V30 59 1 28 55
M  V30 60 1 29 56
M  V30 61 1 29 57
M  V30 62 1 30 58
M  V30 63 1 31 59
M  V30 64 1 31 60
M  V30 65 1 32 61
M  V30 66 1 32 62
M  V30 67 1 33 63
M  V30 68 1 34 64
M  V30 END BOND
M  V30 END CTAB
M  END
>  <Dataset>  (383) 
ChEMBL_Kinases

>  <Ligand_Instance>  (383) 
nan

>  <PDB_ID>  (383) 
nan

>  <Standardized_SMILES>  (383) 
Cc1ccc(NC(=O)c2ccnc(NCC3CC3)c2)cc1-c1ccc(C(=O)NCC2CC2)cc1

>  <Name>  (383) 
nan

>  <Pocket>  (383) 
nan

>  <ATP_Site>  (383) 
nan

>  <Peripheral>  (383) 
nan

>  <Num_H_Atoms_ProtBoundConf>  (383) 
nan

>  <Num_Resolved_Atoms>  (383) 
nan

>  <Num_Not_Resolved_Atoms>  (383) 
nan

$$$$
CHEMBL4780310
     RDKit          3D

  0  0  0  0  0  0  0  0  0  0999 V3000
M  V30 BEGIN CTAB
M  V30 COUNTS 59 63 0 0 0
M  V30 BEGIN ATOM
M  V30 1 C 5.159438 -3.372544 2.056366 0
M  V30 2 N 5.676737 -2.975622 0.795861 0
M  V30 3 C 5.996194 -1.599530 0.643689 0
M  V30 4 C 5.046977 -0.808876 -0.204108 0
M  V30 5 C 3.813635 -1.653133 -0.441240 0
M  V30 6 N 2.798711 -0.867208 -1.125194 0
M  V30 7 C 1.602246 -0.433217 -0.644064 0
M  V30 8 C 0.990707 0.276598 -1.658963 0
M  V30 9 C -0.308531 0.948549 -1.654326 0
M  V30 10 C -0.444452 2.095874 -2.449707 0
M  V30 11 N -1.591397 2.814782 -2.537621 0
M  V30 12 C -2.691578 2.459511 -1.850348 0
M  V30 13 N -3.952456 2.912127 -1.696950 0
M  V30 14 C -4.625753 2.113287 -0.846714 0
M  V30 15 C -3.787916 1.084134 -0.410910 0
M  V30 16 C -4.233363 0.054942 0.516662 0
M  V30 17 C -5.498300 -0.487617 0.264019 0
M  V30 18 C -5.968585 -1.463975 1.108858 0
M  V30 19 C -7.277318 -2.035303 0.860442 0
M  V30 20 N -8.318300 -2.487878 0.645817 0
M  V30 21 C -5.232513 -1.908447 2.177448 0
M  V30 22 Cl -5.893168 -3.152996 3.209410 0
M  V30 23 C -3.978184 -1.400214 2.464396 0
M  V30 24 N -3.207686 -1.843807 3.554813 0
M  V30 25 S -1.681603 -1.202743 4.004352 0
M  V30 26 C -1.739943 0.508986 4.444034 0
M  V30 27 O -1.150401 -1.936814 5.203113 0
M  V30 28 O -0.656555 -1.398162 2.899023 0
M  V30 29 C -3.532480 -0.424594 1.602497 0
M  V30 30 C -2.594472 1.334919 -1.057413 0
M  V30 31 C -1.439307 0.586271 -0.950451 0
M  V30 32 C 1.843574 0.254495 -2.744632 0
M  V30 33 N 2.934201 -0.448426 -2.389010 0
M  V30 34 C 4.194717 -2.897003 -1.182683 0
M  V30 35 C 5.191616 -3.655658 -0.353264 0
M  V30 36 H 4.289490 -4.072640 1.948176 0
M  V30 37 H 5.966133 -3.965862 2.571122 0
M  V30 38 H 4.928584 -2.552417 2.760585 0
M  V30 39 H 6.055103 -1.150541 1.666545 0
M  V30 40 H 7.028578 -1.474104 0.227387 0
M  V30 41 H 5.506990 -0.536671 -1.193297 0
M  V30 42 H 4.787473 0.135704 0.280722 0
M  V30 43 H 3.436075 -1.956312 0.554250 0
M  V30 44 H 1.208843 -0.610383 0.341190 0
M  V30 45 H 0.353782 2.517184 -3.069559 0
M  V30 46 H -4.275908 3.778680 -2.211118 0
M  V30 47 H -5.666009 2.268983 -0.559507 0
M  V30 48 H -6.129989 -0.180021 -0.563814 0
M  V30 49 H -3.623371 -2.637016 4.128296 0
M  V30 50 H -2.655031 0.738166 5.028995 0
M  V30 51 H -1.661937 1.204314 3.603613 0
M  V30 52 H -0.868198 0.719743 5.134920 0
M  V30 53 H -2.568846 0.050364 1.717266 0
M  V30 54 H -1.334475 -0.298781 -0.338005 0
M  V30 55 H 1.738623 0.692043 -3.738992 0
M  V30 56 H 4.666331 -2.633692 -2.141735 0
M  V30 57 H 3.279121 -3.480423 -1.377935 0
M  V30 58 H 6.065374 -3.977286 -0.994304 0
M  V30 59 H 4.697640 -4.584679 -0.018454 0
M  V30 END ATOM
M  V30 BEGIN BOND
M  V30 1 1 1 2
M  V30 2 1 2 3
M  V30 3 1 3 4
M  V30 4 1 4 5
M  V30 5 1 5 6
M  V30 6 1 6 7
M  V30 7 2 7 8
M  V30 8 1 8 9
M  V30 9 2 9 10
M  V30 10 1 10 11
M  V30 11 2 11 12
M  V30 12 1 12 13
M  V30 13 1 13 14
M  V30 14 2 14 15
M  V30 15 1 15 16
M  V30 16 2 16 17
M  V30 17 1 17 18
M  V30 18 1 18 19
M  V30 19 3 19 20
M  V30 20 2 18 21
M  V30 21 1 21 22
M  V30 22 1 21 23
M  V30 23 1 23 24
M  V30 24 1 24 25
M  V30 25 1 25 26
M  V30 26 2 25 27
M  V30 27 2 25 28
M  V30 28 2 23 29
M  V30 29 1 15 30
M  V30 30 2 30 31
M  V30 31 1 8 32
M  V30 32 2 32 33
M  V30 33 1 5 34
M  V30 34 1 34 35
M  V30 35 1 35 2
M  V30 36 1 33 6
M  V30 37 1 31 9
M  V30 38 1 30 12
M  V30 39 1 29 16
M  V30 40 1 1 36
M  V30 41 1 1 37
M  V30 42 1 1 38
M  V30 43 1 3 39
M  V30 44 1 3 40
M  V30 45 1 4 41
M  V30 46 1 4 42
M  V30 47 1 5 43
M  V30 48 1 7 44
M  V30 49 1 10 45
M  V30 50 1 13 46
M  V30 51 1 14 47
M  V30 52 1 17 48
M  V30 53 1 24 49
M  V30 54 1 26 50
M  V30 55 1 26 51
M  V30 56 1 26 52
M  V30 57 1 29 53
M  V30 58 1 31 54
M  V30 59 1 32 55
M  V30 60 1 34 56
M  V30 61 1 34 57
M  V30 62 1 35 58
M  V30 63 1 35 59
M  V30 END BOND
M  V30 END CTAB
M  END
>  <Dataset>  (384) 
ChEMBL_Kinases

>  <Ligand_Instance>  (384) 
nan

>  <PDB_ID>  (384) 
nan

>  <Standardized_SMILES>  (384) 
CN1CCC(n2cc(-c3cnc4[nH]cc(-c5cc(C#N)c(Cl)c(NS(C)(=O)=O)c5)c4c3)cn2)CC1

>  <Name>  (384) 
nan

>  <Pocket>  (384) 
nan

>  <ATP_Site>  (384) 
nan

>  <Peripheral>  (384) 
nan

>  <Num_H_Atoms_ProtBoundConf>  (384) 
nan

>  <Num_Resolved_Atoms>  (384) 
nan

>  <Num_Not_Resolved_Atoms>  (384) 
nan

$$$$
CHEMBL4780313
     RDKit          3D

  0  0  0  0  0  0  0  0  0  0999 V3000
M  V30 BEGIN CTAB
M  V30 COUNTS 58 61 0 0 0
M  V30 BEGIN ATOM
M  V30 1 C 0.506346 -2.973970 6.059187 0
M  V30 2 C 1.701603 -2.884451 5.484045 0
M  V30 3 C 2.497532 -1.648013 5.172287 0
M  V30 4 C 2.753812 -1.556300 3.684169 0
M  V30 5 C 3.552245 -0.306608 3.404744 0
M  V30 6 C 3.868987 -0.101174 1.981706 0
M  V30 7 C 5.136583 -0.377247 1.459173 0
M  V30 8 C 5.538554 -0.230203 0.150734 0
M  V30 9 N 4.620204 0.223667 -0.706566 0
M  V30 10 C 3.386747 0.512115 -0.294146 0
M  V30 11 C 2.425935 0.988870 -1.190928 0
M  V30 12 C 1.128709 1.301272 -0.790771 0
M  V30 13 C 0.759094 1.139971 0.540838 0
M  V30 14 C -0.622750 1.493996 0.853988 0
M  V30 15 C -1.128132 2.266596 1.905544 0
M  V30 16 N -2.468072 2.336503 1.800495 0
M  V30 17 C -2.885836 1.643077 0.722142 0
M  V30 18 N -4.135858 1.449018 0.247666 0
M  V30 19 C -4.264871 0.701368 -0.861935 0
M  V30 20 C -3.204996 0.131887 -1.529898 0
M  V30 21 C -3.342016 -0.701338 -2.763517 0
M  V30 22 N -3.503724 -2.056067 -2.304677 0
M  V30 23 C -2.407317 -2.555049 -1.516948 0
M  V30 24 C -3.955484 -2.982379 -3.301675 0
M  V30 25 C -2.939784 -3.237502 -4.372826 0
M  V30 26 C -2.939565 -3.065135 -5.684285 0
M  V30 27 C -1.933909 0.358313 -1.005515 0
M  V30 28 C -1.757884 1.118395 0.129510 0
M  V30 29 C 1.704864 0.669404 1.429468 0
M  V30 30 C 2.969119 0.366190 1.031934 0
M  V30 31 H -0.041435 -2.085028 6.378469 0
M  V30 32 H -0.446127 -2.785734 6.532328 0
M  V30 33 H 2.107065 -3.856828 5.227764 0
M  V30 34 H 1.978656 -0.761964 5.552902 0
M  V30 35 H 3.445931 -1.767072 5.722868 0
M  V30 36 H 1.860311 -1.687594 3.082085 0
M  V30 37 H 3.456458 -2.411784 3.454757 0
M  V30 38 H 3.117328 0.589584 3.888976 0
M  V30 39 H 4.531078 -0.452656 3.931047 0
M  V30 40 H 5.869495 -0.744821 2.172672 0
M  V30 41 H 6.554208 -0.482323 -0.117952 0
M  V30 42 H 2.773603 1.095882 -2.225808 0
M  V30 43 H 0.520161 1.659720 -1.622992 0
M  V30 44 H -0.485794 2.713103 2.658287 0
M  V30 45 H -3.015729 2.876305 2.505494 0
M  V30 46 H -5.268707 0.530908 -1.263799 0
M  V30 47 H -2.454707 -0.534626 -3.404338 0
M  V30 48 H -4.255361 -0.421637 -3.297825 0
M  V30 49 H -2.648426 -3.611962 -1.281589 0
M  V30 50 H -1.415269 -2.428128 -1.953028 0
M  V30 51 H -2.419371 -2.013172 -0.540695 0
M  V30 52 H -4.891332 -2.568013 -3.746723 0
M  V30 53 H -4.189812 -3.931119 -2.764995 0
M  V30 54 H -1.984119 -3.654529 -4.034165 0
M  V30 55 H -2.397888 -3.154813 -6.608542 0
M  V30 56 H -3.901976 -2.647198 -6.007530 0
M  V30 57 H -1.108419 -0.086874 -1.526593 0
M  V30 58 H 1.394651 0.559318 2.442247 0
M  V30 END ATOM
M  V30 BEGIN BOND
M  V30 1 2 1 2
M  V30 2 1 2 3
M  V30 3 1 3 4
M  V30 4 1 4 5
M  V30 5 1 5 6
M  V30 6 2 6 7
M  V30 7 1 7 8
M  V30 8 2 8 9
M  V30 9 1 9 10
M  V30 10 2 10 11
M  V30 11 1 11 12
M  V30 12 2 12 13
M  V30 13 1 13 14
M  V30 14 2 14 15
M  V30 15 1 15 16
M  V30 16 1 16 17
M  V30 17 2 17 18
M  V30 18 1 18 19
M  V30 19 2 19 20
M  V30 20 1 20 21
M  V30 21 1 21 22
M  V30 22 1 22 23
M  V30 23 1 22 24
M  V30 24 1 24 25
M  V30 25 2 25 26
M  V30 26 1 20 27
M  V30 27 2 27 28
M  V30 28 1 13 29
M  V30 29 2 29 30
M  V30 30 1 30 6
M  V30 31 1 30 10
M  V30 32 1 28 14
M  V30 33 1 28 17
M  V30 34 1 1 31
M  V30 35 1 1 32
M  V30 36 1 2 33
M  V30 37 1 3 34
M  V30 38 1 3 35
M  V30 39 1 4 36
M  V30 40 1 4 37
M  V30 41 1 5 38
M  V30 42 1 5 39
M  V30 43 1 7 40
M  V30 44 1 8 41
M  V30 45 1 11 42
M  V30 46 1 12 43
M  V30 47 1 15 44
M  V30 48 1 16 45
M  V30 49 1 19 46
M  V30 50 1 21 47
M  V30 51 1 21 48
M  V30 52 1 23 49
M  V30 53 1 23 50
M  V30 54 1 23 51
M  V30 55 1 24 52
M  V30 56 1 24 53
M  V30 57 1 25 54
M  V30 58 1 26 55
M  V30 59 1 26 56
M  V30 60 1 27 57
M  V30 61 1 29 58
M  V30 END BOND
M  V30 END CTAB
M  END
>  <Dataset>  (385) 
ChEMBL_Kinases

>  <Ligand_Instance>  (385) 
nan

>  <PDB_ID>  (385) 
nan

>  <Standardized_SMILES>  (385) 
C=CCCCc1ccnc2ccc(-c3c[nH]c4ncc(CN(C)CC=C)cc34)cc12

>  <Name>  (385) 
nan

>  <Pocket>  (385) 
nan

>  <ATP_Site>  (385) 
nan

>  <Peripheral>  (385) 
nan

>  <Num_H_Atoms_ProtBoundConf>  (385) 
nan

>  <Num_Resolved_Atoms>  (385) 
nan

>  <Num_Not_Resolved_Atoms>  (385) 
nan

$$$$
CHEMBL4780320
     RDKit          3D

  0  0  0  0  0  0  0  0  0  0999 V3000
M  V30 BEGIN CTAB
M  V30 COUNTS 56 60 0 0 0
M  V30 BEGIN ATOM
M  V30 1 O -2.607417 -4.605458 0.142689 0
M  V30 2 S -2.119481 -3.183422 -0.056370 0
M  V30 3 O -0.619398 -3.284776 -0.132259 0
M  V30 4 N -2.639584 -2.273248 1.288017 0
M  V30 5 C -2.253604 -0.895365 1.245305 0
M  V30 6 C -2.738786 -0.125756 2.463945 0
M  V30 7 N -2.362341 1.263130 2.441762 0
M  V30 8 C -0.981766 1.588880 2.377398 0
M  V30 9 N -0.235398 1.688706 3.498691 0
M  V30 10 C 1.090903 2.006786 3.431920 0
M  V30 11 C 1.603151 2.213846 2.175526 0
M  V30 12 C 0.876136 2.121259 1.010148 0
M  V30 13 C 1.351449 2.325648 -0.351483 0
M  V30 14 C 2.250012 1.428496 -0.882952 0
M  V30 15 C 2.950222 0.217992 -0.482271 0
M  V30 16 C 2.617536 -0.945446 -1.179289 0
M  V30 17 C 3.158610 -2.187996 -0.963727 0
M  V30 18 C 4.116082 -2.279448 0.034654 0
M  V30 19 C 4.480578 -1.157336 0.753531 0
M  V30 20 F 5.426300 -1.215487 1.750331 0
M  V30 21 C 3.908120 0.054854 0.495439 0
M  V30 22 N 2.516709 1.837460 -2.113193 0
M  V30 23 C 1.798405 2.970326 -2.349167 0
M  V30 24 S 1.347927 4.335198 -3.534454 0
M  V30 25 C 0.224528 5.148661 -2.379038 0
M  V30 26 C 0.286123 4.358516 -1.259779 0
M  V30 27 N 1.071929 3.278688 -1.256718 0
M  V30 28 N -0.423421 1.804690 1.149431 0
M  V30 29 C -2.748433 -2.649400 -1.571630 0
M  V30 30 C -3.925928 -3.140959 -2.059112 0
M  V30 31 C -4.416397 -2.700205 -3.286855 0
M  V30 32 C -3.667554 -1.758336 -3.975798 0
M  V30 33 C -4.044993 -1.181751 -5.303362 0
M  V30 34 F -5.062831 -1.879283 -5.888308 0
M  V30 35 F -2.920176 -1.231710 -6.102617 0
M  V30 36 F -4.329296 0.156230 -5.124586 0
M  V30 37 C -2.462891 -1.253845 -3.479117 0
M  V30 38 C -2.007821 -1.713326 -2.259777 0
M  V30 39 H -2.182399 -2.686379 2.133503 0
M  V30 40 H -1.128011 -0.890268 1.340114 0
M  V30 41 H -2.468164 -0.367357 0.304279 0
M  V30 42 H -3.836967 -0.215662 2.560822 0
M  V30 43 H -2.281865 -0.556078 3.378247 0
M  V30 44 H -2.902854 2.175289 2.463242 0
M  V30 45 H 1.730567 2.098378 4.302261 0
M  V30 46 H 2.643669 2.471320 2.057956 0
M  V30 47 H 1.867437 -0.909198 -1.971644 0
M  V30 48 H 2.856061 -3.051097 -1.540222 0
M  V30 49 H 4.571034 -3.242836 0.239830 0
M  V30 50 H 4.162319 0.952897 1.026542 0
M  V30 51 H -0.252191 6.015991 -2.716375 0
M  V30 52 H -0.355465 4.753465 -0.489272 0
M  V30 53 H -4.527973 -3.886987 -1.522763 0
M  V30 54 H -5.341152 -3.035593 -3.748746 0
M  V30 55 H -1.864643 -0.518504 -4.002441 0
M  V30 56 H -1.077927 -1.324919 -1.875657 0
M  V30 END ATOM
M  V30 BEGIN BOND
M  V30 1 2 1 2
M  V30 2 2 2 3
M  V30 3 1 2 4
M  V30 4 1 4 5
M  V30 5 1 5 6
M  V30 6 1 6 7
M  V30 7 1 7 8
M  V30 8 2 8 9
M  V30 9 1 9 10
M  V30 10 2 10 11
M  V30 11 1 11 12
M  V30 12 1 12 13
M  V30 13 2 13 14
M  V30 14 1 14 15
M  V30 15 2 15 16
M  V30 16 1 16 17
M  V30 17 2 17 18
M  V30 18 1 18 19
M  V30 19 1 19 20
M  V30 20 2 19 21
M  V30 21 1 14 22
M  V30 22 2 22 23
M  V30 23 1 23 24
M  V30 24 1 24 25
M  V30 25 2 25 26
M  V30 26 1 26 27
M  V30 27 2 12 28
M  V30 28 1 2 29
M  V30 29 2 29 30
M  V30 30 1 30 31
M  V30 31 2 31 32
M  V30 32 1 32 33
M  V30 33 1 33 34
M  V30 34 1 33 35
M  V30 35 1 33 36
M  V30 36 1 32 37
M  V30 37 2 37 38
M  V30 38 1 28 8
M  V30 39 1 38 29
M  V30 40 1 27 13
M  V30 41 1 21 15
M  V30 42 1 27 23
M  V30 43 1 4 39
M  V30 44 1 5 40
M  V30 45 1 5 41
M  V30 46 1 6 42
M  V30 47 1 6 43
M  V30 48 1 7 44
M  V30 49 1 10 45
M  V30 50 1 11 46
M  V30 51 1 16 47
M  V30 52 1 17 48
M  V30 53 1 18 49
M  V30 54 1 21 50
M  V30 55 1 25 51
M  V30 56 1 26 52
M  V30 57 1 30 53
M  V30 58 1 31 54
M  V30 59 1 37 55
M  V30 60 1 38 56
M  V30 END BOND
M  V30 END CTAB
M  END
>  <Dataset>  (386) 
ChEMBL_Kinases

>  <Ligand_Instance>  (386) 
nan

>  <PDB_ID>  (386) 
nan

>  <Standardized_SMILES>  (386) 
O=S(=O)(NCCNc1nccc(-c2c(-c3cccc(F)c3)nc3sccn23)n1)c1ccc(C(F)(F)F)cc1

>  <Name>  (386) 
nan

>  <Pocket>  (386) 
nan

>  <ATP_Site>  (386) 
nan

>  <Peripheral>  (386) 
nan

>  <Num_H_Atoms_ProtBoundConf>  (386) 
nan

>  <Num_Resolved_Atoms>  (386) 
nan

>  <Num_Not_Resolved_Atoms>  (386) 
nan

$$$$
CHEMBL4213079
     RDKit          3D

  0  0  0  0  0  0  0  0  0  0999 V3000
M  V30 BEGIN CTAB
M  V30 COUNTS 43 46 0 0 0
M  V30 BEGIN ATOM
M  V30 1 O 1.075421 -0.373927 5.386687 0
M  V30 2 C 1.438232 -0.019525 4.249794 0
M  V30 3 N 2.519803 0.868014 3.988526 0
M  V30 4 C 2.630330 1.033232 2.581489 0
M  V30 5 C 3.513650 1.786775 1.827459 0
M  V30 6 C 3.411704 1.778727 0.441030 0
M  V30 7 C 2.413950 1.005545 -0.163469 0
M  V30 8 O 2.411978 1.078954 -1.564391 0
M  V30 9 C 1.686828 2.016975 -2.302876 0
M  V30 10 F 1.925833 1.788477 -3.651935 0
M  V30 11 F 2.125997 3.273843 -1.939820 0
M  V30 12 F 0.330036 1.888855 -2.012979 0
M  V30 13 C 1.540623 0.259565 0.600332 0
M  V30 14 C 1.661726 0.285236 1.947686 0
M  V30 15 C 0.881435 -0.398483 2.941266 0
M  V30 16 N -0.095847 -1.182345 2.843585 0
M  V30 17 N -0.635118 -1.551762 1.624285 0
M  V30 18 C -1.675814 -0.707634 1.161582 0
M  V30 19 C -2.055042 -0.565700 -0.155198 0
M  V30 20 C -3.075723 0.234630 -0.619254 0
M  V30 21 C -3.795723 0.969065 0.299016 0
M  V30 22 C -3.456054 0.863218 1.629963 0
M  V30 23 C -2.426489 0.047039 2.035010 0
M  V30 24 C -0.076678 -2.719543 1.040106 0
M  V30 25 C -0.699760 -3.527509 0.114752 0
M  V30 26 C -0.154078 -4.649769 -0.466685 0
M  V30 27 C 1.125465 -5.015792 -0.106152 0
M  V30 28 C 1.790182 -4.238127 0.817646 0
M  V30 29 C 1.197591 -3.125436 1.368093 0
M  V30 30 H 3.147687 1.337840 4.678090 0
M  V30 31 H 4.275423 2.376355 2.302544 0
M  V30 32 H 4.103856 2.367791 -0.123491 0
M  V30 33 H 0.856196 -0.260443 -0.021149 0
M  V30 34 H -1.532382 -1.097962 -0.932034 0
M  V30 35 H -3.332182 0.309020 -1.664869 0
M  V30 36 H -4.615944 1.629951 0.056418 0
M  V30 37 H -4.020563 1.442672 2.374577 0
M  V30 38 H -2.225428 0.021915 3.097438 0
M  V30 39 H -1.702413 -3.306872 -0.202067 0
M  V30 40 H -0.689590 -5.245701 -1.187609 0
M  V30 41 H 1.562872 -5.895278 -0.556970 0
M  V30 42 H 2.791518 -4.557542 1.074970 0
M  V30 43 H 1.821458 -2.603728 2.077397 0
M  V30 END ATOM
M  V30 BEGIN BOND
M  V30 1 2 1 2
M  V30 2 1 2 3
M  V30 3 1 3 4
M  V30 4 2 4 5
M  V30 5 1 5 6
M  V30 6 2 6 7
M  V30 7 1 7 8
M  V30 8 1 8 9
M  V30 9 1 9 10
M  V30 10 1 9 11
M  V30 11 1 9 12
M  V30 12 1 7 13
M  V30 13 2 13 14
M  V30 14 1 14 15
M  V30 15 2 15 16
M  V30 16 1 16 17
M  V30 17 1 17 18
M  V30 18 2 18 19
M  V30 19 1 19 20
M  V30 20 2 20 21
M  V30 21 1 21 22
M  V30 22 2 22 23
M  V30 23 1 17 24
M  V30 24 2 24 25
M  V30 25 1 25 26
M  V30 26 2 26 27
M  V30 27 1 27 28
M  V30 28 2 28 29
M  V30 29 1 15 2
M  V30 30 1 23 18
M  V30 31 1 29 24
M  V30 32 1 14 4
M  V30 33 1 3 30
M  V30 34 1 5 31
M  V30 35 1 6 32
M  V30 36 1 13 33
M  V30 37 1 19 34
M  V30 38 1 20 35
M  V30 39 1 21 36
M  V30 40 1 22 37
M  V30 41 1 23 38
M  V30 42 1 25 39
M  V30 43 1 26 40
M  V30 44 1 27 41
M  V30 45 1 28 42
M  V30 46 1 29 43
M  V30 END BOND
M  V30 END CTAB
M  END
>  <Dataset>  (387) 
ChEMBL_Kinases

>  <Ligand_Instance>  (387) 
nan

>  <PDB_ID>  (387) 
nan

>  <Standardized_SMILES>  (387) 
O=C1Nc2ccc(OC(F)(F)F)cc2/C1=N\N(c1ccccc1)c1ccccc1

>  <Name>  (387) 
nan

>  <Pocket>  (387) 
nan

>  <ATP_Site>  (387) 
nan

>  <Peripheral>  (387) 
nan

>  <Num_H_Atoms_ProtBoundConf>  (387) 
nan

>  <Num_Resolved_Atoms>  (387) 
nan

>  <Num_Not_Resolved_Atoms>  (387) 
nan

$$$$
CHEMBL4780324
     RDKit          3D

  0  0  0  0  0  0  0  0  0  0999 V3000
M  V30 BEGIN CTAB
M  V30 COUNTS 44 47 0 0 0
M  V30 BEGIN ATOM
M  V30 1 O 3.088311 -0.444538 -1.247220 0
M  V30 2 C 2.551575 -0.829304 -0.167705 0
M  V30 3 N 3.279728 -1.784262 0.595271 0
M  V30 4 C 4.547626 -2.304768 0.200753 0
M  V30 5 C 5.641385 -1.584598 0.658694 0
M  V30 6 C 6.927207 -2.005450 0.331774 0
M  V30 7 C 7.072631 -3.136741 -0.445013 0
M  V30 8 C 5.980624 -3.853947 -0.900994 0
M  V30 9 Cl 6.127438 -5.295378 -1.889459 0
M  V30 10 C 4.702986 -3.439998 -0.579040 0
M  V30 11 N 1.290486 -0.347377 0.278397 0
M  V30 12 C 0.505593 0.607478 -0.431672 0
M  V30 13 C 0.168002 1.857951 0.284285 0
M  V30 14 C -1.247051 1.948009 0.789572 0
M  V30 15 N -1.873762 0.651968 0.936661 0
M  V30 16 C -2.844774 0.289266 1.911771 0
M  V30 17 N -2.588203 -0.705191 2.793439 0
M  V30 18 C -3.478227 -1.089490 3.743585 0
M  V30 19 N -4.685444 -0.467678 3.837187 0
M  V30 20 C -5.012305 0.532469 2.992819 0
M  V30 21 N -6.113339 1.306887 2.861178 0
M  V30 22 N -5.873766 2.129568 1.853177 0
M  V30 23 C -4.661023 1.910585 1.335102 0
M  V30 24 C -4.076116 0.886378 2.046008 0
M  V30 25 C -1.649308 -0.536112 0.135947 0
M  V30 26 C -0.727387 -0.128560 -0.965659 0
M  V30 27 H 2.919651 -2.167572 1.508647 0
M  V30 28 H 5.593689 -0.699942 1.264091 0
M  V30 29 H 7.828390 -1.501253 0.648231 0
M  V30 30 H 8.065539 -3.486661 -0.714450 0
M  V30 31 H 3.773265 -3.920903 -0.878789 0
M  V30 32 H 0.931262 -0.726536 1.184382 0
M  V30 33 H 1.077214 0.865286 -1.351256 0
M  V30 34 H 0.308665 2.737372 -0.382655 0
M  V30 35 H 0.873957 2.048045 1.122395 0
M  V30 36 H -1.356092 2.465972 1.764812 0
M  V30 37 H -1.885166 2.523598 0.084507 0
M  V30 38 H -3.150080 -1.901724 4.390678 0
M  V30 39 H -6.931008 1.176557 3.501140 0
M  V30 40 H -4.240008 2.445152 0.516262 0
M  V30 41 H -2.600585 -0.860663 -0.337382 0
M  V30 42 H -1.245351 -1.343627 0.775157 0
M  V30 43 H -1.275094 0.522739 -1.669040 0
M  V30 44 H -0.343250 -1.013827 -1.507999 0
M  V30 END ATOM
M  V30 BEGIN BOND
M  V30 1 2 1 2
M  V30 2 1 2 3
M  V30 3 1 3 4
M  V30 4 2 4 5
M  V30 5 1 5 6
M  V30 6 2 6 7
M  V30 7 1 7 8
M  V30 8 1 8 9
M  V30 9 2 8 10
M  V30 10 1 2 11
M  V30 11 1 11 12
M  V30 12 1 12 13
M  V30 13 1 13 14
M  V30 14 1 14 15
M  V30 15 1 15 16
M  V30 16 2 16 17
M  V30 17 1 17 18
M  V30 18 2 18 19
M  V30 19 1 19 20
M  V30 20 1 20 21
M  V30 21 1 21 22
M  V30 22 2 22 23
M  V30 23 1 23 24
M  V30 24 1 15 25
M  V30 25 1 25 26
M  V30 26 1 10 4
M  V30 27 1 26 12
M  V30 28 1 24 16
M  V30 29 2 24 20
M  V30 30 1 3 27
M  V30 31 1 5 28
M  V30 32 1 6 29
M  V30 33 1 7 30
M  V30 34 1 10 31
M  V30 35 1 11 32
M  V30 36 1 12 33
M  V30 37 1 13 34
M  V30 38 1 13 35
M  V30 39 1 14 36
M  V30 40 1 14 37
M  V30 41 1 18 38
M  V30 42 1 21 39
M  V30 43 1 23 40
M  V30 44 1 25 41
M  V30 45 1 25 42
M  V30 46 1 26 43
M  V30 47 1 26 44
M  V30 END BOND
M  V30 END CTAB
M  END
>  <Dataset>  (388) 
ChEMBL_Kinases

>  <Ligand_Instance>  (388) 
nan

>  <PDB_ID>  (388) 
nan

>  <Standardized_SMILES>  (388) 
O=C(Nc1cccc(Cl)c1)NC1CCN(c2ncnc3[nH]ncc23)CC1

>  <Name>  (388) 
nan

>  <Pocket>  (388) 
nan

>  <ATP_Site>  (388) 
nan

>  <Peripheral>  (388) 
nan

>  <Num_H_Atoms_ProtBoundConf>  (388) 
nan

>  <Num_Resolved_Atoms>  (388) 
nan

>  <Num_Not_Resolved_Atoms>  (388) 
nan

$$$$
CHEMBL4780336
     RDKit          3D

  0  0  0  0  0  0  0  0  0  0999 V3000
M  V30 BEGIN CTAB
M  V30 COUNTS 49 52 0 0 0
M  V30 BEGIN ATOM
M  V30 1 N 0.547054 -4.709083 3.361739 0
M  V30 2 C 0.743987 -3.519485 2.585149 0
M  V30 3 N 1.886506 -2.806829 2.655533 0
M  V30 4 C 2.057635 -1.690764 1.919843 0
M  V30 5 C 1.052636 -1.261766 1.077319 0
M  V30 6 C 1.086998 -0.077545 0.219300 0
M  V30 7 C 0.456079 0.080507 -0.997783 0
M  V30 8 N 0.746523 1.313005 -1.448614 0
M  V30 9 N 1.524757 1.972583 -0.609267 0
M  V30 10 C 2.028969 3.322649 -0.779881 0
M  V30 11 C 3.484831 3.326206 -1.143116 0
M  V30 12 C 3.932573 4.789774 -1.029134 0
M  V30 13 N 3.952344 5.242553 0.339782 0
M  V30 14 C 3.004753 4.563924 1.176172 0
M  V30 15 C 1.739837 4.164674 0.443635 0
M  V30 16 C 1.742933 1.133783 0.419044 0
M  V30 17 C -0.123479 -2.008565 1.014635 0
M  V30 18 C -0.319263 -3.148110 1.754750 0
M  V30 19 O -1.475403 -3.915916 1.718011 0
M  V30 20 C -2.511175 -3.460212 0.839729 0
M  V30 21 C -3.693198 -4.337742 0.870695 0
M  V30 22 C -4.673552 -4.041398 1.795144 0
M  V30 23 C -5.835136 -4.775014 1.938678 0
M  V30 24 C -6.047089 -5.882956 1.110121 0
M  V30 25 C -5.058177 -6.165122 0.192266 0
M  V30 26 C -3.895653 -5.441987 0.038914 0
M  V30 27 H 0.309285 -5.640130 2.948638 0
M  V30 28 H 0.570057 -4.982092 4.372568 0
M  V30 29 H 2.951588 -1.082250 1.937315 0
M  V30 30 H -0.165298 -0.674176 -1.491292 0
M  V30 31 H 1.477585 3.797318 -1.633395 0
M  V30 32 H 3.618596 3.096598 -2.230565 0
M  V30 33 H 4.122533 2.690796 -0.517856 0
M  V30 34 H 3.175469 5.350898 -1.639490 0
M  V30 35 H 4.916528 4.889498 -1.486923 0
M  V30 36 H 4.924287 5.083051 0.695064 0
M  V30 37 H 2.672285 5.316659 1.947215 0
M  V30 38 H 3.440326 3.727379 1.763856 0
M  V30 39 H 1.111797 3.625764 1.162478 0
M  V30 40 H 1.211246 5.094790 0.189025 0
M  V30 41 H 2.346708 1.379642 1.276111 0
M  V30 42 H -0.959286 -1.731445 0.372818 0
M  V30 43 H -2.123677 -3.370628 -0.215369 0
M  V30 44 H -2.826909 -2.423512 1.102251 0
M  V30 45 H -4.613588 -3.204083 2.489522 0
M  V30 46 H -6.611950 -4.555480 2.657804 0
M  V30 47 H -6.949124 -6.472943 1.203696 0
M  V30 48 H -5.236049 -7.024477 -0.441278 0
M  V30 49 H -3.125799 -5.665790 -0.679254 0
M  V30 END ATOM
M  V30 BEGIN BOND
M  V30 1 1 1 2
M  V30 2 2 2 3
M  V30 3 1 3 4
M  V30 4 2 4 5
M  V30 5 1 5 6
M  V30 6 1 6 7
M  V30 7 2 7 8
M  V30 8 1 8 9
M  V30 9 1 9 10
M  V30 10 1 10 11
M  V30 11 1 11 12
M  V30 12 1 12 13
M  V30 13 1 13 14
M  V30 14 1 14 15
M  V30 15 1 9 16
M  V30 16 1 5 17
M  V30 17 2 17 18
M  V30 18 1 18 19
M  V30 19 1 19 20
M  V30 20 1 20 21
M  V30 21 2 21 22
M  V30 22 1 22 23
M  V30 23 2 23 24
M  V30 24 1 24 25
M  V30 25 2 25 26
M  V30 26 1 18 2
M  V30 27 1 26 21
M  V30 28 2 16 6
M  V30 29 1 15 10
M  V30 30 1 1 27
M  V30 31 1 1 28
M  V30 32 1 4 29
M  V30 33 1 7 30
M  V30 34 1 10 31
M  V30 35 1 11 32
M  V30 36 1 11 33
M  V30 37 1 12 34
M  V30 38 1 12 35
M  V30 39 1 13 36
M  V30 40 1 14 37
M  V30 41 1 14 38
M  V30 42 1 15 39
M  V30 43 1 15 40
M  V30 44 1 16 41
M  V30 45 1 17 42
M  V30 46 1 20 43
M  V30 47 1 20 44
M  V30 48 1 22 45
M  V30 49 1 23 46
M  V30 50 1 24 47
M  V30 51 1 25 48
M  V30 52 1 26 49
M  V30 END BOND
M  V30 END CTAB
M  END
>  <Dataset>  (389) 
ChEMBL_Kinases

>  <Ligand_Instance>  (389) 
nan

>  <PDB_ID>  (389) 
nan

>  <Standardized_SMILES>  (389) 
Nc1ncc(-c2cnn(C3CCNCC3)c2)cc1OCc1ccccc1

>  <Name>  (389) 
nan

>  <Pocket>  (389) 
nan

>  <ATP_Site>  (389) 
nan

>  <Peripheral>  (389) 
nan

>  <Num_H_Atoms_ProtBoundConf>  (389) 
nan

>  <Num_Resolved_Atoms>  (389) 
nan

>  <Num_Not_Resolved_Atoms>  (389) 
nan

$$$$
CHEMBL4780385
     RDKit          3D

  0  0  0  0  0  0  0  0  0  0999 V3000
M  V30 BEGIN CTAB
M  V30 COUNTS 85 91 0 0 0
M  V30 BEGIN ATOM
M  V30 1 N -0.734807 -3.158099 4.738128 0
M  V30 2 C -0.674122 -2.510659 3.443942 0 CFG=1
M  V30 3 C 0.622056 -1.717068 3.342952 0
M  V30 4 C 1.027207 -1.521217 1.933152 0
M  V30 5 C -0.134931 -1.532662 0.951592 0 CFG=2
M  V30 6 N -0.947367 -0.391443 1.149086 0
M  V30 7 C -1.985208 0.452932 0.739588 0
M  V30 8 C -2.395818 1.539308 1.516197 0
M  V30 9 N -1.906089 1.912999 2.780522 0
M  V30 10 C -1.873268 2.755243 3.911162 0
M  V30 11 C -1.181027 4.081794 3.775774 0
M  V30 12 C 0.261962 3.965961 3.372204 0
M  V30 13 C 0.516054 4.462868 1.969433 0
M  V30 14 O -0.093524 5.708822 1.843968 0
M  V30 15 C -1.469600 5.442910 1.691125 0
M  V30 16 C -1.968126 5.093319 3.072441 0
M  V30 17 C -3.395943 2.378466 1.116121 0
M  V30 18 N -4.029008 2.190563 -0.049819 0
M  V30 19 C -3.725121 1.183471 -0.883397 0
M  V30 20 C -4.390571 1.028147 -2.074886 0
M  V30 21 C -4.051913 -0.007645 -2.917571 0
M  V30 22 C -3.038916 -0.838754 -2.490581 0
M  V30 23 C -2.704366 -1.919454 -3.403955 0
M  V30 24 C -3.643367 -2.716538 -4.064400 0
M  V30 25 N -2.997093 -3.626000 -4.838687 0
M  V30 26 C -1.674812 -3.464124 -4.718006 0
M  V30 27 N -0.561288 -4.047870 -5.220292 0
M  V30 28 C 0.681631 -3.659447 -4.904509 0
M  V30 29 C 0.937876 -2.610684 -4.023453 0
M  V30 30 C 2.248109 -2.135901 -3.624431 0
M  V30 31 O 2.346495 -1.173023 -2.819321 0
M  V30 32 N 3.462159 -2.699869 -4.092648 0
M  V30 33 C 4.805214 -2.266490 -3.722208 0
M  V30 34 C 5.206759 -2.720278 -2.389822 0
M  V30 35 C 5.837963 -3.963759 -2.300689 0
M  V30 36 C 6.250555 -4.468091 -1.076621 0
M  V30 37 C 6.027104 -3.714136 0.078260 0
M  V30 38 N 5.414026 -2.499765 0.015683 0
M  V30 39 C 5.040701 -2.069633 -1.190766 0
M  V30 40 C -0.199995 -2.013410 -3.510290 0
M  V30 41 C -1.469363 -2.405169 -3.828151 0
M  V30 42 C -2.421314 -0.633541 -1.303878 0
M  V30 43 C -2.712713 0.378749 -0.421248 0
M  V30 44 C -0.886076 -2.843706 1.047564 0
M  V30 45 C -0.589342 -3.549680 2.348409 0
M  V30 46 H -1.465351 -2.753842 5.331201 0
M  V30 47 H -0.841644 -4.188622 4.655881 0
M  V30 48 H -1.551962 -1.890086 3.216640 0
M  V30 49 H 0.416108 -0.716186 3.792657 0
M  V30 50 H 1.385808 -2.216243 3.968939 0
M  V30 51 H 1.728161 -2.329090 1.640979 0
M  V30 52 H 1.573395 -0.560292 1.794860 0
M  V30 53 H 0.345282 -1.483537 -0.042590 0
M  V30 54 H -0.534944 -0.063392 2.036485 0
M  V30 55 H -1.170078 1.253217 3.091161 0
M  V30 56 H -1.535792 2.299995 4.868492 0
M  V30 57 H -2.966734 3.071757 4.150434 0
M  V30 58 H -1.119272 4.445410 4.867688 0
M  V30 59 H 0.945830 4.537002 4.030112 0
M  V30 60 H 0.592835 2.908793 3.407684 0
M  V30 61 H 1.607236 4.657548 1.822697 0
M  V30 62 H 0.093134 3.780188 1.210385 0
M  V30 63 H -1.530647 4.552286 1.060539 0
M  V30 64 H -2.023955 6.301420 1.305084 0
M  V30 65 H -3.044731 4.890637 3.017778 0
M  V30 66 H -1.933207 6.098595 3.623276 0
M  V30 67 H -3.792150 3.228344 1.632410 0
M  V30 68 H -5.164975 1.725898 -2.319202 0
M  V30 69 H -4.607164 -0.064760 -3.819590 0
M  V30 70 H -4.722162 -2.628254 -3.977592 0
M  V30 71 H -3.420337 -4.358022 -5.451240 0
M  V30 72 H 1.541042 -4.157159 -5.332514 0
M  V30 73 H 3.374187 -3.495590 -4.760789 0
M  V30 74 H 5.524687 -2.620621 -4.481253 0
M  V30 75 H 4.804899 -1.151831 -3.818349 0
M  V30 76 H 6.052472 -4.617545 -3.138309 0
M  V30 77 H 6.740985 -5.413003 -0.928323 0
M  V30 78 H 6.334111 -4.071179 1.062950 0
M  V30 79 H 4.564735 -1.117692 -1.223640 0
M  V30 80 H -0.036354 -1.192524 -2.826518 0
M  V30 81 H -1.661759 -1.343855 -1.103776 0
M  V30 82 H -1.945321 -2.656208 0.881041 0
M  V30 83 H -0.511847 -3.509181 0.246524 0
M  V30 84 H -1.273475 -4.386429 2.489918 0
M  V30 85 H 0.454572 -3.916733 2.312935 0
M  V30 END ATOM
M  V30 BEGIN BOND
M  V30 1 1 1 2
M  V30 2 1 2 3
M  V30 3 1 3 4
M  V30 4 1 4 5
M  V30 5 1 5 6
M  V30 6 1 6 7
M  V30 7 1 7 8
M  V30 8 1 8 9
M  V30 9 1 9 10
M  V30 10 1 10 11
M  V30 11 1 11 12
M  V30 12 1 12 13
M  V30 13 1 13 14
M  V30 14 1 14 15
M  V30 15 1 15 16
M  V30 16 2 8 17
M  V30 17 1 17 18
M  V30 18 2 18 19
M  V30 19 1 19 20
M  V30 20 2 20 21
M  V30 21 1 21 22
M  V30 22 1 22 23
M  V30 23 2 23 24
M  V30 24 1 24 25
M  V30 25 1 25 26
M  V30 26 2 26 27
M  V30 27 1 27 28
M  V30 28 2 28 29
M  V30 29 1 29 30
M  V30 30 2 30 31
M  V30 31 1 30 32
M  V30 32 1 32 33
M  V30 33 1 33 34
M  V30 34 2 34 35
M  V30 35 1 35 36
M  V30 36 2 36 37
M  V30 37 1 37 38
M  V30 38 2 38 39
M  V30 39 1 29 40
M  V30 40 2 40 41
M  V30 41 2 22 42
M  V30 42 1 42 43
M  V30 43 1 5 44
M  V30 44 1 44 45
M  V30 45 1 45 2
M  V30 46 2 43 7
M  V30 47 1 16 11
M  V30 48 1 43 19
M  V30 49 1 41 23
M  V30 50 1 41 26
M  V30 51 1 39 34
M  V30 52 1 1 46
M  V30 53 1 1 47
M  V30 54 1 2 48 CFG=3
M  V30 55 1 3 49
M  V30 56 1 3 50
M  V30 57 1 4 51
M  V30 58 1 4 52
M  V30 59 1 5 53 CFG=3
M  V30 60 1 6 54
M  V30 61 1 9 55
M  V30 62 1 10 56
M  V30 63 1 10 57
M  V30 64 1 11 58
M  V30 65 1 12 59
M  V30 66 1 12 60
M  V30 67 1 13 61
M  V30 68 1 13 62
M  V30 69 1 15 63
M  V30 70 1 15 64
M  V30 71 1 16 65
M  V30 72 1 16 66
M  V30 73 1 17 67
M  V30 74 1 20 68
M  V30 75 1 21 69
M  V30 76 1 24 70
M  V30 77 1 25 71
M  V30 78 1 28 72
M  V30 79 1 32 73
M  V30 80 1 33 74
M  V30 81 1 33 75
M  V30 82 1 35 76
M  V30 83 1 36 77
M  V30 84 1 37 78
M  V30 85 1 39 79
M  V30 86 1 40 80
M  V30 87 1 42 81
M  V30 88 1 44 82
M  V30 89 1 44 83
M  V30 90 1 45 84
M  V30 91 1 45 85
M  V30 END BOND
M  V30 END CTAB
M  END
>  <Dataset>  (390) 
ChEMBL_Kinases

>  <Ligand_Instance>  (390) 
nan

>  <PDB_ID>  (390) 
nan

>  <Standardized_SMILES>  (390) 
N[C@H]1CC[C@H](Nc2c(NCC3CCOCC3)cnc3ccc(-c4c[nH]c5ncc(C(=O)NCc6cccnc6)cc45)cc23)CC1

>  <Name>  (390) 
nan

>  <Pocket>  (390) 
nan

>  <ATP_Site>  (390) 
nan

>  <Peripheral>  (390) 
nan

>  <Num_H_Atoms_ProtBoundConf>  (390) 
nan

>  <Num_Resolved_Atoms>  (390) 
nan

>  <Num_Not_Resolved_Atoms>  (390) 
nan

$$$$
CHEMBL4213020
     RDKit          3D

  0  0  0  0  0  0  0  0  0  0999 V3000
M  V30 BEGIN CTAB
M  V30 COUNTS 42 44 0 0 0
M  V30 BEGIN ATOM
M  V30 1 C 1.829026 -6.371700 0.278261 0
M  V30 2 C 1.443002 -4.970246 0.017537 0
M  V30 3 C 0.200086 -4.604143 0.544503 0
M  V30 4 C -0.298296 -3.346153 0.388666 0
M  V30 5 C 0.478322 -2.463617 -0.307634 0
M  V30 6 C 1.699579 -2.698980 -0.865876 0
M  V30 7 O 2.621548 -2.033527 -1.563503 0
M  V30 8 C 2.819160 -0.783831 -2.059496 0
M  V30 9 C 2.916262 0.343840 -1.067185 0
M  V30 10 O 1.820258 0.555634 -0.256744 0
M  V30 11 C 1.654764 1.509387 0.719474 0
M  V30 12 C 2.543368 2.478425 1.119073 0
M  V30 13 C 2.209646 3.363941 2.126203 0
M  V30 14 C 0.971887 3.258293 2.722143 0
M  V30 15 C 0.045496 2.297766 2.351852 0
M  V30 16 C -1.234441 2.263639 3.039073 0
M  V30 17 C -2.375137 1.975171 2.432844 0
M  V30 18 S -2.715280 1.561051 0.703193 0
M  V30 19 C -4.270256 0.719386 1.093088 0
M  V30 20 S -4.973028 -0.398327 0.130247 0
M  V30 21 N -4.646514 1.262259 2.342711 0
M  V30 22 C -3.670192 1.923122 3.059459 0
M  V30 23 O -3.895560 2.455626 4.204602 0
M  V30 24 C 0.412278 1.430962 1.343457 0
M  V30 25 C 2.162646 -4.001223 -0.677389 0
M  V30 26 H 2.110782 -6.450387 1.346089 0
M  V30 27 H 2.642530 -6.731278 -0.391273 0
M  V30 28 H 0.919172 -7.001749 0.058984 0
M  V30 29 H -0.420156 -5.303023 1.099189 0
M  V30 30 H -1.233343 -3.008905 0.764379 0
M  V30 31 H 0.125331 -1.460306 -0.471249 0
M  V30 32 H 3.819142 -0.785569 -2.609985 0
M  V30 33 H 2.110936 -0.505746 -2.896192 0
M  V30 34 H 3.232501 1.254562 -1.643256 0
M  V30 35 H 3.772847 0.061197 -0.384169 0
M  V30 36 H 3.489930 2.482716 0.592871 0
M  V30 37 H 2.928545 4.109431 2.413274 0
M  V30 38 H 0.771027 3.984184 3.507276 0
M  V30 39 H -1.233309 2.489487 4.102420 0
M  V30 40 H -5.662003 1.117480 2.635558 0
M  V30 41 H -0.352542 0.700971 1.096563 0
M  V30 42 H 3.094879 -4.472366 -1.007322 0
M  V30 END ATOM
M  V30 BEGIN BOND
M  V30 1 1 1 2
M  V30 2 2 2 3
M  V30 3 1 3 4
M  V30 4 2 4 5
M  V30 5 1 5 6
M  V30 6 1 6 7
M  V30 7 1 7 8
M  V30 8 1 8 9
M  V30 9 1 9 10
M  V30 10 1 10 11
M  V30 11 2 11 12
M  V30 12 1 12 13
M  V30 13 2 13 14
M  V30 14 1 14 15
M  V30 15 1 15 16
M  V30 16 2 16 17
M  V30 17 1 17 18
M  V30 18 1 18 19
M  V30 19 2 19 20
M  V30 20 1 19 21
M  V30 21 1 21 22
M  V30 22 2 22 23
M  V30 23 2 15 24
M  V30 24 2 6 25
M  V30 25 1 25 2
M  V30 26 1 24 11
M  V30 27 1 22 17
M  V30 28 1 1 26
M  V30 29 1 1 27
M  V30 30 1 1 28
M  V30 31 1 3 29
M  V30 32 1 4 30
M  V30 33 1 5 31
M  V30 34 1 8 32
M  V30 35 1 8 33
M  V30 36 1 9 34
M  V30 37 1 9 35
M  V30 38 1 12 36
M  V30 39 1 13 37
M  V30 40 1 14 38
M  V30 41 1 16 39
M  V30 42 1 21 40
M  V30 43 1 24 41
M  V30 44 1 25 42
M  V30 END BOND
M  V30 END CTAB
M  END
>  <Dataset>  (391) 
ChEMBL_Kinases

>  <Ligand_Instance>  (391) 
nan

>  <PDB_ID>  (391) 
nan

>  <Standardized_SMILES>  (391) 
Cc1cccc(OCCOc2cccc(/C=C3\SC(=S)NC3=O)c2)c1

>  <Name>  (391) 
nan

>  <Pocket>  (391) 
nan

>  <ATP_Site>  (391) 
nan

>  <Peripheral>  (391) 
nan

>  <Num_H_Atoms_ProtBoundConf>  (391) 
nan

>  <Num_Resolved_Atoms>  (391) 
nan

>  <Num_Not_Resolved_Atoms>  (391) 
nan

$$$$
CHEMBL4213019
     RDKit          3D

  0  0  0  0  0  0  0  0  0  0999 V3000
M  V30 BEGIN CTAB
M  V30 COUNTS 106 112 0 0 0
M  V30 BEGIN ATOM
M  V30 1 C 1.672340 -0.360365 9.538466 0
M  V30 2 C 1.879756 0.835035 8.615158 0
M  V30 3 N 3.079601 0.718669 7.818119 0
M  V30 4 C 3.215083 1.860384 6.985725 0
M  V30 5 C 2.498787 1.855069 5.686328 0
M  V30 6 N 1.799969 0.605719 5.498717 0
M  V30 7 C 0.417628 0.364816 5.155240 0
M  V30 8 O -0.282023 1.423751 5.011742 0
M  V30 9 C 0.050371 -1.041492 5.029409 0
M  V30 10 C 0.075612 -1.373186 3.666119 0
M  V30 11 C -0.228413 -2.700421 3.308610 0
M  V30 12 C -0.535376 -3.611326 4.290511 0
M  V30 13 N -0.820396 -5.004634 4.002183 0
M  V30 14 C -0.622592 -5.243009 2.612216 0
M  V30 15 N 0.724418 -5.366111 2.433703 0
M  V30 16 C 1.258684 -5.573096 1.212232 0
M  V30 17 C 0.385853 -5.654517 0.155938 0
M  V30 18 C -0.983383 -5.533549 0.296827 0
M  V30 19 N -1.477757 -5.326149 1.557678 0
M  V30 20 N -1.975270 -5.490789 -0.708942 0
M  V30 21 C -3.392633 -5.375688 -0.440042 0
M  V30 22 C -1.521745 -5.566568 -2.084452 0
M  V30 23 O -2.326192 -5.548315 -3.045075 0
M  V30 24 N -0.115195 -5.660451 -2.221500 0
M  V30 25 C 0.346710 -5.378013 -3.560886 0
M  V30 26 C 0.580073 -4.000999 -3.761974 0
M  V30 27 C 1.035467 -3.411876 -4.944456 0
M  V30 28 N 1.184186 -1.974934 -4.873987 0
M  V30 29 C -0.045420 -1.338639 -5.272121 0
M  V30 30 O -0.916563 -2.200410 -5.596323 0
M  V30 31 C -0.214607 0.108555 -5.279461 0
M  V30 32 C 0.695663 1.049173 -4.837390 0
M  V30 33 C 0.369499 2.389977 -4.885417 0
M  V30 34 C -0.837563 2.901740 -5.356834 0
M  V30 35 C -0.844093 4.353134 -5.188911 0
M  V30 36 N -1.284916 4.881038 -3.937732 0
M  V30 37 C -1.006246 6.339958 -3.911161 0
M  V30 38 C -1.894904 6.849575 -2.794476 0
M  V30 39 C -2.976315 5.820552 -2.591585 0
M  V30 40 N -3.030693 5.219156 -1.310400 0
M  V30 41 C -3.245764 6.114448 -0.222405 0
M  V30 42 C -2.128234 4.156567 -1.034557 0
M  V30 43 C -2.674501 4.788514 -3.670321 0
M  V30 44 C -1.714316 1.952935 -5.789835 0
M  V30 45 C -3.000365 2.422584 -6.342529 0
M  V30 46 F -2.812217 3.360964 -7.357494 0
M  V30 47 F -3.987437 2.713780 -5.492313 0
M  V30 48 F -3.504931 1.311049 -7.102187 0
M  V30 49 C -1.412963 0.596270 -5.751237 0
M  V30 50 C 1.267990 -4.282246 -5.989581 0
M  V30 51 C 1.048155 -5.629929 -5.818840 0
M  V30 52 C 0.598734 -6.177946 -4.639591 0
M  V30 53 C 0.350721 -7.615581 -4.392207 0
M  V30 54 C 0.894876 -5.945418 -1.230736 0
M  V30 55 C -0.555577 -3.256003 5.644688 0
M  V30 56 N -0.259946 -1.988324 5.926367 0
M  V30 57 C 2.741555 -0.499006 5.723431 0
M  V30 58 C 3.121148 -0.556868 7.191943 0
M  V30 59 H 2.642745 -0.797969 9.824013 0
M  V30 60 H 1.244832 0.056087 10.488019 0
M  V30 61 H 0.956247 -1.092025 9.149862 0
M  V30 62 H 1.013383 0.857971 7.926143 0
M  V30 63 H 1.879749 1.788860 9.195978 0
M  V30 64 H 4.312475 1.970887 6.771310 0
M  V30 65 H 2.878281 2.756768 7.574267 0
M  V30 66 H 3.236055 1.901128 4.828026 0
M  V30 67 H 1.820309 2.737856 5.629311 0
M  V30 68 H 0.300710 -0.733068 2.816869 0
M  V30 69 H -0.217890 -2.991836 2.251952 0
M  V30 70 H -1.115670 -5.655859 4.742102 0
M  V30 71 H 2.313578 -5.682734 0.977459 0
M  V30 72 H -3.962525 -5.990582 -1.180480 0
M  V30 73 H -3.654287 -5.680446 0.587368 0
M  V30 74 H -3.724711 -4.313232 -0.631299 0
M  V30 75 H 0.388905 -3.313049 -2.914998 0
M  V30 76 H 2.001822 -1.389218 -4.593178 0
M  V30 77 H 1.613421 0.607392 -4.482852 0
M  V30 78 H 1.221962 2.953388 -4.492308 0
M  V30 79 H 0.170610 4.804898 -5.422631 0
M  V30 80 H -1.512526 4.838295 -5.965548 0
M  V30 81 H 0.066426 6.523417 -3.746514 0
M  V30 82 H -1.272430 6.743665 -4.906802 0
M  V30 83 H -1.341680 7.118818 -1.876907 0
M  V30 84 H -2.375406 7.774381 -3.171308 0
M  V30 85 H -3.980553 6.239193 -2.808928 0
M  V30 86 H -4.152003 6.727560 -0.419185 0
M  V30 87 H -3.446583 5.467777 0.683145 0
M  V30 88 H -2.369613 6.746091 0.022743 0
M  V30 89 H -1.330980 3.980632 -1.752771 0
M  V30 90 H -2.731784 3.201639 -0.974295 0
M  V30 91 H -1.732313 4.265448 0.019710 0
M  V30 92 H -3.043845 3.837143 -3.289987 0
M  V30 93 H -3.267841 5.068533 -4.572102 0
M  V30 94 H -2.173280 -0.078468 -6.113084 0
M  V30 95 H 1.618117 -3.793556 -6.885072 0
M  V30 96 H 1.235500 -6.289745 -6.643556 0
M  V30 97 H 1.102052 -8.156223 -5.046524 0
M  V30 98 H 0.606886 -7.927412 -3.372977 0
M  V30 99 H -0.645844 -7.963466 -4.737100 0
M  V30 100 H 1.107830 -7.054573 -1.205067 0
M  V30 101 H 1.850539 -5.448801 -1.450584 0
M  V30 102 H -0.786382 -3.908678 6.463938 0
M  V30 103 H 2.279688 -1.476407 5.493400 0
M  V30 104 H 3.641998 -0.341354 5.106449 0
M  V30 105 H 4.155790 -0.952048 7.240581 0
M  V30 106 H 2.442744 -1.263156 7.737029 0
M  V30 END ATOM
M  V30 BEGIN BOND
M  V30 1 1 1 2
M  V30 2 1 2 3
M  V30 3 1 3 4
M  V30 4 1 4 5
M  V30 5 1 5 6
M  V30 6 1 6 7
M  V30 7 2 7 8
M  V30 8 1 7 9
M  V30 9 2 9 10
M  V30 10 1 10 11
M  V30 11 2 11 12
M  V30 12 1 12 13
M  V30 13 1 13 14
M  V30 14 2 14 15
M  V30 15 1 15 16
M  V30 16 2 16 17
M  V30 17 1 17 18
M  V30 18 2 18 19
M  V30 19 1 18 20
M  V30 20 1 20 21
M  V30 21 1 20 22
M  V30 22 2 22 23
M  V30 23 1 22 24
M  V30 24 1 24 25
M  V30 25 2 25 26
M  V30 26 1 26 27
M  V30 27 1 27 28
M  V30 28 1 28 29
M  V30 29 2 29 30
M  V30 30 1 29 31
M  V30 31 2 31 32
M  V30 32 1 32 33
M  V30 33 2 33 34
M  V30 34 1 34 35
M  V30 35 1 35 36
M  V30 36 1 36 37
M  V30 37 1 37 38
M  V30 38 1 38 39
M  V30 39 1 39 40
M  V30 40 1 40 41
M  V30 41 1 40 42
M  V30 42 1 39 43
M  V30 43 1 34 44
M  V30 44 1 44 45
M  V30 45 1 45 46
M  V30 46 1 45 47
M  V30 47 1 45 48
M  V30 48 2 44 49
M  V30 49 2 27 50
M  V30 50 1 50 51
M  V30 51 2 51 52
M  V30 52 1 52 53
M  V30 53 1 24 54
M  V30 54 1 12 55
M  V30 55 2 55 56
M  V30 56 1 6 57
M  V30 57 1 57 58
M  V30 58 1 58 3
M  V30 59 1 56 9
M  V30 60 1 19 14
M  V30 61 1 52 25
M  V30 62 1 54 17
M  V30 63 1 49 31
M  V30 64 1 43 36
M  V30 65 1 1 59
M  V30 66 1 1 60
M  V30 67 1 1 61
M  V30 68 1 2 62
M  V30 69 1 2 63
M  V30 70 1 4 64
M  V30 71 1 4 65
M  V30 72 1 5 66
M  V30 73 1 5 67
M  V30 74 1 10 68
M  V30 75 1 11 69
M  V30 76 1 13 70
M  V30 77 1 16 71
M  V30 78 1 21 72
M  V30 79 1 21 73
M  V30 80 1 21 74
M  V30 81 1 26 75
M  V30 82 1 28 76
M  V30 83 1 32 77
M  V30 84 1 33 78
M  V30 85 1 35 79
M  V30 86 1 35 80
M  V30 87 1 37 81
M  V30 88 1 37 82
M  V30 89 1 38 83
M  V30 90 1 38 84
M  V30 91 1 39 85
M  V30 92 1 41 86
M  V30 93 1 41 87
M  V30 94 1 41 88
M  V30 95 1 42 89
M  V30 96 1 42 90
M  V30 97 1 42 91
M  V30 98 1 43 92
M  V30 99 1 43 93
M  V30 100 1 49 94
M  V30 101 1 50 95
M  V30 102 1 51 96
M  V30 103 1 53 97
M  V30 104 1 53 98
M  V30 105 1 53 99
M  V30 106 1 54 100
M  V30 107 1 54 101
M  V30 108 1 55 102
M  V30 109 1 57 103
M  V30 110 1 57 104
M  V30 111 1 58 105
M  V30 112 1 58 106
M  V30 END BOND
M  V30 END CTAB
M  END
>  <Dataset>  (392) 
ChEMBL_Kinases

>  <Ligand_Instance>  (392) 
nan

>  <PDB_ID>  (392) 
nan

>  <Standardized_SMILES>  (392) 
CCN1CCN(C(=O)c2ccc(Nc3ncc4c(n3)N(C)C(=O)N(c3cc(NC(=O)c5ccc(CN6CCC(N(C)C)C6)c(C(F)(F)F)c5)ccc3C)C4)cn2)CC1

>  <Name>  (392) 
nan

>  <Pocket>  (392) 
nan

>  <ATP_Site>  (392) 
nan

>  <Peripheral>  (392) 
nan

>  <Num_H_Atoms_ProtBoundConf>  (392) 
nan

>  <Num_Resolved_Atoms>  (392) 
nan

>  <Num_Not_Resolved_Atoms>  (392) 
nan

$$$$
CHEMBL4780397
     RDKit          3D

  0  0  0  0  0  0  0  0  0  0999 V3000
M  V30 BEGIN CTAB
M  V30 COUNTS 61 65 0 0 0
M  V30 BEGIN ATOM
M  V30 1 C 6.864556 -1.351280 5.934726 0
M  V30 2 O 7.152330 -0.135452 5.276699 0
M  V30 3 C 6.239564 0.492873 4.440313 0
M  V30 4 C 4.985880 -0.047629 4.206317 0
M  V30 5 C 4.099486 0.616640 3.358919 0
M  V30 6 C 4.435430 1.802278 2.743381 0
M  V30 7 C 3.463653 2.446222 1.870578 0
M  V30 8 C 3.691554 3.630001 1.205983 0
M  V30 9 C 2.685963 4.142843 0.402789 0
M  V30 10 N 1.491534 3.512301 0.256196 0
M  V30 11 C 1.316484 2.356407 0.927280 0
M  V30 12 N 0.071732 1.690171 0.780816 0
M  V30 13 C -0.949441 2.258904 -0.065444 0 CFG=1
M  V30 14 C -0.527578 2.416011 -1.498541 0
M  V30 15 O -1.053467 1.359479 -2.220895 0
M  V30 16 C -1.777747 0.543156 -1.404035 0 CFG=1
M  V30 17 C -2.113573 1.300002 -0.149415 0 CFG=2
M  V30 18 O -3.323570 1.907415 -0.325273 0
M  V30 19 C -4.001652 1.333948 -1.382142 0
M  V30 20 C -3.164030 0.203773 -1.915807 0 CFG=2
M  V30 21 N -3.526851 -1.061671 -1.302928 0
M  V30 22 C -3.828031 -2.227373 -2.010826 0
M  V30 23 O -3.825331 -2.335403 -3.242770 0
M  V30 24 N -4.142443 -3.288924 -1.118666 0
M  V30 25 C -4.504975 -4.638844 -1.382022 0
M  V30 26 C -5.786526 -5.120172 -1.564539 0
M  V30 27 C -5.988117 -6.461236 -1.811729 0
M  V30 28 C -4.927790 -7.351152 -1.883219 0
M  V30 29 C -3.645912 -6.856425 -1.698460 0
M  V30 30 C -2.474608 -7.790227 -1.768010 0
M  V30 31 F -1.559951 -7.311999 -2.683730 0
M  V30 32 F -1.825071 -7.874569 -0.553527 0
M  V30 33 F -2.858792 -9.047933 -2.158538 0
M  V30 34 C -3.439644 -5.533505 -1.453995 0
M  V30 35 N 2.275550 1.832469 1.715829 0
M  V30 36 C 5.693974 2.299387 3.007890 0
M  V30 37 C 6.604819 1.679404 3.837803 0
M  V30 38 H 7.794760 -1.908341 6.196065 0
M  V30 39 H 6.246344 -1.226398 6.828628 0
M  V30 40 H 6.317928 -2.044386 5.231791 0
M  V30 41 H 4.672721 -0.965200 4.657403 0
M  V30 42 H 3.127573 0.157919 3.203455 0
M  V30 43 H 4.640767 4.127935 1.324503 0
M  V30 44 H 2.955822 5.089312 -0.087383 0
M  V30 45 H -0.096909 0.782134 1.292741 0
M  V30 46 H -1.302020 3.201700 0.394833 0
M  V30 47 H -1.053838 3.323957 -1.875369 0
M  V30 48 H 0.545375 2.477786 -1.673014 0
M  V30 49 H -1.182248 -0.366705 -1.182933 0
M  V30 50 H -2.078829 0.577391 0.691465 0
M  V30 51 H -5.036140 1.063417 -1.153479 0
M  V30 52 H -4.036577 2.109372 -2.179940 0
M  V30 53 H -3.169007 0.105987 -3.013513 0
M  V30 54 H -3.511156 -0.904008 -0.266698 0
M  V30 55 H -4.167351 -3.278899 -0.077520 0
M  V30 56 H -6.536391 -4.349487 -1.489641 0
M  V30 57 H -7.019128 -6.734554 -1.939107 0
M  V30 58 H -5.135673 -8.394031 -2.079778 0
M  V30 59 H -2.416830 -5.204816 -1.318094 0
M  V30 60 H 5.997275 3.227281 2.545061 0
M  V30 61 H 7.588308 2.082131 4.034945 0
M  V30 END ATOM
M  V30 BEGIN BOND
M  V30 1 1 1 2
M  V30 2 1 2 3
M  V30 3 2 3 4
M  V30 4 1 4 5
M  V30 5 2 5 6
M  V30 6 1 6 7
M  V30 7 2 7 8
M  V30 8 1 8 9
M  V30 9 2 9 10
M  V30 10 1 10 11
M  V30 11 1 11 12
M  V30 12 1 12 13
M  V30 13 1 13 14
M  V30 14 1 14 15
M  V30 15 1 15 16
M  V30 16 1 16 17
M  V30 17 1 17 18
M  V30 18 1 18 19
M  V30 19 1 19 20
M  V30 20 1 20 21
M  V30 21 1 21 22
M  V30 22 2 22 23
M  V30 23 1 22 24
M  V30 24 1 24 25
M  V30 25 2 25 26
M  V30 26 1 26 27
M  V30 27 2 27 28
M  V30 28 1 28 29
M  V30 29 1 29 30
M  V30 30 1 30 31
M  V30 31 1 30 32
M  V30 32 1 30 33
M  V30 33 2 29 34
M  V30 34 2 11 35
M  V30 35 1 6 36
M  V30 36 2 36 37
M  V30 37 1 37 3
M  V30 38 1 35 7
M  V30 39 1 17 13
M  V30 40 1 34 25
M  V30 41 1 20 16
M  V30 42 1 1 38
M  V30 43 1 1 39
M  V30 44 1 1 40
M  V30 45 1 4 41
M  V30 46 1 5 42
M  V30 47 1 8 43
M  V30 48 1 9 44
M  V30 49 1 12 45
M  V30 50 1 13 46 CFG=1
M  V30 51 1 14 47
M  V30 52 1 14 48
M  V30 53 1 16 49 CFG=1
M  V30 54 1 17 50 CFG=1
M  V30 55 1 19 51
M  V30 56 1 19 52
M  V30 57 1 20 53 CFG=3
M  V30 58 1 21 54
M  V30 59 1 24 55
M  V30 60 1 26 56
M  V30 61 1 27 57
M  V30 62 1 28 58
M  V30 63 1 34 59
M  V30 64 1 36 60
M  V30 65 1 37 61
M  V30 END BOND
M  V30 END CTAB
M  END
>  <Dataset>  (393) 
ChEMBL_Kinases

>  <Ligand_Instance>  (393) 
nan

>  <PDB_ID>  (393) 
nan

>  <Standardized_SMILES>  (393) 
COc1ccc(-c2ccnc(N[C@H]3CO[C@H]4[C@@H]3OC[C@@H]4NC(=O)Nc3cccc(C(F)(F)F)c3)n2)cc1

>  <Name>  (393) 
nan

>  <Pocket>  (393) 
nan

>  <ATP_Site>  (393) 
nan

>  <Peripheral>  (393) 
nan

>  <Num_H_Atoms_ProtBoundConf>  (393) 
nan

>  <Num_Resolved_Atoms>  (393) 
nan

>  <Num_Not_Resolved_Atoms>  (393) 
nan

$$$$
CHEMBL4213276
     RDKit          3D

  0  0  0  0  0  0  0  0  0  0999 V3000
M  V30 BEGIN CTAB
M  V30 COUNTS 71 75 0 0 0
M  V30 BEGIN ATOM
M  V30 1 C 3.020565 -0.569287 4.804949 0
M  V30 2 O 1.886559 -0.519257 4.001724 0
M  V30 3 C 1.862243 0.084457 2.774229 0
M  V30 4 C 2.866057 0.734192 2.093363 0
M  V30 5 C 2.664226 1.291446 0.847929 0
M  V30 6 C 3.805834 1.966302 0.252887 0
M  V30 7 O 4.853451 2.089911 0.905575 0
M  V30 8 N 3.741517 2.484915 -1.055406 0
M  V30 9 C 4.698483 3.205191 -1.891941 0
M  V30 10 C 4.016616 4.505271 -2.245239 0
M  V30 11 C 4.524393 5.083241 -3.532058 0
M  V30 12 N 4.262577 4.220065 -4.657568 0
M  V30 13 C 3.956387 2.861749 -4.225934 0
M  V30 14 C 4.961275 2.452059 -3.177541 0
M  V30 15 C 1.412959 1.213276 0.223458 0
M  V30 16 C 0.388534 0.552203 0.914561 0
M  V30 17 C 0.612484 -0.005756 2.177808 0
M  V30 18 N -0.538015 -0.632915 2.784916 0
M  V30 19 C -1.836401 -0.834864 2.286656 0
M  V30 20 N -2.649170 0.251452 2.206981 0
M  V30 21 C -3.929013 0.124860 1.742969 0
M  V30 22 C -4.374416 -1.103131 1.363924 0
M  V30 23 C -3.564236 -2.254597 1.431391 0
M  V30 24 N -2.368922 -1.991990 1.891145 0
M  V30 25 N -3.935076 -3.597895 1.061381 0
M  V30 26 C -2.949047 -4.606830 1.080022 0
M  V30 27 C -2.489462 -5.191021 -0.199633 0
M  V30 28 C -1.248540 -6.003905 0.225355 0
M  V30 29 C -1.086024 -5.768437 1.714245 0
M  V30 30 C -1.686205 -4.344288 1.826821 0
M  V30 31 C -5.322189 -3.808812 0.689410 0 CFG=2
M  V30 32 C -5.523776 -4.639019 -0.537880 0
M  V30 33 C -6.060855 -2.556377 0.519588 0
M  V30 34 O -7.206559 -2.665226 -0.038785 0
M  V30 35 N -5.702356 -1.245518 0.880492 0
M  V30 36 C -6.642416 -0.146684 0.746979 0
M  V30 37 H 3.915127 -1.044023 4.311450 0
M  V30 38 H 3.336756 0.388436 5.224277 0
M  V30 39 H 2.831888 -1.248296 5.688780 0
M  V30 40 H 3.794849 0.740690 2.664089 0
M  V30 41 H 2.866795 2.380871 -1.647885 0
M  V30 42 H 5.642003 3.422759 -1.376215 0
M  V30 43 H 2.913274 4.272475 -2.357814 0
M  V30 44 H 4.122169 5.256006 -1.419410 0
M  V30 45 H 4.039359 6.087235 -3.719600 0
M  V30 46 H 5.614648 5.264913 -3.455326 0
M  V30 47 H 4.973503 4.282713 -5.390106 0
M  V30 48 H 4.011837 2.207228 -5.111436 0
M  V30 49 H 2.935235 2.864250 -3.830782 0
M  V30 50 H 4.852545 1.372335 -2.938453 0
M  V30 51 H 5.971495 2.694209 -3.555433 0
M  V30 52 H 1.246473 1.642212 -0.732206 0
M  V30 53 H -0.558489 0.528507 0.376346 0
M  V30 54 H -0.468317 -1.020331 3.749410 0
M  V30 55 H -4.584193 0.960191 1.674943 0
M  V30 56 H -3.415652 -5.494941 1.646221 0
M  V30 57 H -3.212531 -5.920601 -0.620203 0
M  V30 58 H -2.173160 -4.443768 -0.961997 0
M  V30 59 H -0.370126 -5.613844 -0.288676 0
M  V30 60 H -1.369785 -7.070039 0.007445 0
M  V30 61 H -1.780917 -6.392008 2.291554 0
M  V30 62 H -0.046571 -5.809463 2.033126 0
M  V30 63 H -1.793515 -4.056244 2.870784 0
M  V30 64 H -0.922758 -3.739902 1.271466 0
M  V30 65 H -5.769010 -4.319718 1.605559 0
M  V30 66 H -4.771104 -4.287637 -1.282491 0
M  V30 67 H -5.554590 -5.723567 -0.382619 0
M  V30 68 H -6.519837 -4.335878 -0.996419 0
M  V30 69 H -6.098054 0.722290 0.337649 0
M  V30 70 H -7.050875 0.102667 1.724010 0
M  V30 71 H -7.392686 -0.433939 -0.027212 0
M  V30 END ATOM
M  V30 BEGIN BOND
M  V30 1 1 1 2
M  V30 2 1 2 3
M  V30 3 2 3 4
M  V30 4 1 4 5
M  V30 5 1 5 6
M  V30 6 2 6 7
M  V30 7 1 6 8
M  V30 8 1 8 9
M  V30 9 1 9 10
M  V30 10 1 10 11
M  V30 11 1 11 12
M  V30 12 1 12 13
M  V30 13 1 13 14
M  V30 14 2 5 15
M  V30 15 1 15 16
M  V30 16 2 16 17
M  V30 17 1 17 18
M  V30 18 1 18 19
M  V30 19 2 19 20
M  V30 20 1 20 21
M  V30 21 2 21 22
M  V30 22 1 22 23
M  V30 23 2 23 24
M  V30 24 1 23 25
M  V30 25 1 25 26
M  V30 26 1 26 27
M  V30 27 1 27 28
M  V30 28 1 28 29
M  V30 29 1 29 30
M  V30 30 1 25 31
M  V30 31 1 31 32
M  V30 32 1 31 33
M  V30 33 2 33 34
M  V30 34 1 33 35
M  V30 35 1 35 36
M  V30 36 1 17 3
M  V30 37 1 24 19
M  V30 38 1 30 26
M  V30 39 1 14 9
M  V30 40 1 35 22
M  V30 41 1 1 37
M  V30 42 1 1 38
M  V30 43 1 1 39
M  V30 44 1 4 40
M  V30 45 1 8 41
M  V30 46 1 9 42
M  V30 47 1 10 43
M  V30 48 1 10 44
M  V30 49 1 11 45
M  V30 50 1 11 46
M  V30 51 1 12 47
M  V30 52 1 13 48
M  V30 53 1 13 49
M  V30 54 1 14 50
M  V30 55 1 14 51
M  V30 56 1 15 52
M  V30 57 1 16 53
M  V30 58 1 18 54
M  V30 59 1 21 55
M  V30 60 1 26 56
M  V30 61 1 27 57
M  V30 62 1 27 58
M  V30 63 1 28 59
M  V30 64 1 28 60
M  V30 65 1 29 61
M  V30 66 1 29 62
M  V30 67 1 30 63
M  V30 68 1 30 64
M  V30 69 1 31 65 CFG=1
M  V30 70 1 32 66
M  V30 71 1 32 67
M  V30 72 1 32 68
M  V30 73 1 36 69
M  V30 74 1 36 70
M  V30 75 1 36 71
M  V30 END BOND
M  V30 END CTAB
M  END
>  <Dataset>  (394) 
ChEMBL_Kinases

>  <Ligand_Instance>  (394) 
nan

>  <PDB_ID>  (394) 
nan

>  <Standardized_SMILES>  (394) 
COc1cc(C(=O)NC2CCNCC2)ccc1Nc1ncc2c(n1)N(C1CCCC1)[C@H](C)C(=O)N2C

>  <Name>  (394) 
nan

>  <Pocket>  (394) 
nan

>  <ATP_Site>  (394) 
nan

>  <Peripheral>  (394) 
nan

>  <Num_H_Atoms_ProtBoundConf>  (394) 
nan

>  <Num_Resolved_Atoms>  (394) 
nan

>  <Num_Not_Resolved_Atoms>  (394) 
nan

$$$$
CHEMBL4212986
     RDKit          3D

  0  0  0  0  0  0  0  0  0  0999 V3000
M  V30 BEGIN CTAB
M  V30 COUNTS 34 36 0 0 0
M  V30 BEGIN ATOM
M  V30 1 O -1.638304 -5.930880 0.586018 0
M  V30 2 C -1.097504 -4.915693 1.140440 0
M  V30 3 N -0.351768 -5.046044 2.343053 0
M  V30 4 C 0.195373 -3.836332 2.850735 0
M  V30 5 S 1.292190 -3.494058 3.973579 0
M  V30 6 S -0.609707 -2.516588 1.946058 0
M  V30 7 C -1.195937 -3.574787 0.601821 0
M  V30 8 C -1.629939 -3.270242 -0.600587 0
M  V30 9 C -1.661398 -1.859479 -0.982017 0
M  V30 10 C -0.697729 -0.918015 -0.675946 0
M  V30 11 C -0.897778 0.393804 -1.117359 0
M  V30 12 N 0.215302 1.229004 -0.703968 0
M  V30 13 N 0.695271 1.206176 0.434458 0
M  V30 14 C 1.743843 1.914882 1.016939 0
M  V30 15 C 2.871888 2.466274 0.439176 0
M  V30 16 C 3.819823 3.144106 1.194616 0
M  V30 17 C 3.630764 3.271255 2.562020 0
M  V30 18 C 2.509728 2.732656 3.188082 0
M  V30 19 C 1.585061 2.062601 2.401496 0
M  V30 20 C -1.991454 0.821674 -1.838965 0
M  V30 21 C -2.945472 -0.160353 -2.129373 0
M  V30 22 C -2.769863 -1.460826 -1.704729 0
M  V30 23 O -3.788829 -2.352259 -2.054421 0
M  V30 24 H -0.177518 -5.929230 2.870114 0
M  V30 25 H -1.950100 -4.054921 -1.276208 0
M  V30 26 H 0.135353 -1.271633 -0.125310 0
M  V30 27 H 2.904741 2.299399 -0.635012 0
M  V30 28 H 4.665333 3.537992 0.647837 0
M  V30 29 H 4.412567 3.817931 3.118115 0
M  V30 30 H 2.385029 2.846083 4.256449 0
M  V30 31 H 0.732298 1.670144 2.975559 0
M  V30 32 H -2.011113 1.864882 -2.110422 0
M  V30 33 H -3.799388 0.198166 -2.699498 0
M  V30 34 H -4.582368 -2.429173 -1.434508 0
M  V30 END ATOM
M  V30 BEGIN BOND
M  V30 1 2 1 2
M  V30 2 1 2 3
M  V30 3 1 3 4
M  V30 4 2 4 5
M  V30 5 1 4 6
M  V30 6 1 6 7
M  V30 7 2 7 8
M  V30 8 1 8 9
M  V30 9 2 9 10
M  V30 10 1 10 11
M  V30 11 1 11 12
M  V30 12 2 12 13
M  V30 13 1 13 14
M  V30 14 2 14 15
M  V30 15 1 15 16
M  V30 16 2 16 17
M  V30 17 1 17 18
M  V30 18 2 18 19
M  V30 19 2 11 20
M  V30 20 1 20 21
M  V30 21 2 21 22
M  V30 22 1 22 23
M  V30 23 1 7 2
M  V30 24 1 22 9
M  V30 25 1 19 14
M  V30 26 1 3 24
M  V30 27 1 8 25
M  V30 28 1 10 26
M  V30 29 1 15 27
M  V30 30 1 16 28
M  V30 31 1 17 29
M  V30 32 1 18 30
M  V30 33 1 19 31
M  V30 34 1 20 32
M  V30 35 1 21 33
M  V30 36 1 23 34
M  V30 END BOND
M  V30 END CTAB
M  END
>  <Dataset>  (395) 
ChEMBL_Kinases

>  <Ligand_Instance>  (395) 
nan

>  <PDB_ID>  (395) 
nan

>  <Standardized_SMILES>  (395) 
O=C1NC(=S)S/C1=C\c1cc(/N=N/c2ccccc2)ccc1O

>  <Name>  (395) 
nan

>  <Pocket>  (395) 
nan

>  <ATP_Site>  (395) 
nan

>  <Peripheral>  (395) 
nan

>  <Num_H_Atoms_ProtBoundConf>  (395) 
nan

>  <Num_Resolved_Atoms>  (395) 
nan

>  <Num_Not_Resolved_Atoms>  (395) 
nan

$$$$
CHEMBL4212983
     RDKit          3D

  0  0  0  0  0  0  0  0  0  0999 V3000
M  V30 BEGIN CTAB
M  V30 COUNTS 43 45 0 0 0
M  V30 BEGIN ATOM
M  V30 1 C -0.766742 -6.310703 -1.614137 0
M  V30 2 N 0.232887 -5.268899 -1.555031 0
M  V30 3 C 1.509000 -5.303963 -2.272534 0
M  V30 4 C 2.201155 -4.022378 -1.839235 0
M  V30 5 C 1.549270 -3.610375 -0.560379 0 CFG=1
M  V30 6 O 2.012004 -4.331073 0.538128 0
M  V30 7 C 1.641263 -2.169390 -0.392897 0
M  V30 8 C 1.702583 -0.974545 -0.239230 0
M  V30 9 C 1.760589 0.456624 -0.035326 0
M  V30 10 C 2.473788 1.290995 -0.871043 0
M  V30 11 C 2.474890 2.643325 -0.603479 0
M  V30 12 C 1.807691 3.229189 0.450384 0
M  V30 13 C 1.083555 2.404508 1.303695 0
M  V30 14 C 0.303980 2.834360 2.485172 0
M  V30 15 C 0.777824 3.932089 3.168823 0
M  V30 16 C 0.067096 4.360974 4.286397 0
M  V30 17 C -1.075809 3.681085 4.668972 0
M  V30 18 C -1.492556 2.589413 3.937067 0
M  V30 19 C -2.704710 1.925041 4.401747 0
M  V30 20 N -3.191295 0.795216 3.702172 0
M  V30 21 O -3.351450 2.291529 5.390081 0
M  V30 22 C -0.826239 2.116572 2.816810 0
M  V30 23 C 1.091442 1.033004 1.019697 0
M  V30 24 C 0.134087 -4.047561 -0.793193 0
M  V30 25 O -0.990310 -3.575182 -0.468823 0
M  V30 26 H -1.584775 -6.092040 -2.342188 0
M  V30 27 H -0.297774 -7.257311 -1.918425 0
M  V30 28 H -1.218842 -6.529382 -0.601902 0
M  V30 29 H 1.361966 -5.362141 -3.375754 0
M  V30 30 H 2.071855 -6.204881 -1.974233 0
M  V30 31 H 3.262325 -4.291159 -1.579831 0
M  V30 32 H 2.193247 -3.244735 -2.607734 0
M  V30 33 H 1.568787 -4.050353 1.374033 0
M  V30 34 H 3.005833 0.858016 -1.703434 0
M  V30 35 H 3.038798 3.325114 -1.257501 0
M  V30 36 H 1.781880 4.263492 0.692888 0
M  V30 37 H 1.661263 4.434856 2.849507 0
M  V30 38 H 0.383436 5.215475 4.870759 0
M  V30 39 H -1.658177 3.962804 5.510361 0
M  V30 40 H -3.835797 1.048290 2.894112 0
M  V30 41 H -3.538069 -0.030860 3.202158 0
M  V30 42 H -1.183065 1.257171 2.268708 0
M  V30 43 H 0.538086 0.348409 1.663429 0
M  V30 END ATOM
M  V30 BEGIN BOND
M  V30 1 1 1 2
M  V30 2 1 2 3
M  V30 3 1 3 4
M  V30 4 1 4 5
M  V30 5 1 5 6
M  V30 6 1 5 7 CFG=1
M  V30 7 3 7 8
M  V30 8 1 8 9
M  V30 9 2 9 10
M  V30 10 1 10 11
M  V30 11 2 11 12
M  V30 12 1 12 13
M  V30 13 1 13 14
M  V30 14 2 14 15
M  V30 15 1 15 16
M  V30 16 2 16 17
M  V30 17 1 17 18
M  V30 18 1 18 19
M  V30 19 1 19 20
M  V30 20 2 19 21
M  V30 21 2 18 22
M  V30 22 2 13 23
M  V30 23 1 5 24
M  V30 24 2 24 25
M  V30 25 1 24 2
M  V30 26 1 23 9
M  V30 27 1 22 14
M  V30 28 1 1 26
M  V30 29 1 1 27
M  V30 30 1 1 28
M  V30 31 1 3 29
M  V30 32 1 3 30
M  V30 33 1 4 31
M  V30 34 1 4 32
M  V30 35 1 6 33
M  V30 36 1 10 34
M  V30 37 1 11 35
M  V30 38 1 12 36
M  V30 39 1 15 37
M  V30 40 1 16 38
M  V30 41 1 17 39
M  V30 42 1 20 40
M  V30 43 1 20 41
M  V30 44 1 22 42
M  V30 45 1 23 43
M  V30 END BOND
M  V30 END CTAB
M  END
>  <Dataset>  (396) 
ChEMBL_Kinases

>  <Ligand_Instance>  (396) 
nan

>  <PDB_ID>  (396) 
nan

>  <Standardized_SMILES>  (396) 
CN1CC[C@@](O)(C#Cc2cccc(-c3cccc(C(N)=O)c3)c2)C1=O

>  <Name>  (396) 
nan

>  <Pocket>  (396) 
nan

>  <ATP_Site>  (396) 
nan

>  <Peripheral>  (396) 
nan

>  <Num_H_Atoms_ProtBoundConf>  (396) 
nan

>  <Num_Resolved_Atoms>  (396) 
nan

>  <Num_Not_Resolved_Atoms>  (396) 
nan

$$$$
CHEMBL4212809
     RDKit          3D

  0  0  0  0  0  0  0  0  0  0999 V3000
M  V30 BEGIN CTAB
M  V30 COUNTS 67 71 0 0 0
M  V30 BEGIN ATOM
M  V30 1 C 5.136809 -2.806134 6.217669 0
M  V30 2 C 5.175756 -1.629147 5.326502 0
M  V30 3 C 3.995664 -1.202062 4.741281 0
M  V30 4 C 3.977388 -0.108829 3.911379 0
M  V30 5 C 5.110751 0.644493 3.593931 0
M  V30 6 N 5.040309 1.754193 2.742208 0
M  V30 7 C 3.787082 1.962102 2.052696 0
M  V30 8 N 4.071044 1.762582 0.752995 0
M  V30 9 C 3.137120 1.855259 -0.236860 0
M  V30 10 C 1.893222 2.168778 0.223482 0
M  V30 11 C 1.578347 2.375542 1.554113 0
M  V30 12 N 2.551872 2.272362 2.506410 0
M  V30 13 N 0.281105 2.609909 2.071566 0
M  V30 14 C 0.001790 2.818982 3.477053 0
M  V30 15 C -0.843409 2.632651 1.161466 0
M  V30 16 O -2.016969 2.840531 1.536030 0
M  V30 17 N -0.481069 2.397278 -0.190661 0
M  V30 18 C -1.604045 2.119626 -1.059978 0
M  V30 19 C -1.864230 0.742420 -1.109331 0
M  V30 20 C -2.886348 0.147934 -1.857435 0
M  V30 21 N -2.999525 -1.281868 -1.790076 0
M  V30 22 C -3.691579 -2.173285 -0.931922 0
M  V30 23 O -4.400182 -1.738428 0.008342 0
M  V30 24 C -3.551349 -3.604178 -1.172509 0
M  V30 25 C -4.179687 -4.403553 -0.244095 0
M  V30 26 C -4.051060 -5.771840 -0.434490 0
M  V30 27 C -3.336200 -6.338124 -1.489601 0
M  V30 28 C -3.235805 -7.803029 -1.612844 0
M  V30 29 C -2.716175 -5.506517 -2.406790 0
M  V30 30 C -1.940590 -6.070150 -3.550001 0
M  V30 31 F -2.809580 -6.848542 -4.296578 0
M  V30 32 F -1.629634 -4.991450 -4.392363 0
M  V30 33 F -0.784183 -6.674649 -3.201194 0
M  V30 34 C -2.843655 -4.147191 -2.218451 0
M  V30 35 C -3.659852 1.025335 -2.575329 0
M  V30 36 C -3.423940 2.380988 -2.543021 0
M  V30 37 C -2.409322 2.938780 -1.797403 0
M  V30 38 C -2.059932 4.367588 -1.683472 0
M  V30 39 C 0.817055 2.356103 -0.792708 0
M  V30 40 C 6.244484 0.167796 4.204080 0
M  V30 41 N 6.276158 -0.896996 5.015550 0
M  V30 42 H 4.818178 -3.746539 5.713459 0
M  V30 43 H 6.124095 -2.978041 6.681711 0
M  V30 44 H 4.452266 -2.548360 7.078804 0
M  V30 45 H 3.071553 -1.755281 4.952120 0
M  V30 46 H 3.000680 0.159761 3.493464 0
M  V30 47 H 5.873968 2.369401 2.644381 0
M  V30 48 H 3.302677 1.709175 -1.290886 0
M  V30 49 H 0.233676 3.871851 3.711251 0
M  V30 50 H -1.069670 2.603260 3.714163 0
M  V30 51 H 0.687189 2.186422 4.076206 0
M  V30 52 H -1.248726 0.028754 -0.531275 0
M  V30 53 H -2.386732 -1.513417 -2.598334 0
M  V30 54 H -4.759860 -4.068107 0.611401 0
M  V30 55 H -4.531248 -6.423488 0.277207 0
M  V30 56 H -3.917010 -8.291929 -0.887251 0
M  V30 57 H -2.198683 -8.168087 -1.354409 0
M  V30 58 H -3.554258 -8.191930 -2.612128 0
M  V30 59 H -2.356083 -3.503604 -2.936440 0
M  V30 60 H -4.448084 0.580067 -3.153707 0
M  V30 61 H -4.033028 3.068275 -3.107966 0
M  V30 62 H -2.559751 4.964612 -2.465347 0
M  V30 63 H -0.964822 4.510688 -1.829824 0
M  V30 64 H -2.334798 4.810520 -0.695803 0
M  V30 65 H 1.034033 3.281385 -1.381241 0
M  V30 66 H 0.922292 1.508480 -1.525860 0
M  V30 67 H 7.195271 0.690657 4.011439 0
M  V30 END ATOM
M  V30 BEGIN BOND
M  V30 1 1 1 2
M  V30 2 2 2 3
M  V30 3 1 3 4
M  V30 4 2 4 5
M  V30 5 1 5 6
M  V30 6 1 6 7
M  V30 7 2 7 8
M  V30 8 1 8 9
M  V30 9 2 9 10
M  V30 10 1 10 11
M  V30 11 2 11 12
M  V30 12 1 11 13
M  V30 13 1 13 14
M  V30 14 1 13 15
M  V30 15 2 15 16
M  V30 16 1 15 17
M  V30 17 1 17 18
M  V30 18 2 18 19
M  V30 19 1 19 20
M  V30 20 1 20 21
M  V30 21 1 21 22
M  V30 22 2 22 23
M  V30 23 1 22 24
M  V30 24 2 24 25
M  V30 25 1 25 26
M  V30 26 2 26 27
M  V30 27 1 27 28
M  V30 28 1 27 29
M  V30 29 1 29 30
M  V30 30 1 30 31
M  V30 31 1 30 32
M  V30 32 1 30 33
M  V30 33 2 29 34
M  V30 34 2 20 35
M  V30 35 1 35 36
M  V30 36 2 36 37
M  V30 37 1 37 38
M  V30 38 1 17 39
M  V30 39 1 5 40
M  V30 40 2 40 41
M  V30 41 1 41 2
M  V30 42 1 12 7
M  V30 43 1 37 18
M  V30 44 1 39 10
M  V30 45 1 34 24
M  V30 46 1 1 42
M  V30 47 1 1 43
M  V30 48 1 1 44
M  V30 49 1 3 45
M  V30 50 1 4 46
M  V30 51 1 6 47
M  V30 52 1 9 48
M  V30 53 1 14 49
M  V30 54 1 14 50
M  V30 55 1 14 51
M  V30 56 1 19 52
M  V30 57 1 21 53
M  V30 58 1 25 54
M  V30 59 1 26 55
M  V30 60 1 28 56
M  V30 61 1 28 57
M  V30 62 1 28 58
M  V30 63 1 34 59
M  V30 64 1 35 60
M  V30 65 1 36 61
M  V30 66 1 38 62
M  V30 67 1 38 63
M  V30 68 1 38 64
M  V30 69 1 39 65
M  V30 70 1 39 66
M  V30 71 1 40 67
M  V30 END BOND
M  V30 END CTAB
M  END
>  <Dataset>  (397) 
ChEMBL_Kinases

>  <Ligand_Instance>  (397) 
nan

>  <PDB_ID>  (397) 
nan

>  <Standardized_SMILES>  (397) 
Cc1ccc(Nc2ncc3c(n2)N(C)C(=O)N(c2cc(NC(=O)c4ccc(C)c(C(F)(F)F)c4)ccc2C)C3)cn1

>  <Name>  (397) 
nan

>  <Pocket>  (397) 
nan

>  <ATP_Site>  (397) 
nan

>  <Peripheral>  (397) 
nan

>  <Num_H_Atoms_ProtBoundConf>  (397) 
nan

>  <Num_Resolved_Atoms>  (397) 
nan

>  <Num_Not_Resolved_Atoms>  (397) 
nan

$$$$
CHEMBL4780420
     RDKit          3D

  0  0  0  0  0  0  0  0  0  0999 V3000
M  V30 BEGIN CTAB
M  V30 COUNTS 53 56 0 0 0
M  V30 BEGIN ATOM
M  V30 1 C -1.498639 2.443915 -0.631680 0
M  V30 2 C -0.164003 1.835180 -0.442487 0
M  V30 3 C 0.863445 2.271489 -1.250404 0
M  V30 4 C 2.125044 1.730998 -1.108354 0
M  V30 5 C 2.397487 0.754601 -0.171785 0
M  V30 6 C 3.706168 0.134072 0.038739 0
M  V30 7 O 3.906113 -0.756852 0.909335 0
M  V30 8 N 4.829763 0.501390 -0.728428 0
M  V30 9 C 6.112794 -0.129688 -0.498130 0
M  V30 10 C 7.125449 -0.181884 -1.588084 0
M  V30 11 C 7.313025 0.845848 -0.515518 0
M  V30 12 C 1.344816 0.330519 0.631793 0
M  V30 13 C 0.060365 0.848367 0.521348 0
M  V30 14 N -1.004817 0.399264 1.355581 0
M  V30 15 C -0.717505 0.658773 2.664299 0
M  V30 16 C -1.622518 0.303873 3.668586 0
M  V30 17 N -2.787746 -0.302403 3.306406 0
M  V30 18 C -3.057990 -0.553985 1.992431 0
M  V30 19 N -4.264525 -1.185266 1.578606 0
M  V30 20 C -5.167293 -0.479318 0.675438 0
M  V30 21 C -4.540367 -2.499891 2.073525 0
M  V30 22 C -3.538970 -3.521294 1.725224 0
M  V30 23 C -2.412837 -3.874609 2.445993 0
M  V30 24 C -1.548140 -4.856100 2.006049 0
M  V30 25 C -1.771068 -5.531490 0.820843 0
M  V30 26 C -2.883648 -5.209227 0.071262 0
M  V30 27 C -3.731427 -4.224090 0.534558 0
M  V30 28 C -2.155201 -0.197824 1.014280 0
M  V30 29 O -2.290801 -0.374888 -0.208415 0
M  V30 30 H -1.384633 3.553268 -0.788860 0
M  V30 31 H -2.048622 2.036242 -1.511191 0
M  V30 32 H -2.145748 2.340212 0.240469 0
M  V30 33 H 0.762429 3.036231 -2.022034 0
M  V30 34 H 2.937632 2.062376 -1.732890 0
M  V30 35 H 4.780547 1.226452 -1.475348 0
M  V30 36 H 6.157456 -0.900663 0.298496 0
M  V30 37 H 6.736022 0.185606 -2.582012 0
M  V30 38 H 7.845431 -1.009137 -1.612679 0
M  V30 39 H 7.102062 1.890958 -0.808504 0
M  V30 40 H 8.113472 0.677301 0.232669 0
M  V30 41 H 1.492606 -0.418765 1.371276 0
M  V30 42 H 0.172833 1.132458 3.056621 0
M  V30 43 H -1.438269 0.489709 4.723005 0
M  V30 44 H -5.691659 0.342890 1.217544 0
M  V30 45 H -5.950131 -1.139300 0.292903 0
M  V30 46 H -4.606064 0.037898 -0.155172 0
M  V30 47 H -5.525272 -2.889456 1.763020 0
M  V30 48 H -4.587621 -2.411562 3.196799 0
M  V30 49 H -2.276097 -3.322117 3.366307 0
M  V30 50 H -0.680382 -5.093212 2.610609 0
M  V30 51 H -1.113213 -6.306626 0.446381 0
M  V30 52 H -3.092115 -5.718474 -0.865955 0
M  V30 53 H -4.601570 -3.995752 -0.084861 0
M  V30 END ATOM
M  V30 BEGIN BOND
M  V30 1 1 1 2
M  V30 2 2 2 3
M  V30 3 1 3 4
M  V30 4 2 4 5
M  V30 5 1 5 6
M  V30 6 2 6 7
M  V30 7 1 6 8
M  V30 8 1 8 9
M  V30 9 1 9 10
M  V30 10 1 10 11
M  V30 11 1 5 12
M  V30 12 2 12 13
M  V30 13 1 13 14
M  V30 14 1 14 15
M  V30 15 2 15 16
M  V30 16 1 16 17
M  V30 17 2 17 18
M  V30 18 1 18 19
M  V30 19 1 19 20
M  V30 20 1 19 21
M  V30 21 1 21 22
M  V30 22 2 22 23
M  V30 23 1 23 24
M  V30 24 2 24 25
M  V30 25 1 25 26
M  V30 26 2 26 27
M  V30 27 1 18 28
M  V30 28 2 28 29
M  V30 29 1 13 2
M  V30 30 1 28 14
M  V30 31 1 11 9
M  V30 32 1 27 22
M  V30 33 1 1 30
M  V30 34 1 1 31
M  V30 35 1 1 32
M  V30 36 1 3 33
M  V30 37 1 4 34
M  V30 38 1 8 35
M  V30 39 1 9 36
M  V30 40 1 10 37
M  V30 41 1 10 38
M  V30 42 1 11 39
M  V30 43 1 11 40
M  V30 44 1 12 41
M  V30 45 1 15 42
M  V30 46 1 16 43
M  V30 47 1 20 44
M  V30 48 1 20 45
M  V30 49 1 20 46
M  V30 50 1 21 47
M  V30 51 1 21 48
M  V30 52 1 23 49
M  V30 53 1 24 50
M  V30 54 1 25 51
M  V30 55 1 26 52
M  V30 56 1 27 53
M  V30 END BOND
M  V30 END CTAB
M  END
>  <Dataset>  (398) 
ChEMBL_Kinases

>  <Ligand_Instance>  (398) 
nan

>  <PDB_ID>  (398) 
nan

>  <Standardized_SMILES>  (398) 
Cc1ccc(C(=O)NC2CC2)cc1-n1ccnc(N(C)Cc2ccccc2)c1=O

>  <Name>  (398) 
nan

>  <Pocket>  (398) 
nan

>  <ATP_Site>  (398) 
nan

>  <Peripheral>  (398) 
nan

>  <Num_H_Atoms_ProtBoundConf>  (398) 
nan

>  <Num_Resolved_Atoms>  (398) 
nan

>  <Num_Not_Resolved_Atoms>  (398) 
nan

$$$$
CHEMBL4780461
     RDKit          3D

  0  0  0  0  0  0  0  0  0  0999 V3000
M  V30 BEGIN CTAB
M  V30 COUNTS 56 60 0 0 0
M  V30 BEGIN ATOM
M  V30 1 C 2.530531 -4.160714 3.331179 0
M  V30 2 N 2.574828 -3.042830 2.399376 0
M  V30 3 C 3.673853 -2.872395 1.507524 0
M  V30 4 O 4.582673 -3.736525 1.580471 0
M  V30 5 C 3.777549 -1.790885 0.564167 0
M  V30 6 C 4.912333 -1.766989 -0.232836 0
M  V30 7 N 5.101728 -0.785321 -1.154598 0
M  V30 8 C 4.169935 0.185725 -1.299392 0
M  V30 9 N 4.052587 1.270446 -2.094399 0
M  V30 10 C 2.900781 1.909063 -1.820373 0
M  V30 11 C 2.221330 1.229504 -0.806266 0
M  V30 12 C 0.935472 1.690324 -0.296139 0
M  V30 13 C 0.825689 3.049363 -0.040586 0
M  V30 14 C -0.327458 3.661372 0.449027 0
M  V30 15 C -1.391227 2.818026 0.674569 0
M  V30 16 N -2.510988 3.391762 1.146886 0
M  V30 17 C -3.632705 2.688782 1.414849 0
M  V30 18 C -3.558925 1.328773 1.171404 0
M  V30 19 N -4.739923 0.586143 1.453500 0 CHG=1 VAL=4
M  V30 20 O -5.572216 0.950314 2.311966 0
M  V30 21 O -5.319422 -0.574776 0.999614 0 CHG=-1 VAL=1
M  V30 22 C -2.424247 0.709524 0.686701 0
M  V30 23 N -2.396664 -0.712847 0.449441 0
M  V30 24 C -1.969294 -1.560290 1.562062 0
M  V30 25 C -1.366478 -2.855101 1.139135 0
M  V30 26 C -1.913973 -3.441038 -0.120496 0
M  V30 27 C -3.168089 -2.725199 -0.576090 0 CFG=2
M  V30 28 N -3.554932 -3.303807 -1.871330 0
M  V30 29 C -2.773883 -1.285011 -0.830299 0
M  V30 30 C -1.300516 1.466773 0.426751 0
M  V30 31 C -0.162831 0.893050 -0.051491 0
M  V30 32 C 3.047515 0.165251 -0.513586 0
M  V30 33 C 2.821536 -0.819402 0.435659 0
M  V30 34 H 2.494178 -3.758048 4.357215 0
M  V30 35 H 1.637534 -4.772777 3.110106 0
M  V30 36 H 3.459762 -4.766199 3.208330 0
M  V30 37 H 1.795843 -2.362786 2.385675 0
M  V30 38 H 5.739406 -2.472059 -0.230871 0
M  V30 39 H 4.776577 1.540367 -2.808354 0
M  V30 40 H 2.569310 2.814995 -2.324347 0
M  V30 41 H 1.673044 3.717437 -0.220647 0
M  V30 42 H -0.368826 4.719993 0.633005 0
M  V30 43 H -4.549773 3.142879 1.799242 0
M  V30 44 H -1.183116 -0.983894 2.110104 0
M  V30 45 H -2.771048 -1.734265 2.280402 0
M  V30 46 H -1.582836 -3.613232 1.948300 0
M  V30 47 H -0.243507 -2.782244 1.122360 0
M  V30 48 H -2.094935 -4.532499 -0.052500 0
M  V30 49 H -1.138009 -3.273816 -0.915400 0
M  V30 50 H -3.978885 -2.823228 0.158822 0
M  V30 51 H -3.652273 -2.563631 -2.591961 0
M  V30 52 H -4.431007 -3.852027 -1.791297 0
M  V30 53 H -1.883576 -1.349967 -1.519585 0
M  V30 54 H -3.554622 -0.690685 -1.331860 0
M  V30 55 H -0.071165 -0.143437 -0.249051 0
M  V30 56 H 1.936861 -0.827806 1.048760 0
M  V30 END ATOM
M  V30 BEGIN BOND
M  V30 1 1 1 2
M  V30 2 1 2 3
M  V30 3 2 3 4
M  V30 4 1 3 5
M  V30 5 2 5 6
M  V30 6 1 6 7
M  V30 7 2 7 8
M  V30 8 1 8 9
M  V30 9 1 9 10
M  V30 10 2 10 11
M  V30 11 1 11 12
M  V30 12 2 12 13
M  V30 13 1 13 14
M  V30 14 2 14 15
M  V30 15 1 15 16
M  V30 16 2 16 17
M  V30 17 1 17 18
M  V30 18 1 18 19
M  V30 19 2 19 20
M  V30 20 1 19 21
M  V30 21 2 18 22
M  V30 22 1 22 23
M  V30 23 1 23 24
M  V30 24 1 24 25
M  V30 25 1 25 26
M  V30 26 1 26 27
M  V30 27 1 27 28
M  V30 28 1 27 29
M  V30 29 1 22 30
M  V30 30 2 30 31
M  V30 31 1 11 32
M  V30 32 2 32 33
M  V30 33 1 33 5
M  V30 34 1 32 8
M  V30 35 1 31 12
M  V30 36 1 30 15
M  V30 37 1 29 23
M  V30 38 1 1 34
M  V30 39 1 1 35
M  V30 40 1 1 36
M  V30 41 1 2 37
M  V30 42 1 6 38
M  V30 43 1 9 39
M  V30 44 1 10 40
M  V30 45 1 13 41
M  V30 46 1 14 42
M  V30 47 1 17 43
M  V30 48 1 24 44
M  V30 49 1 24 45
M  V30 50 1 25 46
M  V30 51 1 25 47
M  V30 52 1 26 48
M  V30 53 1 26 49
M  V30 54 1 27 50 CFG=1
M  V30 55 1 28 51
M  V30 56 1 28 52
M  V30 57 1 29 53
M  V30 58 1 29 54
M  V30 59 1 31 55
M  V30 60 1 33 56
M  V30 END BOND
M  V30 END CTAB
M  END
>  <Dataset>  (399) 
ChEMBL_Kinases

>  <Ligand_Instance>  (399) 
nan

>  <PDB_ID>  (399) 
nan

>  <Standardized_SMILES>  (399) 
CNC(=O)c1cnc2[nH]cc(-c3ccc4ncc([N+](=O)[O-])c(N5CCC[C@H](N)C5)c4c3)c2c1

>  <Name>  (399) 
nan

>  <Pocket>  (399) 
nan

>  <ATP_Site>  (399) 
nan

>  <Peripheral>  (399) 
nan

>  <Num_H_Atoms_ProtBoundConf>  (399) 
nan

>  <Num_Resolved_Atoms>  (399) 
nan

>  <Num_Not_Resolved_Atoms>  (399) 
nan

$$$$
CHEMBL4780479
     RDKit          3D

  0  0  0  0  0  0  0  0  0  0999 V3000
M  V30 BEGIN CTAB
M  V30 COUNTS 24 25 0 0 0
M  V30 BEGIN ATOM
M  V30 1 C -0.845006 -5.111789 2.114374 0
M  V30 2 C -0.479648 -3.782404 1.571021 0
M  V30 3 O -0.987720 -3.265528 0.532419 0
M  V30 4 N 0.502504 -2.982826 2.214430 0
M  V30 5 C 0.760357 -1.701296 1.570558 0
M  V30 6 N 0.238947 -0.680231 1.761924 0
M  V30 7 C 0.465347 0.490246 1.182657 0
M  V30 8 C -0.157710 1.700332 1.414390 0
M  V30 9 C 0.228025 2.807042 0.700302 0
M  V30 10 C 1.214519 2.830847 -0.263019 0
M  V30 11 C 1.653581 4.008079 -1.050504 0
M  V30 12 F 0.711635 4.994849 -1.096341 0
M  V30 13 F 1.776870 3.539102 -2.365468 0
M  V30 14 F 2.873829 4.490391 -0.622344 0
M  V30 15 C 1.857561 1.639278 -0.519813 0
M  V30 16 C 1.459445 0.518221 0.210689 0
M  V30 17 S 2.022565 -1.221531 0.199862 0
M  V30 18 H 0.055449 -5.723413 2.307163 0
M  V30 19 H -1.437599 -5.045645 3.050804 0
M  V30 20 H -1.450578 -5.676788 1.373168 0
M  V30 21 H 0.969839 -3.329250 3.071919 0
M  V30 22 H -0.957813 1.862556 2.139870 0
M  V30 23 H -0.261196 3.780028 0.875243 0
M  V30 24 H 2.638934 1.451477 -1.219294 0
M  V30 END ATOM
M  V30 BEGIN BOND
M  V30 1 1 1 2
M  V30 2 2 2 3
M  V30 3 1 2 4
M  V30 4 1 4 5
M  V30 5 2 5 6
M  V30 6 1 6 7
M  V30 7 2 7 8
M  V30 8 1 8 9
M  V30 9 2 9 10
M  V30 10 1 10 11
M  V30 11 1 11 12
M  V30 12 1 11 13
M  V30 13 1 11 14
M  V30 14 1 10 15
M  V30 15 2 15 16
M  V30 16 1 16 17
M  V30 17 1 17 5
M  V30 18 1 16 7
M  V30 19 1 1 18
M  V30 20 1 1 19
M  V30 21 1 1 20
M  V30 22 1 4 21
M  V30 23 1 8 22
M  V30 24 1 9 23
M  V30 25 1 15 24
M  V30 END BOND
M  V30 END CTAB
M  END
>  <Dataset>  (400) 
ChEMBL_Kinases

>  <Ligand_Instance>  (400) 
nan

>  <PDB_ID>  (400) 
nan

>  <Standardized_SMILES>  (400) 
CC(=O)Nc1nc2ccc(C(F)(F)F)cc2s1

>  <Name>  (400) 
nan

>  <Pocket>  (400) 
nan

>  <ATP_Site>  (400) 
nan

>  <Peripheral>  (400) 
nan

>  <Num_H_Atoms_ProtBoundConf>  (400) 
nan

>  <Num_Resolved_Atoms>  (400) 
nan

>  <Num_Not_Resolved_Atoms>  (400) 
nan

$$$$
CHEMBL4780515
     RDKit          3D

  0  0  0  0  0  0  0  0  0  0999 V3000
M  V30 BEGIN CTAB
M  V30 COUNTS 69 75 0 0 0
M  V30 BEGIN ATOM
M  V30 1 H 3.876279 -1.977647 3.612059 0 MASS=2
M  V30 2 C 4.685089 -2.669622 3.415361 0
M  V30 3 H 5.210658 -2.801996 4.409408 0 MASS=2
M  V30 4 H 4.212023 -3.650895 3.180702 0 MASS=2
M  V30 5 O 5.649690 -2.322595 2.528823 0
M  V30 6 C 5.303617 -2.074726 1.232224 0
M  V30 7 C 4.429844 -1.029614 1.022580 0
M  V30 8 C 4.628044 0.400217 1.388471 0
M  V30 9 C 3.428000 0.429416 0.527072 0
M  V30 10 N 2.568133 1.415428 0.269776 0
M  V30 11 C 1.490658 1.804208 1.017429 0
M  V30 12 C 0.889725 2.875989 0.347520 0
M  V30 13 N -0.278481 3.579859 0.799122 0
M  V30 14 N -0.411978 4.792333 1.324311 0
M  V30 15 C -1.707020 5.033000 1.599497 0
M  V30 16 C -2.465500 3.935517 1.242593 0
M  V30 17 C -3.797363 3.569917 1.269268 0
M  V30 18 C -4.247103 2.341784 0.816257 0
M  V30 19 Cl -5.930011 1.908485 0.861920 0
M  V30 20 C -3.319682 1.439580 0.313845 0
M  V30 21 N -3.691209 0.157275 -0.171177 0
M  V30 22 C -4.343002 -0.819301 0.673347 0
M  V30 23 C -3.697999 -2.178763 0.574532 0
M  V30 24 N -3.162746 -2.496007 -0.683532 0
M  V30 25 C -1.856232 -3.039624 -0.716805 0 CFG=2
M  V30 26 C -0.801398 -2.127007 -0.129379 0
M  V30 27 C -1.394030 -3.426239 -2.104509 0
M  V30 28 O -0.388498 -4.368050 -1.926647 0
M  V30 29 C -0.462318 -4.894558 -0.669154 0
M  V30 30 C -1.733454 -4.375328 -0.028138 0 CFG=2
M  V30 31 O -2.735381 -5.265634 -0.469236 0
M  V30 32 C -3.511723 -1.688329 -1.775102 0
M  V30 33 C -3.421731 -0.208179 -1.545808 0
M  V30 34 C -1.995103 1.821684 0.295046 0
M  V30 35 C -1.511448 3.048487 0.742952 0
M  V30 36 C 1.627867 3.105629 -0.795060 0
M  V30 37 N 2.625206 2.207319 -0.802504 0
M  V30 38 C 4.119909 -0.480579 -0.379068 0
M  V30 39 C 2.997438 -0.849454 1.272243 0
M  V30 40 H 6.286746 -1.863347 0.704128 0
M  V30 41 H 4.959479 -3.012227 0.735931 0
M  V30 42 H 5.507224 0.916241 0.958469 0
M  V30 43 H 4.406519 0.652052 2.447229 0
M  V30 44 H 1.156181 1.360098 1.967841 0
M  V30 45 H -2.123395 5.941020 2.035474 0
M  V30 46 H -4.504183 4.299281 1.669724 0
M  V30 47 H -4.334912 -0.418958 1.708117 0
M  V30 48 H -5.413401 -0.881524 0.368994 0
M  V30 49 H -4.467765 -2.949306 0.852337 0
M  V30 50 H -2.938088 -2.237041 1.374420 0
M  V30 51 H -0.758287 -1.150232 -0.691658 0
M  V30 52 H 0.212615 -2.555185 -0.264590 0
M  V30 53 H -0.939182 -1.978350 0.961088 0
M  V30 54 H -2.249512 -3.925716 -2.604824 0
M  V30 55 H -1.023618 -2.549695 -2.676777 0
M  V30 56 H -0.450527 -6.009243 -0.649927 0
M  V30 57 H 0.403856 -4.573035 -0.037033 0
M  V30 58 H -1.675191 -4.332472 1.060608 0
M  V30 59 H -2.721583 -6.037168 0.152195 0
M  V30 60 H -2.973253 -1.982931 -2.694460 0
M  V30 61 H -4.597403 -1.888325 -2.016746 0
M  V30 62 H -4.145501 0.376354 -2.161229 0
M  V30 63 H -2.416050 0.184298 -1.800061 0
M  V30 64 H -1.284286 1.114435 -0.096771 0
M  V30 65 H 1.430952 3.875343 -1.546268 0
M  V30 66 H 5.013173 -0.086496 -0.889199 0
M  V30 67 H 3.462265 -1.136397 -0.970465 0
M  V30 68 H 2.314662 -1.471893 0.617046 0
M  V30 69 H 2.592535 -0.607342 2.250494 0
M  V30 END ATOM
M  V30 BEGIN BOND
M  V30 1 1 1 2
M  V30 2 1 2 3
M  V30 3 1 2 4
M  V30 4 1 2 5
M  V30 5 1 5 6
M  V30 6 1 6 7
M  V30 7 1 7 8
M  V30 8 1 8 9
M  V30 9 1 9 10
M  V30 10 1 10 11
M  V30 11 2 11 12
M  V30 12 1 12 13
M  V30 13 1 13 14
M  V30 14 2 14 15
M  V30 15 1 15 16
M  V30 16 2 16 17
M  V30 17 1 17 18
M  V30 18 1 18 19
M  V30 19 2 18 20
M  V30 20 1 20 21
M  V30 21 1 21 22
M  V30 22 1 22 23
M  V30 23 1 23 24
M  V30 24 1 24 25
M  V30 25 1 25 26 CFG=1
M  V30 26 1 25 27
M  V30 27 1 27 28
M  V30 28 1 28 29
M  V30 29 1 29 30
M  V30 30 1 30 31
M  V30 31 1 24 32
M  V30 32 1 32 33
M  V30 33 1 20 34
M  V30 34 2 34 35
M  V30 35 1 12 36
M  V30 36 2 36 37
M  V30 37 1 9 38
M  V30 38 1 9 39
M  V30 39 1 38 7
M  V30 40 1 39 7
M  V30 41 1 37 10
M  V30 42 1 35 13
M  V30 43 1 35 16
M  V30 44 1 33 21
M  V30 45 1 30 25
M  V30 46 1 6 40
M  V30 47 1 6 41
M  V30 48 1 8 42
M  V30 49 1 8 43
M  V30 50 1 11 44
M  V30 51 1 15 45
M  V30 52 1 17 46
M  V30 53 1 22 47
M  V30 54 1 22 48
M  V30 55 1 23 49
M  V30 56 1 23 50
M  V30 57 1 26 51
M  V30 58 1 26 52
M  V30 59 1 26 53
M  V30 60 1 27 54
M  V30 61 1 27 55
M  V30 62 1 29 56
M  V30 63 1 29 57
M  V30 64 1 30 58 CFG=1
M  V30 65 1 31 59
M  V30 66 1 32 60
M  V30 67 1 32 61
M  V30 68 1 33 62
M  V30 69 1 33 63
M  V30 70 1 34 64
M  V30 71 1 36 65
M  V30 72 1 38 66
M  V30 73 1 38 67
M  V30 74 1 39 68
M  V30 75 1 39 69
M  V30 END BOND
M  V30 END CTAB
M  END
>  <Dataset>  (401) 
ChEMBL_Kinases

>  <Ligand_Instance>  (401) 
nan

>  <PDB_ID>  (401) 
nan

>  <Standardized_SMILES>  (401) 
[2H]C([2H])([2H])OCC12CC(n3cc(-n4ncc5cc(Cl)c(N6CCN([C@]7(C)COC[C@@H]7O)CC6)cc54)cn3)(C1)C2

>  <Name>  (401) 
nan

>  <Pocket>  (401) 
nan

>  <ATP_Site>  (401) 
nan

>  <Peripheral>  (401) 
nan

>  <Num_H_Atoms_ProtBoundConf>  (401) 
nan

>  <Num_Resolved_Atoms>  (401) 
nan

>  <Num_Not_Resolved_Atoms>  (401) 
nan

$$$$
CHEMBL4212714
     RDKit          3D

  0  0  0  0  0  0  0  0  0  0999 V3000
M  V30 BEGIN CTAB
M  V30 COUNTS 55 59 0 0 0
M  V30 BEGIN ATOM
M  V30 1 C 4.447431 2.817624 3.248732 0
M  V30 2 C 3.764047 1.637785 3.877467 0 CFG=2
M  V30 3 C 3.035783 1.972522 5.160110 0
M  V30 4 O 2.418007 0.842746 5.709165 0
M  V30 5 C 4.746033 0.537023 4.093546 0
M  V30 6 N 4.774059 -0.169542 2.801471 0
M  V30 7 C 3.443984 -0.061563 2.290604 0
M  V30 8 C 2.853771 -0.880739 1.325184 0
M  V30 9 C 3.583814 -1.967839 0.723830 0
M  V30 10 N 4.183892 -2.843767 0.224803 0
M  V30 11 C 1.546547 -0.575995 0.988148 0
M  V30 12 C 0.880104 0.474806 1.577709 0
M  V30 13 C -0.501813 0.709286 1.124069 0
M  V30 14 C -1.304538 1.727824 1.590293 0
M  V30 15 C -2.576722 1.886499 1.093655 0
M  V30 16 N -3.066406 1.070251 0.156579 0
M  V30 17 C -2.283448 0.055027 -0.315539 0
M  V30 18 N -2.580914 -0.913148 -1.310883 0
M  V30 19 C -3.386132 -2.078720 -1.403941 0
M  V30 20 C -4.210792 -2.338382 -0.305948 0
M  V30 21 C -5.068538 -3.406169 -0.233163 0
M  V30 22 C -5.895992 -3.634808 0.897185 0
M  V30 23 N -6.578320 -3.805342 1.805416 0
M  V30 24 C -5.056574 -4.228350 -1.355713 0
M  V30 25 C -4.253667 -3.979964 -2.429949 0
M  V30 26 C -3.395096 -2.917795 -2.512336 0
M  V30 27 O -2.527090 -2.505407 -3.474129 0
M  V30 28 C -2.327324 -3.229177 -4.674893 0
M  V30 29 C -0.921310 -3.297973 -5.202913 0
M  V30 30 C -1.891590 -2.382137 -5.851124 0
M  V30 31 N -1.025408 -0.110959 0.169723 0
M  V30 32 C 1.477466 1.269051 2.525505 0
M  V30 33 C 2.793934 1.008280 2.903918 0
M  V30 34 H 4.886917 2.464589 2.302806 0
M  V30 35 H 5.152738 3.247866 3.952699 0
M  V30 36 H 3.656854 3.601146 3.082167 0
M  V30 37 H 3.634976 2.550240 5.859755 0
M  V30 38 H 2.185336 2.656909 4.863355 0
M  V30 39 H 1.535664 1.065852 6.058411 0
M  V30 40 H 5.750710 0.845657 4.400771 0
M  V30 41 H 4.350428 -0.118475 4.903894 0
M  V30 42 H 5.662469 -0.618577 2.446482 0
M  V30 43 H 1.111771 -1.232419 0.235515 0
M  V30 44 H -0.932686 2.384655 2.333349 0
M  V30 45 H -3.249887 2.666446 1.424740 0
M  V30 46 H -2.038984 -0.634254 -2.166022 0
M  V30 47 H -4.202651 -1.680686 0.562398 0
M  V30 48 H -5.702828 -5.093625 -1.386182 0
M  V30 49 H -4.217636 -4.608452 -3.333449 0
M  V30 50 H -2.895489 -4.150274 -4.836369 0
M  V30 51 H -0.595935 -4.158639 -5.773950 0
M  V30 52 H -0.151936 -2.932734 -4.487826 0
M  V30 53 H -2.286426 -2.662583 -6.841711 0
M  V30 54 H -1.769091 -1.301235 -5.696573 0
M  V30 55 H 0.963572 2.086709 2.986409 0
M  V30 END ATOM
M  V30 BEGIN BOND
M  V30 1 1 2 1 CFG=3
M  V30 2 1 2 3
M  V30 3 1 3 4
M  V30 4 1 2 5
M  V30 5 1 5 6
M  V30 6 1 6 7
M  V30 7 2 7 8
M  V30 8 1 8 9
M  V30 9 3 9 10
M  V30 10 1 8 11
M  V30 11 2 11 12
M  V30 12 1 12 13
M  V30 13 2 13 14
M  V30 14 1 14 15
M  V30 15 2 15 16
M  V30 16 1 16 17
M  V30 17 1 17 18
M  V30 18 1 18 19
M  V30 19 2 19 20
M  V30 20 1 20 21
M  V30 21 1 21 22
M  V30 22 3 22 23
M  V30 23 2 21 24
M  V30 24 1 24 25
M  V30 25 2 25 26
M  V30 26 1 26 27
M  V30 27 1 27 28
M  V30 28 1 28 29
M  V30 29 1 29 30
M  V30 30 2 17 31
M  V30 31 1 12 32
M  V30 32 2 32 33
M  V30 33 1 33 2
M  V30 34 1 33 7
M  V30 35 1 31 13
M  V30 36 1 26 19
M  V30 37 1 30 28
M  V30 38 1 1 34
M  V30 39 1 1 35
M  V30 40 1 1 36
M  V30 41 1 3 37
M  V30 42 1 3 38
M  V30 43 1 4 39
M  V30 44 1 5 40
M  V30 45 1 5 41
M  V30 46 1 6 42
M  V30 47 1 11 43
M  V30 48 1 14 44
M  V30 49 1 15 45
M  V30 50 1 18 46
M  V30 51 1 20 47
M  V30 52 1 24 48
M  V30 53 1 25 49
M  V30 54 1 28 50
M  V30 55 1 29 51
M  V30 56 1 29 52
M  V30 57 1 30 53
M  V30 58 1 30 54
M  V30 59 1 32 55
M  V30 END BOND
M  V30 END CTAB
M  END
>  <Dataset>  (402) 
ChEMBL_Kinases

>  <Ligand_Instance>  (402) 
nan

>  <PDB_ID>  (402) 
nan

>  <Standardized_SMILES>  (402) 
C[C@]1(CO)CNc2c(C#N)cc(-c3ccnc(Nc4cc(C#N)ccc4OC4CC4)n3)cc21

>  <Name>  (402) 
nan

>  <Pocket>  (402) 
nan

>  <ATP_Site>  (402) 
nan

>  <Peripheral>  (402) 
nan

>  <Num_H_Atoms_ProtBoundConf>  (402) 
nan

>  <Num_Resolved_Atoms>  (402) 
nan

>  <Num_Not_Resolved_Atoms>  (402) 
nan

$$$$
CHEMBL4212710
     RDKit          3D

  0  0  0  0  0  0  0  0  0  0999 V3000
M  V30 BEGIN CTAB
M  V30 COUNTS 53 57 0 0 0
M  V30 BEGIN ATOM
M  V30 1 C -2.001829 -4.496044 6.176087 0
M  V30 2 C -1.068548 -3.468586 5.652934 0
M  V30 3 C 0.202293 -3.741897 5.214861 0
M  V30 4 C 1.042344 -2.763874 4.732075 0
M  V30 5 C 0.538763 -1.463253 4.706782 0
M  V30 6 C 1.314522 -0.260119 4.206495 0
M  V30 7 N 1.089337 -0.071238 2.823459 0
M  V30 8 C 0.868179 0.114455 1.464624 0
M  V30 9 N 1.293323 1.006686 0.566891 0
M  V30 10 C 0.943504 0.987426 -0.719268 0
M  V30 11 N 1.531573 2.037209 -1.455831 0
M  V30 12 C 2.533716 2.937123 -0.927496 0
M  V30 13 C 2.099848 4.384596 -1.070966 0
M  V30 14 O 1.550100 4.642389 -2.310022 0
M  V30 15 C 0.579423 3.767892 -2.725279 0
M  V30 16 C 1.224756 2.377961 -2.826019 0
M  V30 17 N 0.125235 0.012694 -1.094765 0
M  V30 18 C -0.381620 -0.949224 -0.313456 0
M  V30 19 C -0.004475 -0.915518 1.036992 0
M  V30 20 N -0.655531 -1.979134 1.547305 0
M  V30 21 C -1.349360 -2.573453 0.565922 0
M  V30 22 N -1.199505 -1.957508 -0.601571 0
M  V30 23 C -1.729341 -2.228526 -1.900063 0
M  V30 24 C -0.829344 -3.047729 -2.574635 0
M  V30 25 C -1.068025 -3.488262 -3.881837 0
M  V30 26 C -2.250822 -3.080113 -4.504465 0
M  V30 27 C -3.118694 -2.271058 -3.810329 0
M  V30 28 F -4.290272 -1.831157 -4.348188 0
M  V30 29 C -2.893260 -1.832283 -2.524912 0
M  V30 30 N -0.691815 -1.189730 5.129817 0
M  V30 31 C -1.499128 -2.148724 5.596994 0
M  V30 32 H -1.769138 -5.523407 5.825419 0
M  V30 33 H -2.067325 -4.494283 7.295310 0
M  V30 34 H -3.035580 -4.269622 5.805893 0
M  V30 35 H 0.573023 -4.756210 5.242664 0
M  V30 36 H 2.050193 -2.906498 4.372068 0
M  V30 37 H 1.089602 0.580473 4.890630 0
M  V30 38 H 2.382242 -0.569138 4.393448 0
M  V30 39 H 1.733683 0.791768 2.903459 0
M  V30 40 H 3.434294 2.821830 -1.600327 0
M  V30 41 H 2.827298 2.729251 0.099634 0
M  V30 42 H 1.492804 4.669247 -0.208448 0
M  V30 43 H 3.049093 4.992608 -1.009549 0
M  V30 44 H 0.190230 4.117376 -3.694631 0
M  V30 45 H -0.205900 3.672435 -1.938941 0
M  V30 46 H 0.523411 1.659302 -3.298508 0
M  V30 47 H 2.142472 2.508383 -3.414811 0
M  V30 48 H -1.965633 -3.460543 0.709940 0
M  V30 49 H 0.131448 -3.449502 -2.224717 0
M  V30 50 H -0.421309 -4.115316 -4.457281 0
M  V30 51 H -2.498375 -3.383931 -5.513992 0
M  V30 52 H -3.479798 -1.209631 -1.882152 0
M  V30 53 H -2.496021 -1.929574 5.940358 0
M  V30 END ATOM
M  V30 BEGIN BOND
M  V30 1 1 1 2
M  V30 2 2 2 3
M  V30 3 1 3 4
M  V30 4 2 4 5
M  V30 5 1 5 6
M  V30 6 1 6 7
M  V30 7 1 7 8
M  V30 8 2 8 9
M  V30 9 1 9 10
M  V30 10 1 10 11
M  V30 11 1 11 12
M  V30 12 1 12 13
M  V30 13 1 13 14
M  V30 14 1 14 15
M  V30 15 1 15 16
M  V30 16 2 10 17
M  V30 17 1 17 18
M  V30 18 2 18 19
M  V30 19 1 19 20
M  V30 20 2 20 21
M  V30 21 1 21 22
M  V30 22 1 22 23
M  V30 23 2 23 24
M  V30 24 1 24 25
M  V30 25 2 25 26
M  V30 26 1 26 27
M  V30 27 1 27 28
M  V30 28 2 27 29
M  V30 29 1 5 30
M  V30 30 2 30 31
M  V30 31 1 31 2
M  V30 32 1 19 8
M  V30 33 1 29 23
M  V30 34 1 16 11
M  V30 35 1 22 18
M  V30 36 1 1 32
M  V30 37 1 1 33
M  V30 38 1 1 34
M  V30 39 1 3 35
M  V30 40 1 4 36
M  V30 41 1 6 37
M  V30 42 1 6 38
M  V30 43 1 7 39
M  V30 44 1 12 40
M  V30 45 1 12 41
M  V30 46 1 13 42
M  V30 47 1 13 43
M  V30 48 1 15 44
M  V30 49 1 15 45
M  V30 50 1 16 46
M  V30 51 1 16 47
M  V30 52 1 21 48
M  V30 53 1 24 49
M  V30 54 1 25 50
M  V30 55 1 26 51
M  V30 56 1 29 52
M  V30 57 1 31 53
M  V30 END BOND
M  V30 END CTAB
M  END
>  <Dataset>  (403) 
ChEMBL_Kinases

>  <Ligand_Instance>  (403) 
nan

>  <PDB_ID>  (403) 
nan

>  <Standardized_SMILES>  (403) 
Cc1ccc(CNc2nc(N3CCOCC3)nc3c2ncn3-c2cccc(F)c2)nc1

>  <Name>  (403) 
nan

>  <Pocket>  (403) 
nan

>  <ATP_Site>  (403) 
nan

>  <Peripheral>  (403) 
nan

>  <Num_H_Atoms_ProtBoundConf>  (403) 
nan

>  <Num_Resolved_Atoms>  (403) 
nan

>  <Num_Not_Resolved_Atoms>  (403) 
nan

$$$$
CHEMBL4212692
     RDKit          3D

  0  0  0  0  0  0  0  0  0  0999 V3000
M  V30 BEGIN CTAB
M  V30 COUNTS 73 77 0 0 0
M  V30 BEGIN ATOM
M  V30 1 C 7.765277 -6.875666 1.789028 0
M  V30 2 C 7.164762 -6.079313 2.926074 0
M  V30 3 C 6.648531 -4.790490 2.322289 0
M  V30 4 S 5.896843 -3.730047 3.488676 0
M  V30 5 O 4.847664 -4.403300 4.312967 0
M  V30 6 O 6.983623 -3.347099 4.482798 0
M  V30 7 N 5.365018 -2.310804 2.732048 0
M  V30 8 C 4.467341 -1.937438 1.725043 0
M  V30 9 C 4.474184 -2.538564 0.486109 0
M  V30 10 C 3.622770 -2.210445 -0.560830 0
M  V30 11 C 2.700118 -1.209186 -0.350992 0
M  V30 12 F 1.867216 -0.884982 -1.381094 0
M  V30 13 C 2.646437 -0.563350 0.886312 0
M  V30 14 N 1.642158 0.439340 0.961126 0
M  V30 15 C 1.594505 1.775245 1.165603 0
M  V30 16 C 0.301956 2.233545 1.128704 0
M  V30 17 C -0.062992 3.649648 1.318518 0
M  V30 18 C -0.977397 4.286604 0.508467 0
M  V30 19 N -1.246155 5.589169 0.760395 0
M  V30 20 C -0.653795 6.266059 1.764558 0
M  V30 21 N 0.237853 5.668536 2.564857 0
M  V30 22 C 0.533390 4.369679 2.346404 0
M  V30 23 C -0.506736 1.143929 0.889670 0
M  V30 24 N -1.842317 1.106328 0.769046 0
M  V30 25 C -2.472008 -0.057282 0.531301 0
M  V30 26 N -3.843828 -0.397623 0.353677 0
M  V30 27 C -4.441576 -0.736618 1.606777 0
M  V30 28 C -4.453292 -0.386138 -0.934474 0
M  V30 29 C -5.650210 0.531534 -0.921654 0
M  V30 30 C -6.383378 0.439291 -2.260176 0
M  V30 31 N -5.483335 -0.147287 -3.200253 0
M  V30 32 C -5.780815 0.131840 -4.565617 0
M  V30 33 C -5.538106 1.602441 -4.826903 0
M  V30 34 C -5.214852 -1.547292 -2.944701 0
M  V30 35 C -4.744705 -1.745994 -1.519204 0
M  V30 36 C -1.700581 -1.222648 0.414454 0
M  V30 37 C -0.310003 -1.159457 0.544121 0
M  V30 38 C 0.346144 0.052404 0.791052 0
M  V30 39 C 3.507092 -0.930878 1.868519 0
M  V30 40 F 3.420518 -0.283596 3.041568 0
M  V30 41 H 7.629481 -7.968455 1.932702 0
M  V30 42 H 8.847338 -6.624301 1.681326 0
M  V30 43 H 7.311029 -6.556084 0.825659 0
M  V30 44 H 6.380814 -6.672123 3.399665 0
M  V30 45 H 8.002962 -5.911022 3.654488 0
M  V30 46 H 7.492477 -4.309904 1.799523 0
M  V30 47 H 5.922354 -5.115993 1.529745 0
M  V30 48 H 5.786448 -1.381971 3.046608 0
M  V30 49 H 5.159336 -3.328826 0.217203 0
M  V30 50 H 3.649294 -2.701154 -1.530724 0
M  V30 51 H 2.537163 2.294673 1.325660 0
M  V30 52 H -1.459305 3.750320 -0.301595 0
M  V30 53 H -0.891281 7.313386 1.942491 0
M  V30 54 H 1.258703 3.953827 3.026128 0
M  V30 55 H -4.065799 -1.714473 2.011192 0
M  V30 56 H -5.533687 -0.910411 1.435786 0
M  V30 57 H -4.315469 0.056658 2.370540 0
M  V30 58 H -3.711358 0.074958 -1.657629 0
M  V30 59 H -5.278674 1.557935 -0.723449 0
M  V30 60 H -6.317956 0.179937 -0.091386 0
M  V30 61 H -6.617890 1.460477 -2.577470 0
M  V30 62 H -7.289933 -0.177046 -2.093854 0
M  V30 63 H -5.176004 -0.501409 -5.254170 0
M  V30 64 H -6.869848 -0.068838 -4.761042 0
M  V30 65 H -5.181998 1.781960 -5.865293 0
M  V30 66 H -4.800467 1.986684 -4.076657 0
M  V30 67 H -6.484606 2.139215 -4.611543 0
M  V30 68 H -4.431793 -1.842691 -3.690626 0
M  V30 69 H -6.105788 -2.156717 -3.158813 0
M  V30 70 H -3.735217 -2.252474 -1.586989 0
M  V30 71 H -5.448228 -2.355117 -0.950957 0
M  V30 72 H -2.054505 -2.228701 0.226254 0
M  V30 73 H 0.305818 -2.068040 0.456092 0
M  V30 END ATOM
M  V30 BEGIN BOND
M  V30 1 1 1 2
M  V30 2 1 2 3
M  V30 3 1 3 4
M  V30 4 2 4 5
M  V30 5 2 4 6
M  V30 6 1 4 7
M  V30 7 1 7 8
M  V30 8 2 8 9
M  V30 9 1 9 10
M  V30 10 2 10 11
M  V30 11 1 11 12
M  V30 12 1 11 13
M  V30 13 1 13 14
M  V30 14 1 14 15
M  V30 15 2 15 16
M  V30 16 1 16 17
M  V30 17 2 17 18
M  V30 18 1 18 19
M  V30 19 2 19 20
M  V30 20 1 20 21
M  V30 21 2 21 22
M  V30 22 1 16 23
M  V30 23 2 23 24
M  V30 24 1 24 25
M  V30 25 1 25 26
M  V30 26 1 26 27
M  V30 27 1 26 28
M  V30 28 1 28 29
M  V30 29 1 29 30
M  V30 30 1 30 31
M  V30 31 1 31 32
M  V30 32 1 32 33
M  V30 33 1 31 34
M  V30 34 1 34 35
M  V30 35 2 25 36
M  V30 36 1 36 37
M  V30 37 2 37 38
M  V30 38 2 13 39
M  V30 39 1 39 40
M  V30 40 1 39 8
M  V30 41 1 38 14
M  V30 42 1 22 17
M  V30 43 1 38 23
M  V30 44 1 35 28
M  V30 45 1 1 41
M  V30 46 1 1 42
M  V30 47 1 1 43
M  V30 48 1 2 44
M  V30 49 1 2 45
M  V30 50 1 3 46
M  V30 51 1 3 47
M  V30 52 1 7 48
M  V30 53 1 9 49
M  V30 54 1 10 50
M  V30 55 1 15 51
M  V30 56 1 18 52
M  V30 57 1 20 53
M  V30 58 1 22 54
M  V30 59 1 27 55
M  V30 60 1 27 56
M  V30 61 1 27 57
M  V30 62 1 28 58
M  V30 63 1 29 59
M  V30 64 1 29 60
M  V30 65 1 30 61
M  V30 66 1 30 62
M  V30 67 1 32 63
M  V30 68 1 32 64
M  V30 69 1 33 65
M  V30 70 1 33 66
M  V30 71 1 33 67
M  V30 72 1 34 68
M  V30 73 1 34 69
M  V30 74 1 35 70
M  V30 75 1 35 71
M  V30 76 1 36 72
M  V30 77 1 37 73
M  V30 END BOND
M  V30 END CTAB
M  END
>  <Dataset>  (404) 
ChEMBL_Kinases

>  <Ligand_Instance>  (404) 
nan

>  <PDB_ID>  (404) 
nan

>  <Standardized_SMILES>  (404) 
CCCS(=O)(=O)Nc1ccc(F)c(-n2cc(-c3cncnc3)c3nc(N(C)C4CCN(CC)CC4)ccc32)c1F

>  <Name>  (404) 
XP-102

>  <Pocket>  (404) 
nan

>  <ATP_Site>  (404) 
nan

>  <Peripheral>  (404) 
nan

>  <Num_H_Atoms_ProtBoundConf>  (404) 
nan

>  <Num_Resolved_Atoms>  (404) 
nan

>  <Num_Not_Resolved_Atoms>  (404) 
nan

$$$$
CHEMBL4780638
     RDKit          3D

  0  0  0  0  0  0  0  0  0  0999 V3000
M  V30 BEGIN CTAB
M  V30 COUNTS 60 64 0 0 0
M  V30 BEGIN ATOM
M  V30 1 C 0.065320 -4.503344 1.020009 0
M  V30 2 C 0.965860 -5.645524 1.426873 0
M  V30 3 O 1.700767 -5.221958 2.578848 0
M  V30 4 C 2.537113 -4.114374 2.439469 0
M  V30 5 N 2.800829 -3.341647 1.390280 0
M  V30 6 C 3.631204 -2.290139 1.362133 0
M  V30 7 N 3.513883 -1.846302 0.004752 0
M  V30 8 C 2.551509 -0.798078 -0.250928 0
M  V30 9 C 1.913581 -0.161922 0.788079 0
M  V30 10 C 0.990074 0.854868 0.668247 0
M  V30 11 C 0.675667 1.274900 -0.603046 0
M  V30 12 C -0.289062 2.322856 -0.960435 0
M  V30 13 O -0.120401 3.451918 -1.490015 0
M  V30 14 N -1.712766 2.224904 -0.752437 0
M  V30 15 C -2.508581 3.353187 -1.186736 0
M  V30 16 C -3.908178 3.246606 -0.617143 0
M  V30 17 N -4.338443 1.879639 -0.839474 0
M  V30 18 C -5.722067 1.660655 -0.434858 0
M  V30 19 C -5.786209 0.141656 -0.418351 0
M  V30 20 C -4.340886 -0.323354 -0.308974 0
M  V30 21 C -3.677505 0.977230 0.095110 0 CFG=1
M  V30 22 C -2.212157 1.014412 -0.136451 0
M  V30 23 C 1.285296 0.677987 -1.720452 0
M  V30 24 C 2.214504 -0.349592 -1.536083 0
M  V30 25 O 2.904774 -1.042095 -2.511236 0
M  V30 26 C 2.821710 -0.867180 -3.893790 0
M  V30 27 N 4.268631 -1.967529 2.485245 0
M  V30 28 C 4.051510 -2.714870 3.609170 0
M  V30 29 N 4.604725 -2.529573 4.812115 0
M  V30 30 C 4.112983 -3.492086 5.637879 0
M  V30 31 C 3.223244 -4.307434 4.930080 0
M  V30 32 C 3.185430 -3.813008 3.642455 0
M  V30 33 H 0.642100 -3.706641 0.542950 0
M  V30 34 H -0.456030 -4.095605 1.913243 0
M  V30 35 H -0.703252 -4.899871 0.301357 0
M  V30 36 H 1.749983 -5.826679 0.639516 0
M  V30 37 H 0.336024 -6.506762 1.642589 0
M  V30 38 H 4.052395 -2.205249 -0.803964 0
M  V30 39 H 2.099433 -0.430036 1.834848 0
M  V30 40 H 0.509755 1.341091 1.499163 0
M  V30 41 H -2.053560 4.336115 -1.021909 0
M  V30 42 H -2.647406 3.180377 -2.299060 0
M  V30 43 H -4.611176 3.931815 -1.091510 0
M  V30 44 H -3.869935 3.510255 0.470236 0
M  V30 45 H -6.376356 2.132457 -1.171083 0
M  V30 46 H -5.864952 2.036430 0.618718 0
M  V30 47 H -6.370508 -0.215190 0.457119 0
M  V30 48 H -6.240220 -0.138860 -1.393887 0
M  V30 49 H -4.202015 -1.144166 0.420846 0
M  V30 50 H -3.945661 -0.606124 -1.327088 0
M  V30 51 H -3.976165 1.226091 1.144074 0
M  V30 52 H -1.792913 0.133642 -0.664553 0
M  V30 53 H -1.734216 1.006015 0.890840 0
M  V30 54 H 1.098123 0.938161 -2.764927 0
M  V30 55 H 1.787456 -0.884074 -4.303387 0
M  V30 56 H 3.392816 0.051013 -4.172636 0
M  V30 57 H 3.405175 -1.710721 -4.353506 0
M  V30 58 H 5.291877 -1.789130 5.084132 0
M  V30 59 H 4.374241 -3.606254 6.685332 0
M  V30 60 H 2.659306 -5.153874 5.257082 0
M  V30 END ATOM
M  V30 BEGIN BOND
M  V30 1 1 1 2
M  V30 2 1 2 3
M  V30 3 1 3 4
M  V30 4 2 4 5
M  V30 5 1 5 6
M  V30 6 1 6 7
M  V30 7 1 7 8
M  V30 8 2 8 9
M  V30 9 1 9 10
M  V30 10 2 10 11
M  V30 11 1 11 12
M  V30 12 2 12 13
M  V30 13 1 12 14
M  V30 14 1 14 15
M  V30 15 1 15 16
M  V30 16 1 16 17
M  V30 17 1 17 18
M  V30 18 1 18 19
M  V30 19 1 19 20
M  V30 20 1 20 21
M  V30 21 1 21 22
M  V30 22 1 11 23
M  V30 23 2 23 24
M  V30 24 1 24 25
M  V30 25 1 25 26
M  V30 26 2 6 27
M  V30 27 1 27 28
M  V30 28 1 28 29
M  V30 29 1 29 30
M  V30 30 2 30 31
M  V30 31 1 31 32
M  V30 32 1 32 4
M  V30 33 1 24 8
M  V30 34 2 32 28
M  V30 35 1 22 14
M  V30 36 1 21 17
M  V30 37 1 1 33
M  V30 38 1 1 34
M  V30 39 1 1 35
M  V30 40 1 2 36
M  V30 41 1 2 37
M  V30 42 1 7 38
M  V30 43 1 9 39
M  V30 44 1 10 40
M  V30 45 1 15 41
M  V30 46 1 15 42
M  V30 47 1 16 43
M  V30 48 1 16 44
M  V30 49 1 18 45
M  V30 50 1 18 46
M  V30 51 1 19 47
M  V30 52 1 19 48
M  V30 53 1 20 49
M  V30 54 1 20 50
M  V30 55 1 21 51 CFG=1
M  V30 56 1 22 52
M  V30 57 1 22 53
M  V30 58 1 23 54
M  V30 59 1 26 55
M  V30 60 1 26 56
M  V30 61 1 26 57
M  V30 62 1 29 58
M  V30 63 1 30 59
M  V30 64 1 31 60
M  V30 END BOND
M  V30 END CTAB
M  END
>  <Dataset>  (405) 
ChEMBL_Kinases

>  <Ligand_Instance>  (405) 
nan

>  <PDB_ID>  (405) 
nan

>  <Standardized_SMILES>  (405) 
CCOc1nc(Nc2ccc(C(=O)N3CCN4CCC[C@H]4C3)cc2OC)nc2[nH]ccc12

>  <Name>  (405) 
nan

>  <Pocket>  (405) 
nan

>  <ATP_Site>  (405) 
nan

>  <Peripheral>  (405) 
nan

>  <Num_H_Atoms_ProtBoundConf>  (405) 
nan

>  <Num_Resolved_Atoms>  (405) 
nan

>  <Num_Not_Resolved_Atoms>  (405) 
nan

$$$$
CHEMBL4780690
     RDKit          3D

  0  0  0  0  0  0  0  0  0  0999 V3000
M  V30 BEGIN CTAB
M  V30 COUNTS 43 45 0 0 0
M  V30 BEGIN ATOM
M  V30 1 C 3.213461 -6.967931 0.263671 0
M  V30 2 C 3.215176 -5.890807 -0.761500 0
M  V30 3 O 4.308781 -5.425581 -1.171928 0
M  V30 4 N 1.944592 -5.432429 -1.235524 0
M  V30 5 S 1.648011 -4.204013 -2.413352 0
M  V30 6 O 2.807268 -4.209976 -3.394590 0
M  V30 7 O 0.427220 -4.545845 -3.219796 0
M  V30 8 C 1.502998 -2.628865 -1.665431 0
M  V30 9 C 2.563939 -1.767775 -1.455096 0
M  V30 10 C 2.395306 -0.527577 -0.856332 0
M  V30 11 C 1.146357 -0.107140 -0.445362 0
M  V30 12 C 0.854509 1.171909 0.192839 0
M  V30 13 C 1.528522 2.352145 -0.046865 0
M  V30 14 N 1.220134 3.507476 0.567889 0
M  V30 15 C 0.222762 3.590477 1.467612 0
M  V30 16 N -0.224937 4.721498 2.197152 0
M  V30 17 C -0.505608 2.433092 1.761798 0
M  V30 18 C -1.622273 2.401279 2.732520 0
M  V30 19 C -1.609872 1.326437 3.616925 0
M  V30 20 C -2.599482 1.164657 4.588671 0
M  V30 21 C -3.624805 2.108232 4.670395 0
M  V30 22 Cl -4.879738 1.926494 5.883254 0
M  V30 23 C -3.612002 3.164910 3.779702 0
M  V30 24 C -2.638058 3.321697 2.825254 0
M  V30 25 C -0.181607 1.252318 1.125823 0
M  V30 26 C 0.062719 -0.953097 -0.644646 0
M  V30 27 C 0.245371 -2.201456 -1.249672 0
M  V30 28 H 3.837904 -6.611862 1.119900 0
M  V30 29 H 2.202352 -7.157320 0.661392 0
M  V30 30 H 3.586894 -7.936898 -0.103745 0
M  V30 31 H 1.062450 -5.875427 -0.840683 0
M  V30 32 H 3.542030 -2.097241 -1.776877 0
M  V30 33 H 3.220075 0.141207 -0.693535 0
M  V30 34 H 2.330712 2.326833 -0.758433 0
M  V30 35 H 0.558692 4.732430 2.871716 0
M  V30 36 H 0.510301 4.853559 2.949807 0
M  V30 37 H -0.841309 0.582792 3.586046 0
M  V30 38 H -2.545564 0.302095 5.260515 0
M  V30 39 H -4.413510 3.910922 3.836537 0
M  V30 40 H -2.596826 4.138571 2.109962 0
M  V30 41 H -0.725289 0.352070 1.334449 0
M  V30 42 H -0.965887 -0.744826 -0.369531 0
M  V30 43 H -0.596803 -2.876415 -1.412144 0
M  V30 END ATOM
M  V30 BEGIN BOND
M  V30 1 1 1 2
M  V30 2 2 2 3
M  V30 3 1 2 4
M  V30 4 1 4 5
M  V30 5 2 5 6
M  V30 6 2 5 7
M  V30 7 1 5 8
M  V30 8 2 8 9
M  V30 9 1 9 10
M  V30 10 2 10 11
M  V30 11 1 11 12
M  V30 12 2 12 13
M  V30 13 1 13 14
M  V30 14 2 14 15
M  V30 15 1 15 16
M  V30 16 1 15 17
M  V30 17 1 17 18
M  V30 18 2 18 19
M  V30 19 1 19 20
M  V30 20 2 20 21
M  V30 21 1 21 22
M  V30 22 1 21 23
M  V30 23 2 23 24
M  V30 24 2 17 25
M  V30 25 1 11 26
M  V30 26 2 26 27
M  V30 27 1 27 8
M  V30 28 1 25 12
M  V30 29 1 24 18
M  V30 30 1 1 28
M  V30 31 1 1 29
M  V30 32 1 1 30
M  V30 33 1 4 31
M  V30 34 1 9 32
M  V30 35 1 10 33
M  V30 36 1 13 34
M  V30 37 1 16 35
M  V30 38 1 16 36
M  V30 39 1 19 37
M  V30 40 1 20 38
M  V30 41 1 23 39
M  V30 42 1 24 40
M  V30 43 1 25 41
M  V30 44 1 26 42
M  V30 45 1 27 43
M  V30 END BOND
M  V30 END CTAB
M  END
>  <Dataset>  (406) 
ChEMBL_Kinases

>  <Ligand_Instance>  (406) 
nan

>  <PDB_ID>  (406) 
nan

>  <Standardized_SMILES>  (406) 
CC(=O)NS(=O)(=O)c1ccc(-c2cnc(N)c(-c3ccc(Cl)cc3)c2)cc1

>  <Name>  (406) 
nan

>  <Pocket>  (406) 
nan

>  <ATP_Site>  (406) 
nan

>  <Peripheral>  (406) 
nan

>  <Num_H_Atoms_ProtBoundConf>  (406) 
nan

>  <Num_Resolved_Atoms>  (406) 
nan

>  <Num_Not_Resolved_Atoms>  (406) 
nan

$$$$
CHEMBL4213003
     RDKit          3D

  0  0  0  0  0  0  0  0  0  0999 V3000
M  V30 BEGIN CTAB
M  V30 COUNTS 57 61 0 0 0
M  V30 BEGIN ATOM
M  V30 1 C -3.424971 -3.096647 4.853715 0
M  V30 2 N -2.086275 -3.629352 4.585929 0
M  V30 3 C -1.402869 -3.217723 3.413304 0
M  V30 4 N -0.873071 -1.992834 3.561171 0
M  V30 5 C -0.170243 -1.386583 2.590255 0
M  V30 6 C 0.057201 -1.997018 1.349598 0
M  V30 7 C 0.690977 -1.757983 0.130592 0
M  V30 8 C 1.308970 -0.436228 0.039169 0
M  V30 9 C 2.202617 0.056275 0.986799 0
M  V30 10 C 2.669715 1.357823 0.786995 0
M  V30 11 C 2.235256 2.091916 -0.318435 0
M  V30 12 N 2.714263 3.413935 -0.498812 0
M  V30 13 C 3.947138 4.090873 -0.154652 0
M  V30 14 C 3.695027 5.216530 0.823822 0
M  V30 15 N 2.498575 5.950195 0.615909 0
M  V30 16 C 1.377665 5.228270 0.122215 0
M  V30 17 C 1.828686 4.424427 -1.108921 0
M  V30 18 N 1.372585 1.585002 -1.213661 0
M  V30 19 C 0.885066 0.315562 -1.067853 0
M  V30 20 N 0.504137 -2.845933 -0.654942 0
M  V30 21 N -0.213797 -3.754060 0.004496 0
M  V30 22 C -0.656105 -5.031353 -0.450588 0
M  V30 23 C -1.900620 -5.053430 -1.264818 0
M  V30 24 C -3.129535 -4.505045 -0.649940 0
M  V30 25 C -4.061105 -4.320723 -1.850605 0
M  V30 26 C -3.108136 -3.711262 -2.873815 0
M  V30 27 C -1.763440 -4.328162 -2.574390 0
M  V30 28 C -0.515982 -3.271951 1.251346 0
M  V30 29 N -1.218853 -3.853961 2.250750 0
M  V30 30 H -3.665154 -3.111085 5.931917 0
M  V30 31 H -3.390254 -2.022577 4.505075 0
M  V30 32 H -4.136123 -3.609268 4.202366 0
M  V30 33 H -1.490266 -4.318423 5.139206 0
M  V30 34 H 0.273161 -0.386996 2.695784 0
M  V30 35 H 2.481487 -0.593118 1.811951 0
M  V30 36 H 3.361821 1.752870 1.510637 0
M  V30 37 H 4.691279 3.390313 0.271832 0
M  V30 38 H 4.348540 4.545659 -1.084585 0
M  V30 39 H 4.554291 5.942572 0.687642 0
M  V30 40 H 3.819934 4.872047 1.884888 0
M  V30 41 H 2.240038 6.423741 1.527332 0
M  V30 42 H 0.542817 5.898333 -0.119777 0
M  V30 43 H 1.097050 4.460811 0.883296 0
M  V30 44 H 0.966892 3.917964 -1.548382 0
M  V30 45 H 2.357996 5.100171 -1.771442 0
M  V30 46 H 0.189968 -0.077641 -1.796390 0
M  V30 47 H 0.145594 -5.507412 -1.079645 0
M  V30 48 H -0.809952 -5.722715 0.408317 0
M  V30 49 H -2.108236 -6.142772 -1.488471 0
M  V30 50 H -2.991952 -3.489840 -0.223052 0
M  V30 51 H -3.631183 -5.175213 0.064400 0
M  V30 52 H -4.307701 -5.361500 -2.202890 0
M  V30 53 H -4.922672 -3.693462 -1.644945 0
M  V30 54 H -3.416885 -3.960202 -3.907772 0
M  V30 55 H -3.134751 -2.608366 -2.744424 0
M  V30 56 H -1.459405 -5.053575 -3.364245 0
M  V30 57 H -1.007197 -3.524629 -2.542160 0
M  V30 END ATOM
M  V30 BEGIN BOND
M  V30 1 1 1 2
M  V30 2 1 2 3
M  V30 3 2 3 4
M  V30 4 1 4 5
M  V30 5 2 5 6
M  V30 6 1 6 7
M  V30 7 1 7 8
M  V30 8 2 8 9
M  V30 9 1 9 10
M  V30 10 2 10 11
M  V30 11 1 11 12
M  V30 12 1 12 13
M  V30 13 1 13 14
M  V30 14 1 14 15
M  V30 15 1 15 16
M  V30 16 1 16 17
M  V30 17 1 11 18
M  V30 18 2 18 19
M  V30 19 2 7 20
M  V30 20 1 20 21
M  V30 21 1 21 22
M  V30 22 1 22 23
M  V30 23 1 23 24
M  V30 24 1 24 25
M  V30 25 1 25 26
M  V30 26 1 26 27
M  V30 27 1 21 28
M  V30 28 2 28 29
M  V30 29 1 29 3
M  V30 30 1 28 6
M  V30 31 1 19 8
M  V30 32 1 27 23
M  V30 33 1 17 12
M  V30 34 1 1 30
M  V30 35 1 1 31
M  V30 36 1 1 32
M  V30 37 1 2 33
M  V30 38 1 5 34
M  V30 39 1 9 35
M  V30 40 1 10 36
M  V30 41 1 13 37
M  V30 42 1 13 38
M  V30 43 1 14 39
M  V30 44 1 14 40
M  V30 45 1 15 41
M  V30 46 1 16 42
M  V30 47 1 16 43
M  V30 48 1 17 44
M  V30 49 1 17 45
M  V30 50 1 19 46
M  V30 51 1 22 47
M  V30 52 1 22 48
M  V30 53 1 23 49
M  V30 54 1 24 50
M  V30 55 1 24 51
M  V30 56 1 25 52
M  V30 57 1 25 53
M  V30 58 1 26 54
M  V30 59 1 26 55
M  V30 60 1 27 56
M  V30 61 1 27 57
M  V30 END BOND
M  V30 END CTAB
M  END
>  <Dataset>  (407) 
ChEMBL_Kinases

>  <Ligand_Instance>  (407) 
nan

>  <PDB_ID>  (407) 
nan

>  <Standardized_SMILES>  (407) 
CNc1ncc2c(-c3ccc(N4CCNCC4)nc3)nn(CC3CCCC3)c2n1

>  <Name>  (407) 
nan

>  <Pocket>  (407) 
nan

>  <ATP_Site>  (407) 
nan

>  <Peripheral>  (407) 
nan

>  <Num_H_Atoms_ProtBoundConf>  (407) 
nan

>  <Num_Resolved_Atoms>  (407) 
nan

>  <Num_Not_Resolved_Atoms>  (407) 
nan

$$$$
CHEMBL4213211
     RDKit          3D

  0  0  0  0  0  0  0  0  0  0999 V3000
M  V30 BEGIN CTAB
M  V30 COUNTS 68 72 0 0 0
M  V30 BEGIN ATOM
M  V30 1 C 5.670461 0.685399 -0.604392 0
M  V30 2 C 4.951977 -0.013325 0.500774 0 CFG=1
M  V30 3 C 4.617038 0.871552 1.647683 0
M  V30 4 O 5.504512 1.576054 2.181418 0
M  V30 5 N 3.323979 0.962328 2.179613 0
M  V30 6 C 2.877033 1.786061 3.291090 0 CFG=2
M  V30 7 C 2.422317 0.993829 4.462026 0
M  V30 8 O 2.007217 1.802675 5.517470 0
M  V30 9 C 1.946968 2.807370 2.800333 0
M  V30 10 C 2.475367 3.404007 1.646907 0
M  V30 11 C 1.772024 4.415762 0.981229 0
M  V30 12 C 0.544029 4.853024 1.438965 0
M  V30 13 C 0.049379 4.248844 2.574229 0
M  V30 14 C 0.720898 3.258249 3.239698 0
M  V30 15 N 3.778941 -0.714598 -0.000088 0
M  V30 16 C 3.473578 -2.113326 0.007123 0
M  V30 17 C 2.149037 -2.213004 -0.625568 0
M  V30 18 C 1.373335 -3.328625 -0.873810 0
M  V30 19 C 0.123227 -3.226710 -1.495785 0
M  V30 20 C -0.355121 -1.983353 -1.874453 0
M  V30 21 C -1.652786 -1.806997 -2.527064 0
M  V30 22 N -2.648574 -2.506909 -1.954290 0
M  V30 23 C -3.925222 -2.506758 -2.373100 0
M  V30 24 N -4.963806 -3.247065 -1.762268 0
M  V30 25 C -4.780602 -4.094591 -0.609919 0
M  V30 26 C -6.072287 -4.770611 -0.194985 0
M  V30 27 C -6.822431 -4.036554 0.876450 0
M  V30 28 O -5.951947 -3.966405 1.987605 0
M  V30 29 C -5.020053 -3.002535 1.655938 0
M  V30 30 C -4.098592 -3.419498 0.548602 0
M  V30 31 N -4.168485 -1.734213 -3.445567 0
M  V30 32 C -3.256005 -1.000953 -4.088573 0
M  V30 33 C -1.956681 -1.029804 -3.625419 0
M  V30 34 Cl -0.603436 -0.152778 -4.309785 0
M  V30 35 C 0.415964 -0.861503 -1.629145 0
M  V30 36 C 1.646185 -0.987013 -1.014069 0
M  V30 37 C 2.680474 -0.016716 -0.619711 0
M  V30 38 O 2.580063 1.243241 -0.815541 0
M  V30 39 H 6.448323 0.067971 -1.060445 0
M  V30 40 H 6.110137 1.646221 -0.235513 0
M  V30 41 H 4.975709 0.982747 -1.437759 0
M  V30 42 H 5.632546 -0.809155 0.917789 0
M  V30 43 H 2.528908 0.411630 1.798814 0
M  V30 44 H 3.801724 2.340504 3.629501 0
M  V30 45 H 3.337703 0.470550 4.865067 0
M  V30 46 H 1.644001 0.232639 4.182853 0
M  V30 47 H 1.381563 1.304535 6.130339 0
M  V30 48 H 3.423773 3.189544 1.143124 0
M  V30 49 H 2.129287 4.911022 0.089414 0
M  V30 50 H -0.039963 5.630038 0.963347 0
M  V30 51 H -0.895785 4.536209 2.986400 0
M  V30 52 H 0.409976 2.734595 4.125403 0
M  V30 53 H 4.187081 -2.715203 -0.616394 0
M  V30 54 H 3.522037 -2.582482 1.017454 0
M  V30 55 H 1.739380 -4.318349 -0.579443 0
M  V30 56 H -0.466678 -4.114550 -1.679839 0
M  V30 57 H -5.926130 -3.185701 -2.158962 0
M  V30 58 H -4.112678 -4.922302 -0.940439 0
M  V30 59 H -6.721202 -4.939178 -1.056445 0
M  V30 60 H -5.843057 -5.786627 0.239856 0
M  V30 61 H -7.699150 -4.643908 1.129218 0
M  V30 62 H -7.099285 -3.006975 0.610293 0
M  V30 63 H -5.562725 -2.073096 1.371482 0
M  V30 64 H -4.379323 -2.842663 2.566353 0
M  V30 65 H -3.518435 -2.527677 0.251402 0
M  V30 66 H -3.342276 -4.114334 1.019024 0
M  V30 67 H -3.437905 -0.382573 -4.942802 0
M  V30 68 H 0.127247 0.151149 -1.887944 0
M  V30 END ATOM
M  V30 BEGIN BOND
M  V30 1 1 1 2
M  V30 2 1 2 3
M  V30 3 2 3 4
M  V30 4 1 3 5
M  V30 5 1 5 6
M  V30 6 1 6 7
M  V30 7 1 7 8
M  V30 8 1 6 9
M  V30 9 2 9 10
M  V30 10 1 10 11
M  V30 11 2 11 12
M  V30 12 1 12 13
M  V30 13 2 13 14
M  V30 14 1 2 15
M  V30 15 1 15 16
M  V30 16 1 16 17
M  V30 17 2 17 18
M  V30 18 1 18 19
M  V30 19 2 19 20
M  V30 20 1 20 21
M  V30 21 2 21 22
M  V30 22 1 22 23
M  V30 23 1 23 24
M  V30 24 1 24 25
M  V30 25 1 25 26
M  V30 26 1 26 27
M  V30 27 1 27 28
M  V30 28 1 28 29
M  V30 29 1 29 30
M  V30 30 2 23 31
M  V30 31 1 31 32
M  V30 32 2 32 33
M  V30 33 1 33 34
M  V30 34 1 20 35
M  V30 35 2 35 36
M  V30 36 1 36 37
M  V30 37 2 37 38
M  V30 38 1 14 9
M  V30 39 1 37 15
M  V30 40 1 36 17
M  V30 41 1 33 21
M  V30 42 1 30 25
M  V30 43 1 1 39
M  V30 44 1 1 40
M  V30 45 1 1 41
M  V30 46 1 2 42 CFG=1
M  V30 47 1 5 43
M  V30 48 1 6 44 CFG=1
M  V30 49 1 7 45
M  V30 50 1 7 46
M  V30 51 1 8 47
M  V30 52 1 10 48
M  V30 53 1 11 49
M  V30 54 1 12 50
M  V30 55 1 13 51
M  V30 56 1 14 52
M  V30 57 1 16 53
M  V30 58 1 16 54
M  V30 59 1 18 55
M  V30 60 1 19 56
M  V30 61 1 24 57
M  V30 62 1 25 58
M  V30 63 1 26 59
M  V30 64 1 26 60
M  V30 65 1 27 61
M  V30 66 1 27 62
M  V30 67 1 29 63
M  V30 68 1 29 64
M  V30 69 1 30 65
M  V30 70 1 30 66
M  V30 71 1 32 67
M  V30 72 1 35 68
M  V30 END BOND
M  V30 END CTAB
M  END
>  <Dataset>  (408) 
ChEMBL_Kinases

>  <Ligand_Instance>  (408) 
nan

>  <PDB_ID>  (408) 
nan

>  <Standardized_SMILES>  (408) 
C[C@@H](C(=O)N[C@H](CO)c1ccccc1)N1Cc2ccc(-c3nc(NC4CCOCC4)ncc3Cl)cc2C1=O

>  <Name>  (408) 
nan

>  <Pocket>  (408) 
nan

>  <ATP_Site>  (408) 
nan

>  <Peripheral>  (408) 
nan

>  <Num_H_Atoms_ProtBoundConf>  (408) 
nan

>  <Num_Resolved_Atoms>  (408) 
nan

>  <Num_Not_Resolved_Atoms>  (408) 
nan

$$$$
CHEMBL4779654
     RDKit          3D

  0  0  0  0  0  0  0  0  0  0999 V3000
M  V30 BEGIN CTAB
M  V30 COUNTS 69 73 0 0 0
M  V30 BEGIN ATOM
M  V30 1 C 3.693310 0.419599 7.552352 0
M  V30 2 O 3.922377 0.721699 6.183401 0
M  V30 3 C 4.852881 0.057021 5.419429 0
M  V30 4 O 5.453661 -0.816602 6.054885 0
M  V30 5 C 5.174617 0.260352 4.055628 0
M  V30 6 S 6.403771 -0.680943 3.210502 0
M  V30 7 C 6.163651 0.203536 1.597836 0
M  V30 8 C 5.150943 1.155688 1.845409 0
M  V30 9 C 4.641974 1.182966 3.115696 0
M  V30 10 N 3.618462 2.109121 3.461022 0
M  V30 11 C 3.093717 3.021896 2.534901 0
M  V30 12 N 2.049315 2.727765 1.762925 0
M  V30 13 C 1.495114 3.527476 0.863833 0
M  V30 14 N 0.384970 3.231714 0.037045 0
M  V30 15 C -0.387005 2.054304 -0.021739 0
M  V30 16 C -0.174704 0.941802 0.777984 0
M  V30 17 C -0.917940 -0.218315 0.740026 0
M  V30 18 C -1.961906 -0.307344 -0.154954 0
M  V30 19 N -2.803563 -1.471714 -0.279695 0
M  V30 20 C -3.888263 -1.679071 -1.231604 0
M  V30 21 C -3.394184 -2.827371 -2.126091 0
M  V30 22 C -3.433732 -4.040516 -1.243593 0
M  V30 23 N -3.435807 -5.295776 -1.901545 0
M  V30 24 C -4.559232 -5.456566 -2.761090 0
M  V30 25 C -4.049757 -5.860255 -4.129101 0
M  V30 26 C -2.564136 -6.053754 -3.984286 0
M  V30 27 C -2.241515 -5.699864 -2.553265 0
M  V30 28 C -2.307109 -3.886181 -0.241728 0
M  V30 29 C -2.662484 -2.647623 0.577215 0
M  V30 30 C -2.206737 0.758368 -0.958670 0
M  V30 31 C -1.444441 1.903354 -0.895106 0
M  V30 32 O -1.725406 2.992044 -1.743748 0
M  V30 33 C -2.800625 2.896315 -2.663980 0
M  V30 34 N 2.072016 4.731675 0.756276 0
M  V30 35 C 3.118115 5.107285 1.488194 0
M  V30 36 C 3.660411 4.256663 2.403207 0
M  V30 37 C 4.786069 4.629633 3.207616 0
M  V30 38 N 5.711630 4.945637 3.848751 0
M  V30 39 H 3.748192 -0.688057 7.673543 0
M  V30 40 H 2.683265 0.776859 7.839452 0
M  V30 41 H 4.462468 0.884361 8.211021 0
M  V30 42 H 6.703793 0.019896 0.647236 0
M  V30 43 H 4.876670 1.770774 1.006509 0
M  V30 44 H 3.232681 2.126213 4.425889 0
M  V30 45 H 0.075918 3.990436 -0.639788 0
M  V30 46 H 0.613718 0.934379 1.496321 0
M  V30 47 H -0.699924 -1.033998 1.381128 0
M  V30 48 H -4.174427 -0.810538 -1.809120 0
M  V30 49 H -4.771960 -2.050297 -0.666508 0
M  V30 50 H -2.337464 -2.532173 -2.385388 0
M  V30 51 H -4.006563 -2.874103 -3.026766 0
M  V30 52 H -4.381428 -3.981366 -0.654468 0
M  V30 53 H -5.207737 -6.253578 -2.341399 0
M  V30 54 H -5.180465 -4.525983 -2.814357 0
M  V30 55 H -4.195129 -5.045961 -4.867588 0
M  V30 56 H -4.563715 -6.758743 -4.490492 0
M  V30 57 H -1.967821 -5.389351 -4.637844 0
M  V30 58 H -2.335493 -7.113068 -4.243095 0
M  V30 59 H -1.384506 -5.032879 -2.437927 0
M  V30 60 H -1.921767 -6.666675 -2.065616 0
M  V30 61 H -2.319878 -4.735143 0.469396 0
M  V30 62 H -1.321821 -3.727255 -0.699520 0
M  V30 63 H -3.695387 -2.869965 0.977613 0
M  V30 64 H -2.033856 -2.518222 1.444456 0
M  V30 65 H -2.996545 0.790974 -1.690079 0
M  V30 66 H -2.870788 3.778574 -3.301770 0
M  V30 67 H -2.678019 1.993854 -3.326419 0
M  V30 68 H -3.756461 2.742597 -2.114253 0
M  V30 69 H 3.524827 6.098645 1.340222 0
M  V30 END ATOM
M  V30 BEGIN BOND
M  V30 1 1 1 2
M  V30 2 1 2 3
M  V30 3 2 3 4
M  V30 4 1 3 5
M  V30 5 1 5 6
M  V30 6 1 6 7
M  V30 7 2 7 8
M  V30 8 1 8 9
M  V30 9 1 9 10
M  V30 10 1 10 11
M  V30 11 2 11 12
M  V30 12 1 12 13
M  V30 13 1 13 14
M  V30 14 1 14 15
M  V30 15 2 15 16
M  V30 16 1 16 17
M  V30 17 2 17 18
M  V30 18 1 18 19
M  V30 19 1 19 20
M  V30 20 1 20 21
M  V30 21 1 21 22
M  V30 22 1 22 23
M  V30 23 1 23 24
M  V30 24 1 24 25
M  V30 25 1 25 26
M  V30 26 1 26 27
M  V30 27 1 22 28
M  V30 28 1 28 29
M  V30 29 1 18 30
M  V30 30 2 30 31
M  V30 31 1 31 32
M  V30 32 1 32 33
M  V30 33 2 13 34
M  V30 34 1 34 35
M  V30 35 2 35 36
M  V30 36 1 36 37
M  V30 37 3 37 38
M  V30 38 2 9 5
M  V30 39 1 36 11
M  V30 40 1 31 15
M  V30 41 1 29 19
M  V30 42 1 27 23
M  V30 43 1 1 39
M  V30 44 1 1 40
M  V30 45 1 1 41
M  V30 46 1 7 42
M  V30 47 1 8 43
M  V30 48 1 10 44
M  V30 49 1 14 45
M  V30 50 1 16 46
M  V30 51 1 17 47
M  V30 52 1 20 48
M  V30 53 1 20 49
M  V30 54 1 21 50
M  V30 55 1 21 51
M  V30 56 1 22 52
M  V30 57 1 24 53
M  V30 58 1 24 54
M  V30 59 1 25 55
M  V30 60 1 25 56
M  V30 61 1 26 57
M  V30 62 1 26 58
M  V30 63 1 27 59
M  V30 64 1 27 60
M  V30 65 1 28 61
M  V30 66 1 28 62
M  V30 67 1 29 63
M  V30 68 1 29 64
M  V30 69 1 30 65
M  V30 70 1 33 66
M  V30 71 1 33 67
M  V30 72 1 33 68
M  V30 73 1 35 69
M  V30 END BOND
M  V30 END CTAB
M  END
>  <Dataset>  (409) 
ChEMBL_Kinases

>  <Ligand_Instance>  (409) 
nan

>  <PDB_ID>  (409) 
nan

>  <Standardized_SMILES>  (409) 
COC(=O)c1sccc1Nc1nc(Nc2ccc(N3CCC(N4CCCC4)CC3)cc2OC)ncc1C#N

>  <Name>  (409) 
nan

>  <Pocket>  (409) 
nan

>  <ATP_Site>  (409) 
nan

>  <Peripheral>  (409) 
nan

>  <Num_H_Atoms_ProtBoundConf>  (409) 
nan

>  <Num_Resolved_Atoms>  (409) 
nan

>  <Num_Not_Resolved_Atoms>  (409) 
nan

$$$$
CHEMBL4213199
     RDKit          3D

  0  0  0  0  0  0  0  0  0  0999 V3000
M  V30 BEGIN CTAB
M  V30 COUNTS 51 55 0 0 0
M  V30 BEGIN ATOM
M  V30 1 C 1.210042 -0.526390 6.212437 0
M  V30 2 O 0.663295 -1.549246 5.403470 0
M  V30 3 C 1.114027 -1.747253 4.107728 0
M  V30 4 C 0.506896 -2.773867 3.415283 0
M  V30 5 C 0.867358 -3.069818 2.119705 0
M  V30 6 C 1.841252 -2.374847 1.436060 0
M  V30 7 C 2.327519 -2.584489 0.051432 0
M  V30 8 N 1.538877 -1.780286 -0.854136 0
M  V30 9 C 1.874982 -0.431114 -1.139290 0
M  V30 10 O 3.048383 -0.022846 -0.947027 0
M  V30 11 C 0.929016 0.634913 -1.681055 0
M  V30 12 C 0.248344 1.183082 -0.505719 0
M  V30 13 C 1.023941 1.339998 0.655040 0
M  V30 14 C 0.529058 1.802169 1.854803 0
M  V30 15 C -0.821601 2.150201 1.975253 0
M  V30 16 C -1.610693 2.013775 0.868200 0
M  V30 17 C -2.942152 2.355558 0.914931 0
M  V30 18 C -3.786047 2.258657 -0.173654 0
M  V30 19 C -3.198709 1.783349 -1.353752 0
M  V30 20 C -1.883209 1.450757 -1.379786 0
M  V30 21 C -1.045960 1.546805 -0.292968 0
M  V30 22 O 0.133213 -0.107886 -2.580585 0
M  V30 23 C -0.286167 -1.415252 -2.379743 0
M  V30 24 C -1.402160 -1.896124 -3.035506 0
M  V30 25 C -1.849771 -3.200803 -2.859104 0
M  V30 26 C -1.149005 -4.037091 -1.997669 0
M  V30 27 C -0.054101 -3.532046 -1.367151 0
M  V30 28 C 0.391469 -2.260380 -1.531214 0
M  V30 29 C 2.414025 -1.355596 2.185190 0
M  V30 30 C 2.088568 -1.025300 3.473982 0
M  V30 31 H 0.656943 0.423709 6.002160 0
M  V30 32 H 0.975663 -0.783307 7.272853 0
M  V30 33 H 2.292649 -0.465356 6.027235 0
M  V30 34 H -0.283923 -3.390354 3.871901 0
M  V30 35 H 0.386163 -3.864848 1.612623 0
M  V30 36 H 3.381298 -2.223561 0.014254 0
M  V30 37 H 2.334657 -3.647865 -0.209997 0
M  V30 38 H 1.501260 1.379699 -2.252491 0
M  V30 39 H 2.073863 1.135929 0.770669 0
M  V30 40 H 1.075950 1.941616 2.774169 0
M  V30 41 H -1.253881 2.510437 2.876232 0
M  V30 42 H -3.339950 2.716551 1.852208 0
M  V30 43 H -4.817383 2.552345 -0.032692 0
M  V30 44 H -3.899164 1.723114 -2.188307 0
M  V30 45 H -1.580770 1.125613 -2.356337 0
M  V30 46 H -1.957623 -1.238018 -3.716587 0
M  V30 47 H -2.730143 -3.600922 -3.368026 0
M  V30 48 H -1.504734 -5.059565 -1.863565 0
M  V30 49 H 0.472138 -4.206834 -0.711030 0
M  V30 50 H 3.190293 -0.752235 1.736000 0
M  V30 51 H 2.553708 -0.231484 4.018231 0
M  V30 END ATOM
M  V30 BEGIN BOND
M  V30 1 1 1 2
M  V30 2 1 2 3
M  V30 3 2 3 4
M  V30 4 1 4 5
M  V30 5 2 5 6
M  V30 6 1 6 7
M  V30 7 1 7 8
M  V30 8 1 8 9
M  V30 9 2 9 10
M  V30 10 1 9 11
M  V30 11 1 11 12
M  V30 12 2 12 13
M  V30 13 1 13 14
M  V30 14 2 14 15
M  V30 15 1 15 16
M  V30 16 2 16 17
M  V30 17 1 17 18
M  V30 18 2 18 19
M  V30 19 1 19 20
M  V30 20 2 20 21
M  V30 21 1 11 22
M  V30 22 1 22 23
M  V30 23 2 23 24
M  V30 24 1 24 25
M  V30 25 2 25 26
M  V30 26 1 26 27
M  V30 27 2 27 28
M  V30 28 1 6 29
M  V30 29 2 29 30
M  V30 30 1 30 3
M  V30 31 1 28 8
M  V30 32 1 21 12
M  V30 33 1 28 23
M  V30 34 1 21 16
M  V30 35 1 1 31
M  V30 36 1 1 32
M  V30 37 1 1 33
M  V30 38 1 4 34
M  V30 39 1 5 35
M  V30 40 1 7 36
M  V30 41 1 7 37
M  V30 42 1 11 38
M  V30 43 1 13 39
M  V30 44 1 14 40
M  V30 45 1 15 41
M  V30 46 1 17 42
M  V30 47 1 18 43
M  V30 48 1 19 44
M  V30 49 1 20 45
M  V30 50 1 24 46
M  V30 51 1 25 47
M  V30 52 1 26 48
M  V30 53 1 27 49
M  V30 54 1 29 50
M  V30 55 1 30 51
M  V30 END BOND
M  V30 END CTAB
M  END
>  <Dataset>  (410) 
ChEMBL_Kinases

>  <Ligand_Instance>  (410) 
nan

>  <PDB_ID>  (410) 
nan

>  <Standardized_SMILES>  (410) 
COc1ccc(CN2C(=O)C(c3cccc4ccccc34)Oc3ccccc32)cc1

>  <Name>  (410) 
nan

>  <Pocket>  (410) 
nan

>  <ATP_Site>  (410) 
nan

>  <Peripheral>  (410) 
nan

>  <Num_H_Atoms_ProtBoundConf>  (410) 
nan

>  <Num_Resolved_Atoms>  (410) 
nan

>  <Num_Not_Resolved_Atoms>  (410) 
nan

$$$$
CHEMBL4779701
     RDKit          3D

  0  0  0  0  0  0  0  0  0  0999 V3000
M  V30 BEGIN CTAB
M  V30 COUNTS 52 56 0 0 0
M  V30 BEGIN ATOM
M  V30 1 C -4.222848 -0.988093 -6.947192 0
M  V30 2 N -4.387123 -0.813066 -5.517083 0
M  V30 3 C -3.577980 -0.156058 -4.660545 0
M  V30 4 C -4.084306 -0.216132 -3.361710 0
M  V30 5 C -3.412396 0.409837 -2.225743 0
M  V30 6 C -3.527658 -0.162812 -0.961343 0
M  V30 7 C -2.898520 0.407352 0.148497 0
M  V30 8 C -2.182328 1.551328 -0.139479 0
M  V30 9 C -1.542902 2.146099 0.928969 0
M  V30 10 N -1.554268 1.699018 2.292614 0
M  V30 11 C -0.569444 0.740655 2.701987 0
M  V30 12 C -0.490187 0.330845 4.036475 0
M  V30 13 C 0.471942 -0.596486 4.370012 0
M  V30 14 C 1.354220 -1.136836 3.459796 0
M  V30 15 C 1.286857 -0.741086 2.139670 0
M  V30 16 N 2.098839 -1.181769 1.057565 0
M  V30 17 C 3.320003 -0.758600 0.478576 0
M  V30 18 O 3.955479 0.231538 0.921515 0
M  V30 19 C 3.849769 -1.491357 -0.657999 0
M  V30 20 C 5.038774 -1.034103 -1.184055 0
M  V30 21 C 5.580810 -1.700519 -2.265744 0
M  V30 22 C 4.978070 -2.800730 -2.834944 0
M  V30 23 C 3.788663 -3.261998 -2.312387 0
M  V30 24 F 3.119725 -4.350188 -2.815373 0
M  V30 25 C 3.259281 -2.589521 -1.235039 0
M  V30 26 C 0.319655 0.193396 1.796547 0
M  V30 27 N -0.810149 3.260375 0.801226 0
M  V30 28 C -0.677739 3.845601 -0.421789 0
M  V30 29 N -1.291331 3.283805 -1.475509 0
M  V30 30 C -2.029806 2.164609 -1.359126 0
M  V30 31 C -2.673503 1.558833 -2.424536 0
M  V30 32 C -5.242166 -0.950050 -3.510019 0
M  V30 33 N -5.403250 -1.294017 -4.794600 0
M  V30 34 H -3.124825 -0.989054 -7.156467 0
M  V30 35 H -4.557975 -2.027967 -7.213660 0
M  V30 36 H -4.770523 -0.255009 -7.542529 0
M  V30 37 H -2.678847 0.326519 -5.000884 0
M  V30 38 H -4.119290 -1.073870 -0.830832 0
M  V30 39 H -2.962069 -0.000875 1.133326 0
M  V30 40 H -2.234173 2.031064 2.996261 0
M  V30 41 H -1.162064 0.727536 4.787305 0
M  V30 42 H 0.550060 -0.927018 5.399060 0
M  V30 43 H 2.123077 -1.864566 3.676826 0
M  V30 44 H 1.514688 -1.988691 0.750238 0
M  V30 45 H 5.578180 -0.178635 -0.799771 0
M  V30 46 H 6.512132 -1.355276 -2.690790 0
M  V30 47 H 5.360144 -3.359221 -3.683094 0
M  V30 48 H 2.330806 -2.955097 -0.831148 0
M  V30 49 H 0.205462 0.556651 0.763638 0
M  V30 50 H -0.091333 4.748297 -0.555678 0
M  V30 51 H -2.570802 2.017669 -3.389385 0
M  V30 52 H -5.869145 -1.164636 -2.635755 0
M  V30 END ATOM
M  V30 BEGIN BOND
M  V30 1 1 1 2
M  V30 2 1 2 3
M  V30 3 2 3 4
M  V30 4 1 4 5
M  V30 5 2 5 6
M  V30 6 1 6 7
M  V30 7 2 7 8
M  V30 8 1 8 9
M  V30 9 1 9 10
M  V30 10 1 10 11
M  V30 11 2 11 12
M  V30 12 1 12 13
M  V30 13 2 13 14
M  V30 14 1 14 15
M  V30 15 1 15 16
M  V30 16 1 16 17
M  V30 17 2 17 18
M  V30 18 1 17 19
M  V30 19 2 19 20
M  V30 20 1 20 21
M  V30 21 2 21 22
M  V30 22 1 22 23
M  V30 23 1 23 24
M  V30 24 2 23 25
M  V30 25 2 15 26
M  V30 26 2 9 27
M  V30 27 1 27 28
M  V30 28 2 28 29
M  V30 29 1 29 30
M  V30 30 2 30 31
M  V30 31 1 4 32
M  V30 32 2 32 33
M  V30 33 1 33 2
M  V30 34 1 31 5
M  V30 35 1 30 8
M  V30 36 1 26 11
M  V30 37 1 25 19
M  V30 38 1 1 34
M  V30 39 1 1 35
M  V30 40 1 1 36
M  V30 41 1 3 37
M  V30 42 1 6 38
M  V30 43 1 7 39
M  V30 44 1 10 40
M  V30 45 1 12 41
M  V30 46 1 13 42
M  V30 47 1 14 43
M  V30 48 1 16 44
M  V30 49 1 20 45
M  V30 50 1 21 46
M  V30 51 1 22 47
M  V30 52 1 25 48
M  V30 53 1 26 49
M  V30 54 1 28 50
M  V30 55 1 31 51
M  V30 56 1 32 52
M  V30 END BOND
M  V30 END CTAB
M  END
>  <Dataset>  (411) 
ChEMBL_Kinases

>  <Ligand_Instance>  (411) 
nan

>  <PDB_ID>  (411) 
nan

>  <Standardized_SMILES>  (411) 
Cn1cc(-c2ccc3c(Nc4cccc(NC(=O)c5cccc(F)c5)c4)ncnc3c2)cn1

>  <Name>  (411) 
nan

>  <Pocket>  (411) 
nan

>  <ATP_Site>  (411) 
nan

>  <Peripheral>  (411) 
nan

>  <Num_H_Atoms_ProtBoundConf>  (411) 
nan

>  <Num_Resolved_Atoms>  (411) 
nan

>  <Num_Not_Resolved_Atoms>  (411) 
nan

$$$$
CHEMBL4779709
     RDKit          3D

  0  0  0  0  0  0  0  0  0  0999 V3000
M  V30 BEGIN CTAB
M  V30 COUNTS 57 61 0 0 0
M  V30 BEGIN ATOM
M  V30 1 N -1.225528 -5.029746 2.126146 0
M  V30 2 C -0.411317 -3.990998 1.597074 0
M  V30 3 N 0.833351 -4.198578 1.130761 0
M  V30 4 C 1.593520 -3.195773 0.630475 0
M  V30 5 C 1.152641 -1.888597 0.560311 0
M  V30 6 C 1.984915 -0.817158 0.017698 0
M  V30 7 C 2.726243 -0.906076 -1.149179 0
M  V30 8 N 3.345327 0.275066 -1.300820 0
M  V30 9 N 3.057233 1.115677 -0.319028 0
M  V30 10 C 3.575095 2.477606 -0.201064 0
M  V30 11 C 2.552334 3.496889 -0.679570 0
M  V30 12 C 1.467275 3.708497 0.330807 0
M  V30 13 N 1.961427 4.142161 1.601810 0
M  V30 14 C 3.421088 4.176032 1.631352 0
M  V30 15 C 3.872440 2.773275 1.242259 0
M  V30 16 C 2.219077 0.455369 0.501597 0
M  V30 17 C -0.125801 -1.676691 1.039542 0
M  V30 18 C -0.911994 -2.689421 1.552285 0
M  V30 19 C -2.258855 -2.330975 2.031229 0
M  V30 20 N -2.876106 -1.475528 1.108503 0
M  V30 21 C -3.966623 -1.923939 0.347793 0
M  V30 22 C -3.734178 -3.084779 -0.533154 0
M  V30 23 C -3.937664 -4.369860 -0.072531 0
M  V30 24 C -3.740120 -5.506670 -0.841352 0
M  V30 25 C -3.309211 -5.351299 -2.162953 0
M  V30 26 C -3.097585 -4.081005 -2.650865 0
M  V30 27 C -3.309190 -2.962055 -1.840652 0
M  V30 28 C -2.179522 -0.315417 0.708777 0
M  V30 29 C -0.704726 -0.318000 1.015615 0
M  V30 30 H -1.486303 -5.647663 1.325029 0
M  V30 31 H -1.322310 -4.866831 3.163614 0
M  V30 32 H 2.580506 -3.465853 0.280817 0
M  V30 33 H 2.795986 -1.761556 -1.814208 0
M  V30 34 H 4.499641 2.551859 -0.822254 0
M  V30 35 H 2.073797 3.090459 -1.593522 0
M  V30 36 H 3.100873 4.435802 -0.865632 0
M  V30 37 H 0.841152 2.800156 0.403623 0
M  V30 38 H 0.809755 4.512295 -0.056384 0
M  V30 39 H 1.581998 5.025396 1.962548 0
M  V30 40 H 3.846513 4.951507 0.960945 0
M  V30 41 H 3.778342 4.343662 2.667665 0
M  V30 42 H 3.334213 2.063060 1.884336 0
M  V30 43 H 4.978724 2.729212 1.428977 0
M  V30 44 H 1.784945 0.830841 1.396997 0
M  V30 45 H -2.097201 -1.740034 2.979578 0
M  V30 46 H -2.903662 -3.161667 2.294655 0
M  V30 47 H -4.416308 -1.052840 -0.172794 0
M  V30 48 H -4.773115 -2.248492 1.069832 0
M  V30 49 H -4.270172 -4.589330 0.933614 0
M  V30 50 H -3.901846 -6.503849 -0.472073 0
M  V30 51 H -3.161116 -6.256884 -2.746671 0
M  V30 52 H -2.765065 -4.009534 -3.677112 0
M  V30 53 H -3.130679 -1.972968 -2.263244 0
M  V30 54 H -2.377858 -0.132011 -0.375202 0
M  V30 55 H -2.616773 0.563239 1.243970 0
M  V30 56 H -0.216086 0.234314 0.185950 0
M  V30 57 H -0.479481 0.255955 1.945167 0
M  V30 END ATOM
M  V30 BEGIN BOND
M  V30 1 1 1 2
M  V30 2 2 2 3
M  V30 3 1 3 4
M  V30 4 2 4 5
M  V30 5 1 5 6
M  V30 6 1 6 7
M  V30 7 2 7 8
M  V30 8 1 8 9
M  V30 9 1 9 10
M  V30 10 1 10 11
M  V30 11 1 11 12
M  V30 12 1 12 13
M  V30 13 1 13 14
M  V30 14 1 14 15
M  V30 15 1 9 16
M  V30 16 1 5 17
M  V30 17 2 17 18
M  V30 18 1 18 19
M  V30 19 1 19 20
M  V30 20 1 20 21
M  V30 21 1 21 22
M  V30 22 2 22 23
M  V30 23 1 23 24
M  V30 24 2 24 25
M  V30 25 1 25 26
M  V30 26 2 26 27
M  V30 27 1 20 28
M  V30 28 1 28 29
M  V30 29 1 18 2
M  V30 30 1 27 22
M  V30 31 2 16 6
M  V30 32 1 29 17
M  V30 33 1 15 10
M  V30 34 1 1 30
M  V30 35 1 1 31
M  V30 36 1 4 32
M  V30 37 1 7 33
M  V30 38 1 10 34
M  V30 39 1 11 35
M  V30 40 1 11 36
M  V30 41 1 12 37
M  V30 42 1 12 38
M  V30 43 1 13 39
M  V30 44 1 14 40
M  V30 45 1 14 41
M  V30 46 1 15 42
M  V30 47 1 15 43
M  V30 48 1 16 44
M  V30 49 1 19 45
M  V30 50 1 19 46
M  V30 51 1 21 47
M  V30 52 1 21 48
M  V30 53 1 23 49
M  V30 54 1 24 50
M  V30 55 1 25 51
M  V30 56 1 26 52
M  V30 57 1 27 53
M  V30 58 1 28 54
M  V30 59 1 28 55
M  V30 60 1 29 56
M  V30 61 1 29 57
M  V30 END BOND
M  V30 END CTAB
M  END
>  <Dataset>  (412) 
ChEMBL_Kinases

>  <Ligand_Instance>  (412) 
nan

>  <PDB_ID>  (412) 
nan

>  <Standardized_SMILES>  (412) 
Nc1ncc(-c2cnn(C3CCNCC3)c2)c2c1CN(Cc1ccccc1)CC2

>  <Name>  (412) 
nan

>  <Pocket>  (412) 
nan

>  <ATP_Site>  (412) 
nan

>  <Peripheral>  (412) 
nan

>  <Num_H_Atoms_ProtBoundConf>  (412) 
nan

>  <Num_Resolved_Atoms>  (412) 
nan

>  <Num_Not_Resolved_Atoms>  (412) 
nan

$$$$
CHEMBL477977
     RDKit          3D

  0  0  0  0  0  0  0  0  0  0999 V3000
M  V30 BEGIN CTAB
M  V30 COUNTS 56 59 0 0 0
M  V30 BEGIN ATOM
M  V30 1 C -1.595451 -0.634015 4.776306 0
M  V30 2 C -0.339498 -0.126404 4.202270 0
M  V30 3 C 0.630986 0.422492 5.026761 0
M  V30 4 C 1.838075 0.915627 4.518190 0
M  V30 5 C 2.092284 0.865299 3.163492 0
M  V30 6 C 3.363563 1.389957 2.671190 0
M  V30 7 O 4.144039 1.856897 3.540365 0
M  V30 8 N 3.697044 1.372708 1.289401 0
M  V30 9 C 4.926220 1.866641 0.705640 0
M  V30 10 C 5.608270 0.801917 -0.137344 0
M  V30 11 C 4.959500 0.879216 -1.500659 0
M  V30 12 C 4.234938 2.200674 -1.585315 0
M  V30 13 C 4.503779 2.940186 -0.294705 0
M  V30 14 C 1.112739 0.315090 2.362119 0
M  V30 15 C -0.077686 -0.174736 2.835350 0
M  V30 16 C -1.055622 -0.738610 1.917282 0
M  V30 17 C -1.754878 -1.905114 2.092363 0
M  V30 18 C -2.668301 -2.368603 1.166124 0
M  V30 19 C -2.918974 -1.656824 -0.001931 0
M  V30 20 C -3.863963 -2.066250 -1.036496 0
M  V30 21 O -4.084148 -1.408545 -2.097722 0
M  V30 22 N -4.638461 -3.252541 -0.957923 0
M  V30 23 C -5.548507 -3.589098 -2.017109 0
M  V30 24 C -4.807012 -3.747714 -3.335384 0
M  V30 25 C -3.732090 -4.833852 -3.349209 0
M  V30 26 C -4.977376 -5.012959 -4.111982 0
M  V30 27 C -2.235570 -0.473659 -0.219991 0
M  V30 28 C -1.319606 -0.037988 0.740526 0
M  V30 29 H -1.486900 -1.633183 5.247213 0
M  V30 30 H -2.477878 -0.540772 4.109838 0
M  V30 31 H -1.851823 0.041676 5.645196 0
M  V30 32 H 0.426966 0.460872 6.097698 0
M  V30 33 H 2.539321 1.326922 5.232654 0
M  V30 34 H 3.042113 0.982909 0.576263 0
M  V30 35 H 5.638876 2.283627 1.424068 0
M  V30 36 H 6.686114 0.988549 -0.237077 0
M  V30 37 H 5.482809 -0.203632 0.341121 0
M  V30 38 H 4.238653 0.056620 -1.654742 0
M  V30 39 H 5.704904 0.832501 -2.326060 0
M  V30 40 H 4.577072 2.839581 -2.425288 0
M  V30 41 H 3.144312 2.030314 -1.733710 0
M  V30 42 H 5.261518 3.734724 -0.380361 0
M  V30 43 H 3.549931 3.424440 0.012468 0
M  V30 44 H 1.281960 0.262993 1.309949 0
M  V30 45 H -1.567805 -2.456132 2.985654 0
M  V30 46 H -3.212162 -3.286310 1.313655 0
M  V30 47 H -4.544018 -3.880145 -0.126470 0
M  V30 48 H -6.096453 -4.528425 -1.771239 0
M  V30 49 H -6.309263 -2.776790 -2.161568 0
M  V30 50 H -4.654416 -2.841565 -3.939728 0
M  V30 51 H -2.776388 -4.625977 -3.868263 0
M  V30 52 H -3.577039 -5.429498 -2.425433 0
M  V30 53 H -5.715076 -5.740553 -3.691501 0
M  V30 54 H -5.003244 -4.966577 -5.224435 0
M  V30 55 H -2.376161 0.133845 -1.101982 0
M  V30 56 H -0.796713 0.904332 0.533318 0
M  V30 END ATOM
M  V30 BEGIN BOND
M  V30 1 1 1 2
M  V30 2 2 2 3
M  V30 3 1 3 4
M  V30 4 2 4 5
M  V30 5 1 5 6
M  V30 6 2 6 7
M  V30 7 1 6 8
M  V30 8 1 8 9
M  V30 9 1 9 10
M  V30 10 1 10 11
M  V30 11 1 11 12
M  V30 12 1 12 13
M  V30 13 1 5 14
M  V30 14 2 14 15
M  V30 15 1 15 16
M  V30 16 2 16 17
M  V30 17 1 17 18
M  V30 18 2 18 19
M  V30 19 1 19 20
M  V30 20 2 20 21
M  V30 21 1 20 22
M  V30 22 1 22 23
M  V30 23 1 23 24
M  V30 24 1 24 25
M  V30 25 1 25 26
M  V30 26 1 19 27
M  V30 27 2 27 28
M  V30 28 1 15 2
M  V30 29 1 28 16
M  V30 30 1 13 9
M  V30 31 1 26 24
M  V30 32 1 1 29
M  V30 33 1 1 30
M  V30 34 1 1 31
M  V30 35 1 3 32
M  V30 36 1 4 33
M  V30 37 1 8 34
M  V30 38 1 9 35
M  V30 39 1 10 36
M  V30 40 1 10 37
M  V30 41 1 11 38
M  V30 42 1 11 39
M  V30 43 1 12 40
M  V30 44 1 12 41
M  V30 45 1 13 42
M  V30 46 1 13 43
M  V30 47 1 14 44
M  V30 48 1 17 45
M  V30 49 1 18 46
M  V30 50 1 22 47
M  V30 51 1 23 48
M  V30 52 1 23 49
M  V30 53 1 24 50
M  V30 54 1 25 51
M  V30 55 1 25 52
M  V30 56 1 26 53
M  V30 57 1 26 54
M  V30 58 1 27 55
M  V30 59 1 28 56
M  V30 END BOND
M  V30 END CTAB
M  END
>  <Dataset>  (413) 
ChEMBL_Kinases

>  <Ligand_Instance>  (413) 
nan

>  <PDB_ID>  (413) 
nan

>  <Standardized_SMILES>  (413) 
Cc1ccc(C(=O)NC2CCCC2)cc1-c1ccc(C(=O)NCC2CC2)cc1

>  <Name>  (413) 
nan

>  <Pocket>  (413) 
nan

>  <ATP_Site>  (413) 
nan

>  <Peripheral>  (413) 
nan

>  <Num_H_Atoms_ProtBoundConf>  (413) 
nan

>  <Num_Resolved_Atoms>  (413) 
nan

>  <Num_Not_Resolved_Atoms>  (413) 
nan

$$$$
CHEMBL477978
     RDKit          3D

  0  0  0  0  0  0  0  0  0  0999 V3000
M  V30 BEGIN CTAB
M  V30 COUNTS 59 62 0 0 0
M  V30 BEGIN ATOM
M  V30 1 C -2.726654 -2.250923 3.827300 0
M  V30 2 C -1.701383 -1.184002 3.831768 0
M  V30 3 C -1.432251 -0.423359 4.951859 0
M  V30 4 C -0.467777 0.591592 4.982933 0
M  V30 5 C 0.251845 0.844953 3.832937 0
M  V30 6 C 1.249939 1.906370 3.889585 0
M  V30 7 O 1.392955 2.515360 4.960063 0
M  V30 8 N 2.063101 2.275904 2.784198 0
M  V30 9 C 3.062533 3.318708 2.794101 0
M  V30 10 C 4.376281 2.684593 2.414709 0
M  V30 11 C 5.119399 3.638810 1.486120 0
M  V30 12 C 4.421234 3.788934 0.172838 0
M  V30 13 C 2.937684 3.839097 0.406743 0
M  V30 14 C 2.684745 4.373409 1.786368 0
M  V30 15 C -0.016910 0.084954 2.713329 0
M  V30 16 C -0.971760 -0.915689 2.692306 0
M  V30 17 C -1.162693 -1.648233 1.445799 0
M  V30 18 C -2.367495 -1.969727 0.857173 0
M  V30 19 C -2.416898 -2.670364 -0.329855 0
M  V30 20 C -1.251473 -3.064408 -0.953268 0
M  V30 21 C -1.202812 -3.806295 -2.207883 0
M  V30 22 O -0.125449 -4.160900 -2.763954 0
M  V30 23 N -2.373515 -4.195451 -2.915643 0
M  V30 24 C -2.111979 -4.932886 -4.154066 0
M  V30 25 C -3.446286 -5.283522 -4.804847 0
M  V30 26 C -3.433046 -6.053715 -6.109792 0
M  V30 27 C -3.819937 -6.747621 -4.846572 0
M  V30 28 C -0.024300 -2.749229 -0.374483 0
M  V30 29 C 0.007362 -2.039116 0.828038 0
M  V30 30 H -2.668761 -2.713991 4.856217 0
M  V30 31 H -3.760030 -1.874350 3.755943 0
M  V30 32 H -2.485795 -3.078366 3.140128 0
M  V30 33 H -1.985014 -0.595580 5.887351 0
M  V30 34 H -0.316970 1.144337 5.905092 0
M  V30 35 H 1.945038 1.765176 1.882792 0
M  V30 36 H 3.118178 3.803665 3.798301 0
M  V30 37 H 4.220851 1.728770 1.882784 0
M  V30 38 H 5.018918 2.475894 3.293402 0
M  V30 39 H 5.214323 4.607732 2.000461 0
M  V30 40 H 6.127931 3.206231 1.267409 0
M  V30 41 H 4.661747 2.969896 -0.544161 0
M  V30 42 H 4.717759 4.769262 -0.278927 0
M  V30 43 H 2.461119 4.528499 -0.329287 0
M  V30 44 H 2.480491 2.854407 0.247070 0
M  V30 45 H 3.290831 5.295587 1.939431 0
M  V30 46 H 1.588403 4.617080 1.847842 0
M  V30 47 H 0.547626 0.284114 1.811887 0
M  V30 48 H -3.254447 -1.640305 1.381024 0
M  V30 49 H -3.360892 -2.920451 -0.787887 0
M  V30 50 H -3.320394 -3.953886 -2.545516 0
M  V30 51 H -1.480239 -5.806603 -3.983193 0
M  V30 52 H -1.616704 -4.241292 -4.882026 0
M  V30 53 H -4.234623 -4.519072 -4.661743 0
M  V30 54 H -4.242649 -5.862593 -6.834844 0
M  V30 55 H -2.443062 -6.306532 -6.540607 0
M  V30 56 H -3.091125 -7.437710 -4.376387 0
M  V30 57 H -4.900894 -7.017354 -4.717175 0
M  V30 58 H 0.928342 -3.042452 -0.835196 0
M  V30 59 H 0.994453 -1.822292 1.231561 0
M  V30 END ATOM
M  V30 BEGIN BOND
M  V30 1 1 1 2
M  V30 2 2 2 3
M  V30 3 1 3 4
M  V30 4 2 4 5
M  V30 5 1 5 6
M  V30 6 2 6 7
M  V30 7 1 6 8
M  V30 8 1 8 9
M  V30 9 1 9 10
M  V30 10 1 10 11
M  V30 11 1 11 12
M  V30 12 1 12 13
M  V30 13 1 13 14
M  V30 14 1 5 15
M  V30 15 2 15 16
M  V30 16 1 16 17
M  V30 17 2 17 18
M  V30 18 1 18 19
M  V30 19 2 19 20
M  V30 20 1 20 21
M  V30 21 2 21 22
M  V30 22 1 21 23
M  V30 23 1 23 24
M  V30 24 1 24 25
M  V30 25 1 25 26
M  V30 26 1 26 27
M  V30 27 1 20 28
M  V30 28 2 28 29
M  V30 29 1 16 2
M  V30 30 1 29 17
M  V30 31 1 14 9
M  V30 32 1 27 25
M  V30 33 1 1 30
M  V30 34 1 1 31
M  V30 35 1 1 32
M  V30 36 1 3 33
M  V30 37 1 4 34
M  V30 38 1 8 35
M  V30 39 1 9 36
M  V30 40 1 10 37
M  V30 41 1 10 38
M  V30 42 1 11 39
M  V30 43 1 11 40
M  V30 44 1 12 41
M  V30 45 1 12 42
M  V30 46 1 13 43
M  V30 47 1 13 44
M  V30 48 1 14 45
M  V30 49 1 14 46
M  V30 50 1 15 47
M  V30 51 1 18 48
M  V30 52 1 19 49
M  V30 53 1 23 50
M  V30 54 1 24 51
M  V30 55 1 24 52
M  V30 56 1 25 53
M  V30 57 1 26 54
M  V30 58 1 26 55
M  V30 59 1 27 56
M  V30 60 1 27 57
M  V30 61 1 28 58
M  V30 62 1 29 59
M  V30 END BOND
M  V30 END CTAB
M  END
>  <Dataset>  (414) 
ChEMBL_Kinases

>  <Ligand_Instance>  (414) 
nan

>  <PDB_ID>  (414) 
nan

>  <Standardized_SMILES>  (414) 
Cc1ccc(C(=O)NC2CCCCC2)cc1-c1ccc(C(=O)NCC2CC2)cc1

>  <Name>  (414) 
GW782907X

>  <Pocket>  (414) 
nan

>  <ATP_Site>  (414) 
nan

>  <Peripheral>  (414) 
nan

>  <Num_H_Atoms_ProtBoundConf>  (414) 
nan

>  <Num_Resolved_Atoms>  (414) 
nan

>  <Num_Not_Resolved_Atoms>  (414) 
nan

$$$$
CHEMBL477979
     RDKit          3D

  0  0  0  0  0  0  0  0  0  0999 V3000
M  V30 BEGIN CTAB
M  V30 COUNTS 52 54 0 0 0
M  V30 BEGIN ATOM
M  V30 1 C 1.591689 -4.450386 1.015344 0
M  V30 2 C 2.370423 -3.246661 0.713983 0
M  V30 3 C 3.710204 -3.325048 0.392524 0
M  V30 4 C 4.434903 -2.165133 0.107928 0
M  V30 5 C 3.787931 -0.947672 0.154518 0
M  V30 6 C 4.596446 0.228269 -0.152466 0
M  V30 7 O 5.791199 0.081867 -0.432549 0
M  V30 8 N 4.101218 1.561903 -0.153601 0
M  V30 9 C 4.932916 2.700834 -0.462987 0
M  V30 10 C 5.022633 3.678618 0.679286 0
M  V30 11 C 4.397707 3.343092 -1.723532 0
M  V30 12 C 2.448438 -0.885256 0.477358 0
M  V30 13 C 1.707752 -2.038046 0.765250 0
M  V30 14 C 0.300510 -1.839658 1.092655 0
M  V30 15 C -0.413803 -0.976137 0.286972 0
M  V30 16 C -1.747704 -0.754617 0.555533 0
M  V30 17 C -2.445621 -1.339997 1.590007 0
M  V30 18 C -3.854687 -1.107334 1.875293 0
M  V30 19 O -4.327235 -1.744287 2.880916 0
M  V30 20 N -4.701000 -0.263353 1.150312 0
M  V30 21 C -6.098539 -0.008221 1.376523 0
M  V30 22 C -7.022872 -1.160580 1.200829 0
M  V30 23 C -7.092862 -1.792423 -0.185421 0
M  V30 24 C -6.631154 -2.554196 0.999975 0
M  V30 25 C -1.672700 -2.187109 2.350621 0
M  V30 26 C -0.336996 -2.443983 2.126360 0
M  V30 27 H 1.964100 -5.330407 0.411281 0
M  V30 28 H 1.767854 -4.788658 2.070313 0
M  V30 29 H 0.517482 -4.397661 0.763022 0
M  V30 30 H 4.192576 -4.284404 0.362540 0
M  V30 31 H 5.480857 -2.286364 -0.137510 0
M  V30 32 H 3.098290 1.721465 0.078210 0
M  V30 33 H 5.970276 2.369673 -0.687767 0
M  V30 34 H 4.066979 3.844112 1.207849 0
M  V30 35 H 5.828271 3.324140 1.364915 0
M  V30 36 H 5.401818 4.633283 0.262054 0
M  V30 37 H 3.296169 3.487159 -1.544275 0
M  V30 38 H 4.860160 4.328061 -1.905592 0
M  V30 39 H 4.524335 2.616471 -2.551943 0
M  V30 40 H 1.964576 0.081648 0.507007 0
M  V30 41 H 0.073987 -0.474331 -0.554200 0
M  V30 42 H -2.254147 -0.069488 -0.108618 0
M  V30 43 H -4.189694 0.202499 0.368396 0
M  V30 44 H -6.410043 0.775028 0.619229 0
M  V30 45 H -6.272572 0.478361 2.368205 0
M  V30 46 H -8.037520 -0.952039 1.665129 0
M  V30 47 H -6.320813 -1.452014 -0.907773 0
M  V30 48 H -8.074513 -1.992145 -0.646926 0
M  V30 49 H -7.369437 -3.324083 1.382287 0
M  V30 50 H -5.621597 -2.950691 0.950375 0
M  V30 51 H -2.135656 -2.703950 3.200682 0
M  V30 52 H 0.193811 -3.116690 2.765168 0
M  V30 END ATOM
M  V30 BEGIN BOND
M  V30 1 1 1 2
M  V30 2 2 2 3
M  V30 3 1 3 4
M  V30 4 2 4 5
M  V30 5 1 5 6
M  V30 6 2 6 7
M  V30 7 1 6 8
M  V30 8 1 8 9
M  V30 9 1 9 10
M  V30 10 1 9 11
M  V30 11 1 5 12
M  V30 12 2 12 13
M  V30 13 1 13 14
M  V30 14 2 14 15
M  V30 15 1 15 16
M  V30 16 2 16 17
M  V30 17 1 17 18
M  V30 18 2 18 19
M  V30 19 1 18 20
M  V30 20 1 20 21
M  V30 21 1 21 22
M  V30 22 1 22 23
M  V30 23 1 23 24
M  V30 24 1 17 25
M  V30 25 2 25 26
M  V30 26 1 13 2
M  V30 27 1 26 14
M  V30 28 1 24 22
M  V30 29 1 1 27
M  V30 30 1 1 28
M  V30 31 1 1 29
M  V30 32 1 3 30
M  V30 33 1 4 31
M  V30 34 1 8 32
M  V30 35 1 9 33
M  V30 36 1 10 34
M  V30 37 1 10 35
M  V30 38 1 10 36
M  V30 39 1 11 37
M  V30 40 1 11 38
M  V30 41 1 11 39
M  V30 42 1 12 40
M  V30 43 1 15 41
M  V30 44 1 16 42
M  V30 45 1 20 43
M  V30 46 1 21 44
M  V30 47 1 21 45
M  V30 48 1 22 46
M  V30 49 1 23 47
M  V30 50 1 23 48
M  V30 51 1 24 49
M  V30 52 1 24 50
M  V30 53 1 25 51
M  V30 54 1 26 52
M  V30 END BOND
M  V30 END CTAB
M  END
>  <Dataset>  (415) 
ChEMBL_Kinases

>  <Ligand_Instance>  (415) 
nan

>  <PDB_ID>  (415) 
nan

>  <Standardized_SMILES>  (415) 
Cc1ccc(C(=O)NC(C)C)cc1-c1ccc(C(=O)NCC2CC2)cc1

>  <Name>  (415) 
GW785974X

>  <Pocket>  (415) 
nan

>  <ATP_Site>  (415) 
nan

>  <Peripheral>  (415) 
nan

>  <Num_H_Atoms_ProtBoundConf>  (415) 
nan

>  <Num_Resolved_Atoms>  (415) 
nan

>  <Num_Not_Resolved_Atoms>  (415) 
nan

$$$$
CHEMBL4779799
     RDKit          3D

  0  0  0  0  0  0  0  0  0  0999 V3000
M  V30 BEGIN CTAB
M  V30 COUNTS 56 59 0 0 0
M  V30 BEGIN ATOM
M  V30 1 C 0.798871 -2.691661 -5.106365 0
M  V30 2 C 2.132771 -2.715078 -4.390654 0
M  V30 3 C 1.973765 -2.931653 -2.921319 0 CFG=1
M  V30 4 N 1.169277 -1.854228 -2.348168 0
M  V30 5 C 0.886757 -1.858225 -0.950591 0
M  V30 6 N 1.358646 -2.847462 -0.170171 0
M  V30 7 C 1.122023 -2.899655 1.153380 0
M  V30 8 C 0.359482 -1.865075 1.656348 0
M  V30 9 N -0.141026 -0.848527 0.930919 0
M  V30 10 C -0.908860 0.137688 1.610620 0
M  V30 11 C -0.336895 1.169087 2.350394 0
M  V30 12 C -1.083976 2.126134 3.010037 0
M  V30 13 C -0.375758 3.161913 3.756149 0
M  V30 14 O 0.880724 3.112000 3.750135 0
M  V30 15 N -1.025594 4.187589 4.463623 0
M  V30 16 C -0.277663 5.195886 5.191503 0
M  V30 17 C -0.910458 5.595358 6.500356 0
M  V30 18 C -0.832987 6.546194 5.328088 0
M  V30 19 C -2.461105 2.064064 2.937353 0
M  V30 20 C -3.072053 1.057218 2.214087 0
M  V30 21 C -2.307216 0.111272 1.562658 0
M  V30 22 C -2.993186 -0.968332 0.786557 0
M  V30 23 C 0.119946 -0.833396 -0.396121 0
M  V30 24 O -0.340461 0.103141 -1.068328 0
M  V30 25 C 1.450272 -4.270922 -2.640363 0
M  V30 26 C 2.287231 -5.316341 -2.236713 0
M  V30 27 C 1.906051 -6.589971 -1.951369 0
M  V30 28 C 0.568039 -6.902737 -2.064616 0
M  V30 29 C -0.305244 -5.909321 -2.459651 0
M  V30 30 C 0.105618 -4.622240 -2.744257 0
M  V30 31 H 0.447393 -3.727404 -5.199683 0
M  V30 32 H 0.910311 -2.296400 -6.130486 0
M  V30 33 H 0.043856 -2.115039 -4.545428 0
M  V30 34 H 2.795697 -3.510010 -4.772076 0
M  V30 35 H 2.617957 -1.737371 -4.566399 0
M  V30 36 H 3.006982 -2.883628 -2.463801 0
M  V30 37 H 0.798422 -1.082036 -2.944571 0
M  V30 38 H 1.482499 -3.673310 1.805627 0
M  V30 39 H 0.155658 -1.891582 2.738644 0
M  V30 40 H 0.750387 1.151536 2.360846 0
M  V30 41 H -2.067138 4.243026 4.478376 0
M  V30 42 H 0.833148 5.118850 5.164647 0
M  V30 43 H -1.919531 5.229465 6.735217 0
M  V30 44 H -0.297035 5.770129 7.392092 0
M  V30 45 H -1.742907 6.761731 4.730021 0
M  V30 46 H -0.161077 7.412759 5.504025 0
M  V30 47 H -3.062242 2.796441 3.441585 0
M  V30 48 H -4.159643 0.969603 2.129460 0
M  V30 49 H -2.442351 -1.916043 0.797368 0
M  V30 50 H -3.989933 -1.201056 1.229357 0
M  V30 51 H -3.205681 -0.581724 -0.242555 0
M  V30 52 H 3.347319 -5.073632 -2.145670 0
M  V30 53 H 2.583829 -7.349211 -1.647748 0
M  V30 54 H 0.127122 -7.870478 -1.870083 0
M  V30 55 H -1.369668 -6.122305 -2.559342 0
M  V30 56 H -0.606863 -3.870897 -3.050099 0
M  V30 END ATOM
M  V30 BEGIN BOND
M  V30 1 1 1 2
M  V30 2 1 2 3
M  V30 3 1 3 4
M  V30 4 1 4 5
M  V30 5 2 5 6
M  V30 6 1 6 7
M  V30 7 2 7 8
M  V30 8 1 8 9
M  V30 9 1 9 10
M  V30 10 2 10 11
M  V30 11 1 11 12
M  V30 12 1 12 13
M  V30 13 2 13 14
M  V30 14 1 13 15
M  V30 15 1 15 16
M  V30 16 1 16 17
M  V30 17 1 17 18
M  V30 18 2 12 19
M  V30 19 1 19 20
M  V30 20 2 20 21
M  V30 21 1 21 22
M  V30 22 1 9 23
M  V30 23 2 23 24
M  V30 24 1 3 25
M  V30 25 2 25 26
M  V30 26 1 26 27
M  V30 27 2 27 28
M  V30 28 1 28 29
M  V30 29 2 29 30
M  V30 30 1 23 5
M  V30 31 1 30 25
M  V30 32 1 21 10
M  V30 33 1 18 16
M  V30 34 1 1 31
M  V30 35 1 1 32
M  V30 36 1 1 33
M  V30 37 1 2 34
M  V30 38 1 2 35
M  V30 39 1 3 36 CFG=1
M  V30 40 1 4 37
M  V30 41 1 7 38
M  V30 42 1 8 39
M  V30 43 1 11 40
M  V30 44 1 15 41
M  V30 45 1 16 42
M  V30 46 1 17 43
M  V30 47 1 17 44
M  V30 48 1 18 45
M  V30 49 1 18 46
M  V30 50 1 19 47
M  V30 51 1 20 48
M  V30 52 1 22 49
M  V30 53 1 22 50
M  V30 54 1 22 51
M  V30 55 1 26 52
M  V30 56 1 27 53
M  V30 57 1 28 54
M  V30 58 1 29 55
M  V30 59 1 30 56
M  V30 END BOND
M  V30 END CTAB
M  END
>  <Dataset>  (416) 
ChEMBL_Kinases

>  <Ligand_Instance>  (416) 
nan

>  <PDB_ID>  (416) 
nan

>  <Standardized_SMILES>  (416) 
CC[C@@H](Nc1nccn(-c2cc(C(=O)NC3CC3)ccc2C)c1=O)c1ccccc1

>  <Name>  (416) 
nan

>  <Pocket>  (416) 
nan

>  <ATP_Site>  (416) 
nan

>  <Peripheral>  (416) 
nan

>  <Num_H_Atoms_ProtBoundConf>  (416) 
nan

>  <Num_Resolved_Atoms>  (416) 
nan

>  <Num_Not_Resolved_Atoms>  (416) 
nan

$$$$
CHEMBL4779839
     RDKit          3D

  0  0  0  0  0  0  0  0  0  0999 V3000
M  V30 BEGIN CTAB
M  V30 COUNTS 79 84 0 0 0
M  V30 BEGIN ATOM
M  V30 1 C 5.628391 -0.010886 3.436047 0
M  V30 2 C 4.704844 -0.341896 2.309344 0
M  V30 3 C 5.222541 0.215423 0.977067 0 CFG=2
M  V30 4 C 5.280044 1.703633 1.236317 0
M  V30 5 N 6.192209 2.352085 1.969375 0
M  V30 6 N 5.827940 3.614884 2.017001 0
M  V30 7 C 4.672359 3.800576 1.312105 0
M  V30 8 C 4.050522 5.121687 1.204868 0
M  V30 9 N 4.361401 2.596004 0.839464 0
M  V30 10 C 3.331853 2.165146 -0.024218 0
M  V30 11 C 2.377783 3.065256 -0.403966 0
M  V30 12 N 1.376696 2.665995 -1.220616 0
M  V30 13 C 1.328523 1.386444 -1.652365 0
M  V30 14 N 0.208915 1.065532 -2.509965 0
M  V30 15 C -0.973454 0.470338 -1.930898 0
M  V30 16 C -0.944903 0.151323 -0.570464 0
M  V30 17 C -1.994878 -0.436802 0.123893 0
M  V30 18 C -3.133869 -0.717689 -0.593311 0
M  V30 19 C -4.237395 -1.342282 0.123225 0
M  V30 20 O -4.059958 -1.658654 1.328830 0
M  V30 21 N -5.512927 -1.635944 -0.404471 0
M  V30 22 C -6.575732 -2.261309 0.348003 0
M  V30 23 C -7.738522 -1.324849 0.590119 0
M  V30 24 C -8.762253 -2.046736 1.397579 0
M  V30 25 N -8.493474 -3.394800 1.728621 0
M  V30 26 C -7.915176 -3.646080 3.009424 0
M  V30 27 C -7.980792 -4.225852 0.677170 0
M  V30 28 C -7.140118 -3.484906 -0.315634 0
M  V30 29 C -3.196085 -0.415938 -1.936589 0
M  V30 30 C -2.137066 0.172765 -2.618752 0
M  V30 31 O -2.137153 0.495807 -3.946631 0
M  V30 32 C -3.164887 0.312910 -4.871124 0
M  V30 33 N 2.249506 0.477922 -1.298505 0
M  V30 34 C 3.269379 0.842505 -0.479224 0
M  V30 35 N 4.289815 -0.097585 -0.061987 0
M  V30 36 C 4.235836 -1.321326 -0.830590 0
M  V30 37 C 5.381254 -2.176038 -0.459521 0
M  V30 38 C 6.510871 -1.838443 -1.227338 0
M  V30 39 C 7.725873 -2.514108 -1.076287 0
M  V30 40 C 7.863468 -3.541265 -0.165261 0
M  V30 41 Cl 9.326074 -4.436806 0.094725 0
M  V30 42 C 6.757002 -3.864006 0.578931 0
M  V30 43 C 5.563124 -3.199783 0.430243 0
M  V30 44 H 5.654655 -0.830667 4.186477 0
M  V30 45 H 5.298171 0.907836 3.970565 0
M  V30 46 H 6.682141 0.087859 3.074155 0
M  V30 47 H 4.462905 -1.392652 2.298810 0
M  V30 48 H 3.752882 0.215097 2.491012 0
M  V30 49 H 6.239123 -0.121446 0.810231 0
M  V30 50 H 3.085210 5.113379 1.739546 0
M  V30 51 H 4.014794 5.547084 0.178875 0
M  V30 52 H 4.653970 5.903259 1.773119 0
M  V30 53 H 2.276500 4.097652 -0.149014 0
M  V30 54 H 0.115857 1.205917 -3.545620 0
M  V30 55 H -0.048687 0.373252 -0.008803 0
M  V30 56 H -1.867711 -0.641914 1.179092 0
M  V30 57 H -5.679926 -1.370975 -1.420919 0
M  V30 58 H -6.182186 -2.519750 1.339924 0
M  V30 59 H -8.177810 -1.079637 -0.395937 0
M  V30 60 H -7.411353 -0.357751 1.024493 0
M  V30 61 H -9.785855 -1.996106 0.933737 0
M  V30 62 H -8.861436 -1.487524 2.374801 0
M  V30 63 H -7.630002 -2.741561 3.573574 0
M  V30 64 H -7.062791 -4.362526 2.995923 0
M  V30 65 H -8.691280 -4.170886 3.636259 0
M  V30 66 H -8.810990 -4.756383 0.168255 0
M  V30 67 H -7.329027 -5.033821 1.096006 0
M  V30 68 H -7.867987 -3.096267 -1.088546 0
M  V30 69 H -6.371544 -4.143385 -0.781972 0
M  V30 70 H -4.093842 -0.639452 -2.489593 0
M  V30 71 H -4.166348 0.143370 -4.431503 0
M  V30 72 H -3.221432 1.278668 -5.455637 0
M  V30 73 H -2.880040 -0.477444 -5.588742 0
M  V30 74 H 3.311435 -1.856932 -0.463883 0
M  V30 75 H 4.178633 -1.161004 -1.927108 0
M  V30 76 H 6.572155 -1.052446 -1.990241 0
M  V30 77 H 8.605341 -2.274345 -1.651656 0
M  V30 78 H 6.692423 -4.647602 1.342096 0
M  V30 79 H 4.626922 -3.379430 0.971398 0
M  V30 END ATOM
M  V30 BEGIN BOND
M  V30 1 1 1 2
M  V30 2 1 2 3
M  V30 3 1 3 4
M  V30 4 2 4 5
M  V30 5 1 5 6
M  V30 6 2 6 7
M  V30 7 1 7 8
M  V30 8 1 7 9
M  V30 9 1 9 10
M  V30 10 2 10 11
M  V30 11 1 11 12
M  V30 12 2 12 13
M  V30 13 1 13 14
M  V30 14 1 14 15
M  V30 15 2 15 16
M  V30 16 1 16 17
M  V30 17 2 17 18
M  V30 18 1 18 19
M  V30 19 2 19 20
M  V30 20 1 19 21
M  V30 21 1 21 22
M  V30 22 1 22 23
M  V30 23 1 23 24
M  V30 24 1 24 25
M  V30 25 1 25 26
M  V30 26 1 25 27
M  V30 27 1 27 28
M  V30 28 1 18 29
M  V30 29 2 29 30
M  V30 30 1 30 31
M  V30 31 1 31 32
M  V30 32 1 13 33
M  V30 33 2 33 34
M  V30 34 1 34 35
M  V30 35 1 35 36
M  V30 36 1 36 37
M  V30 37 2 37 38
M  V30 38 1 38 39
M  V30 39 2 39 40
M  V30 40 1 40 41
M  V30 41 1 40 42
M  V30 42 2 42 43
M  V30 43 1 35 3
M  V30 44 1 43 37
M  V30 45 1 9 4
M  V30 46 1 34 10
M  V30 47 1 30 15
M  V30 48 1 28 22
M  V30 49 1 1 44
M  V30 50 1 1 45
M  V30 51 1 1 46
M  V30 52 1 2 47
M  V30 53 1 2 48
M  V30 54 1 3 49 CFG=3
M  V30 55 1 8 50
M  V30 56 1 8 51
M  V30 57 1 8 52
M  V30 58 1 11 53
M  V30 59 1 14 54
M  V30 60 1 16 55
M  V30 61 1 17 56
M  V30 62 1 21 57
M  V30 63 1 22 58
M  V30 64 1 23 59
M  V30 65 1 23 60
M  V30 66 1 24 61
M  V30 67 1 24 62
M  V30 68 1 26 63
M  V30 69 1 26 64
M  V30 70 1 26 65
M  V30 71 1 27 66
M  V30 72 1 27 67
M  V30 73 1 28 68
M  V30 74 1 28 69
M  V30 75 1 29 70
M  V30 76 1 32 71
M  V30 77 1 32 72
M  V30 78 1 32 73
M  V30 79 1 36 74
M  V30 80 1 36 75
M  V30 81 1 38 76
M  V30 82 1 39 77
M  V30 83 1 42 78
M  V30 84 1 43 79
M  V30 END BOND
M  V30 END CTAB
M  END
>  <Dataset>  (417) 
ChEMBL_Kinases

>  <Ligand_Instance>  (417) 
nan

>  <PDB_ID>  (417) 
nan

>  <Standardized_SMILES>  (417) 
CC[C@@H]1c2nnc(C)n2-c2cnc(Nc3ccc(C(=O)NC4CCN(C)CC4)cc3OC)nc2N1Cc1ccc(Cl)cc1

>  <Name>  (417) 
nan

>  <Pocket>  (417) 
nan

>  <ATP_Site>  (417) 
nan

>  <Peripheral>  (417) 
nan

>  <Num_H_Atoms_ProtBoundConf>  (417) 
nan

>  <Num_Resolved_Atoms>  (417) 
nan

>  <Num_Not_Resolved_Atoms>  (417) 
nan

$$$$
CHEMBL4779919
     RDKit          3D

  0  0  0  0  0  0  0  0  0  0999 V3000
M  V30 BEGIN CTAB
M  V30 COUNTS 67 71 0 0 0
M  V30 BEGIN ATOM
M  V30 1 C 2.299009 -0.753033 3.563927 0
M  V30 2 C 2.737746 -1.307327 2.265233 0
M  V30 3 C 1.851790 -1.956277 1.445796 0
M  V30 4 C 2.291224 -2.462473 0.243460 0
M  V30 5 C 3.616084 -2.355474 -0.207400 0
M  V30 6 S 3.843109 -3.096512 -1.747951 0
M  V30 7 O 3.025370 -4.335460 -1.868498 0
M  V30 8 O 5.297274 -3.546699 -1.803781 0
M  V30 9 N 3.629639 -2.037727 -3.082101 0
M  V30 10 C 2.318303 -1.474142 -3.171384 0
M  V30 11 C 2.213846 -0.557461 -4.384047 0
M  V30 12 C 0.818944 0.047645 -4.473612 0
M  V30 13 N 0.491768 0.872822 -3.335419 0
M  V30 14 C 0.430918 0.964528 -1.922402 0
M  V30 15 N 1.448795 1.620904 -1.313427 0
M  V30 16 C 1.497301 1.754722 0.027305 0
M  V30 17 C 0.444761 1.177721 0.702182 0
M  V30 18 C -0.616940 0.499559 0.147233 0
M  V30 19 C -1.698649 -0.088419 0.933235 0
M  V30 20 N -1.755832 -1.454716 0.905808 0
M  V30 21 C -2.776345 -1.872279 1.659302 0
M  V30 22 C -3.224135 -3.248693 1.926669 0
M  V30 23 C -2.531110 -4.302194 1.325569 0
M  V30 24 C -2.931431 -5.594699 1.562421 0
M  V30 25 C -3.999842 -5.782021 2.384051 0
M  V30 26 C -4.695096 -4.767130 2.984794 0
M  V30 27 C -4.299888 -3.466326 2.752374 0
M  V30 28 N -3.345037 -0.759601 2.148578 0
M  V30 29 C -2.713506 0.342790 1.726151 0
M  V30 30 C -2.875907 1.769497 1.927529 0
M  V30 31 C -3.788830 2.634005 1.347751 0
M  V30 32 C -3.813301 3.977852 1.652499 0
M  V30 33 C -2.922295 4.519562 2.554360 0
M  V30 34 F -2.950116 5.843615 2.850686 0
M  V30 35 C -1.974982 3.705370 3.176655 0
M  V30 36 O -1.052221 4.194804 4.094045 0
M  V30 37 C -1.995238 2.368976 2.835044 0
M  V30 38 N -0.589623 0.409973 -1.209161 0
M  V30 39 C 4.471967 -1.697347 0.644431 0
M  V30 40 C 4.046310 -1.185911 1.849317 0
M  V30 41 H 2.545656 0.312615 3.685141 0
M  V30 42 H 1.202253 -0.946274 3.687214 0
M  V30 43 H 2.830505 -1.311478 4.364745 0
M  V30 44 H 0.839125 -2.032504 1.802432 0
M  V30 45 H 1.472491 -2.956763 -0.307728 0
M  V30 46 H 4.330989 -1.269447 -3.021610 0
M  V30 47 H 1.519248 -2.242180 -3.260950 0
M  V30 48 H 2.155238 -0.865358 -2.270668 0
M  V30 49 H 2.446592 -1.128721 -5.297385 0
M  V30 50 H 2.936269 0.277445 -4.292160 0
M  V30 51 H 0.052276 -0.760209 -4.576572 0
M  V30 52 H 0.812827 0.646834 -5.402146 0
M  V30 53 H 0.123764 1.847870 -3.565181 0
M  V30 54 H 2.297245 2.274681 0.536186 0
M  V30 55 H 0.500245 1.293845 1.786868 0
M  V30 56 H -1.163413 -2.187764 0.417778 0
M  V30 57 H -1.670901 -4.146363 0.663855 0
M  V30 58 H -2.411869 -6.421971 1.109972 0
M  V30 59 H -4.315432 -6.809433 2.570330 0
M  V30 60 H -5.546739 -4.964043 3.637247 0
M  V30 61 H -4.838153 -2.629936 3.221280 0
M  V30 62 H -4.461161 2.138774 0.645266 0
M  V30 63 H -4.564950 4.579515 1.148676 0
M  V30 64 H -0.333374 4.791478 3.717272 0
M  V30 65 H -1.246182 1.759257 3.339600 0
M  V30 66 H 5.478608 -1.660082 0.215894 0
M  V30 67 H 4.795771 -0.692424 2.432200 0
M  V30 END ATOM
M  V30 BEGIN BOND
M  V30 1 1 1 2
M  V30 2 2 2 3
M  V30 3 1 3 4
M  V30 4 2 4 5
M  V30 5 1 5 6
M  V30 6 2 6 7
M  V30 7 2 6 8
M  V30 8 1 6 9
M  V30 9 1 9 10
M  V30 10 1 10 11
M  V30 11 1 11 12
M  V30 12 1 12 13
M  V30 13 1 13 14
M  V30 14 2 14 15
M  V30 15 1 15 16
M  V30 16 2 16 17
M  V30 17 1 17 18
M  V30 18 1 18 19
M  V30 19 1 19 20
M  V30 20 1 20 21
M  V30 21 1 21 22
M  V30 22 2 22 23
M  V30 23 1 23 24
M  V30 24 2 24 25
M  V30 25 1 25 26
M  V30 26 2 26 27
M  V30 27 2 21 28
M  V30 28 1 28 29
M  V30 29 1 29 30
M  V30 30 2 30 31
M  V30 31 1 31 32
M  V30 32 2 32 33
M  V30 33 1 33 34
M  V30 34 1 33 35
M  V30 35 1 35 36
M  V30 36 2 35 37
M  V30 37 2 18 38
M  V30 38 1 5 39
M  V30 39 2 39 40
M  V30 40 1 40 2
M  V30 41 1 38 14
M  V30 42 2 29 19
M  V30 43 1 37 30
M  V30 44 1 27 22
M  V30 45 1 1 41
M  V30 46 1 1 42
M  V30 47 1 1 43
M  V30 48 1 3 44
M  V30 49 1 4 45
M  V30 50 1 9 46
M  V30 51 1 10 47
M  V30 52 1 10 48
M  V30 53 1 11 49
M  V30 54 1 11 50
M  V30 55 1 12 51
M  V30 56 1 12 52
M  V30 57 1 13 53
M  V30 58 1 16 54
M  V30 59 1 17 55
M  V30 60 1 20 56
M  V30 61 1 23 57
M  V30 62 1 24 58
M  V30 63 1 25 59
M  V30 64 1 26 60
M  V30 65 1 27 61
M  V30 66 1 31 62
M  V30 67 1 32 63
M  V30 68 1 36 64
M  V30 69 1 37 65
M  V30 70 1 39 66
M  V30 71 1 40 67
M  V30 END BOND
M  V30 END CTAB
M  END
>  <Dataset>  (418) 
ChEMBL_Kinases

>  <Ligand_Instance>  (418) 
nan

>  <PDB_ID>  (418) 
nan

>  <Standardized_SMILES>  (418) 
Cc1ccc(S(=O)(=O)NCCCNc2nccc(-c3[nH]c(-c4ccccc4)nc3-c3ccc(F)c(O)c3)n2)cc1

>  <Name>  (418) 
nan

>  <Pocket>  (418) 
nan

>  <ATP_Site>  (418) 
nan

>  <Peripheral>  (418) 
nan

>  <Num_H_Atoms_ProtBoundConf>  (418) 
nan

>  <Num_Resolved_Atoms>  (418) 
nan

>  <Num_Not_Resolved_Atoms>  (418) 
nan

$$$$
CHEMBL4780305
     RDKit          3D

  0  0  0  0  0  0  0  0  0  0999 V3000
M  V30 BEGIN CTAB
M  V30 COUNTS 68 72 0 0 0
M  V30 BEGIN ATOM
M  V30 1 C 5.399778 -5.453318 1.778864 0
M  V30 2 O 4.965876 -4.658567 0.677148 0
M  V30 3 C 3.822597 -3.897021 0.889019 0
M  V30 4 C 3.178713 -3.939691 2.110476 0
M  V30 5 C 2.037466 -3.188173 2.342628 0
M  V30 6 C 1.543849 -2.387954 1.333171 0
M  V30 7 C 2.139716 -2.300796 0.091057 0
M  V30 8 C 1.690598 -1.491157 -1.032501 0
M  V30 9 N 2.502956 -0.467050 -1.403560 0
M  V30 10 C 1.997770 0.205387 -2.433950 0
M  V30 11 C 2.541661 1.371632 -3.141735 0
M  V30 12 C 1.818812 1.899442 -4.193284 0
M  V30 13 C 2.325763 2.998873 -4.863774 0
M  V30 14 C 3.540238 3.564970 -4.488708 0
M  V30 15 C 4.253633 3.021105 -3.428835 0
M  V30 16 C 3.752339 1.922888 -2.755133 0
M  V30 17 N 0.831453 -0.384250 -2.749360 0
M  V30 18 C 0.612391 -1.430541 -1.907645 0
M  V30 19 C -0.442729 -2.410543 -1.762252 0
M  V30 20 C -0.528399 -3.334476 -2.815078 0
M  V30 21 C -1.525795 -4.281253 -2.708737 0
M  V30 22 N -2.389243 -4.360938 -1.684492 0
M  V30 23 C -2.323882 -3.478635 -0.658394 0
M  V30 24 N -3.221459 -3.566579 0.434371 0
M  V30 25 C -3.395161 -2.673766 1.561560 0
M  V30 26 C -3.986803 -1.376123 1.058894 0
M  V30 27 C -4.183654 -0.395863 2.219114 0
M  V30 28 N -4.749698 0.839918 1.753953 0
M  V30 29 S -4.974084 1.946660 3.047265 0
M  V30 30 O -5.852238 1.286729 4.085847 0
M  V30 31 O -5.688856 3.178709 2.613236 0
M  V30 32 C -3.475821 2.376667 3.824770 0
M  V30 33 C -2.836862 3.479777 3.270691 0
M  V30 34 Cl -3.483710 4.373766 1.896433 0
M  V30 35 C -1.644850 3.972576 3.744196 0
M  V30 36 C -1.033751 3.348938 4.830944 0
M  V30 37 C -1.663049 2.259645 5.379143 0
M  V30 38 C -2.856655 1.769047 4.902233 0
M  V30 39 Cl -3.726258 0.389327 5.541272 0
M  V30 40 C -1.349432 -2.529132 -0.730731 0
M  V30 41 C 3.277890 -3.075584 -0.081367 0
M  V30 42 H 6.246194 -6.099426 1.534818 0
M  V30 43 H 5.629494 -4.724272 2.592983 0
M  V30 44 H 4.575905 -6.106427 2.160398 0
M  V30 45 H 3.515264 -4.544690 2.934971 0
M  V30 46 H 1.529259 -3.217453 3.295308 0
M  V30 47 H 0.670259 -1.802390 1.495302 0
M  V30 48 H 0.868065 1.514901 -4.542089 0
M  V30 49 H 1.809362 3.454199 -5.689993 0
M  V30 50 H 3.910593 4.432989 -5.040077 0
M  V30 51 H 5.191280 3.501529 -3.181432 0
M  V30 52 H 4.329596 1.524481 -1.937421 0
M  V30 53 H 0.131282 -0.162278 -3.492906 0
M  V30 54 H 0.137095 -3.332406 -3.678132 0
M  V30 55 H -1.632607 -5.013979 -3.493423 0
M  V30 56 H -3.867611 -4.398544 0.445245 0
M  V30 57 H -2.372888 -2.407034 1.928921 0
M  V30 58 H -4.005173 -3.102526 2.354800 0
M  V30 59 H -4.991811 -1.561964 0.589541 0
M  V30 60 H -3.333902 -0.899039 0.333698 0
M  V30 61 H -3.190645 -0.157511 2.642600 0
M  V30 62 H -4.808897 -0.842878 3.016874 0
M  V30 63 H -4.255689 1.242438 0.944163 0
M  V30 64 H -1.121967 4.824836 3.339188 0
M  V30 65 H -0.093137 3.719916 5.221618 0
M  V30 66 H -1.237547 1.738229 6.219698 0
M  V30 67 H -1.191881 -1.789139 0.010041 0
M  V30 68 H 3.841774 -3.097069 -1.016680 0
M  V30 END ATOM
M  V30 BEGIN BOND
M  V30 1 1 1 2
M  V30 2 1 2 3
M  V30 3 2 3 4
M  V30 4 1 4 5
M  V30 5 2 5 6
M  V30 6 1 6 7
M  V30 7 1 7 8
M  V30 8 1 8 9
M  V30 9 2 9 10
M  V30 10 1 10 11
M  V30 11 2 11 12
M  V30 12 1 12 13
M  V30 13 2 13 14
M  V30 14 1 14 15
M  V30 15 2 15 16
M  V30 16 1 10 17
M  V30 17 1 17 18
M  V30 18 1 18 19
M  V30 19 2 19 20
M  V30 20 1 20 21
M  V30 21 2 21 22
M  V30 22 1 22 23
M  V30 23 1 23 24
M  V30 24 1 24 25
M  V30 25 1 25 26
M  V30 26 1 26 27
M  V30 27 1 27 28
M  V30 28 1 28 29
M  V30 29 2 29 30
M  V30 30 2 29 31
M  V30 31 1 29 32
M  V30 32 2 32 33
M  V30 33 1 33 34
M  V30 34 1 33 35
M  V30 35 2 35 36
M  V30 36 1 36 37
M  V30 37 2 37 38
M  V30 38 1 38 39
M  V30 39 2 23 40
M  V30 40 2 7 41
M  V30 41 1 41 3
M  V30 42 2 18 8
M  V30 43 1 40 19
M  V30 44 1 16 11
M  V30 45 1 38 32
M  V30 46 1 1 42
M  V30 47 1 1 43
M  V30 48 1 1 44
M  V30 49 1 4 45
M  V30 50 1 5 46
M  V30 51 1 6 47
M  V30 52 1 12 48
M  V30 53 1 13 49
M  V30 54 1 14 50
M  V30 55 1 15 51
M  V30 56 1 16 52
M  V30 57 1 17 53
M  V30 58 1 20 54
M  V30 59 1 21 55
M  V30 60 1 24 56
M  V30 61 1 25 57
M  V30 62 1 25 58
M  V30 63 1 26 59
M  V30 64 1 26 60
M  V30 65 1 27 61
M  V30 66 1 27 62
M  V30 67 1 28 63
M  V30 68 1 35 64
M  V30 69 1 36 65
M  V30 70 1 37 66
M  V30 71 1 40 67
M  V30 72 1 41 68
M  V30 END BOND
M  V30 END CTAB
M  END
>  <Dataset>  (419) 
ChEMBL_Kinases

>  <Ligand_Instance>  (419) 
nan

>  <PDB_ID>  (419) 
nan

>  <Standardized_SMILES>  (419) 
COc1cccc(-c2nc(-c3ccccc3)[nH]c2-c2ccnc(NCCCNS(=O)(=O)c3c(Cl)cccc3Cl)c2)c1

>  <Name>  (419) 
nan

>  <Pocket>  (419) 
nan

>  <ATP_Site>  (419) 
nan

>  <Peripheral>  (419) 
nan

>  <Num_H_Atoms_ProtBoundConf>  (419) 
nan

>  <Num_Resolved_Atoms>  (419) 
nan

>  <Num_Not_Resolved_Atoms>  (419) 
nan

$$$$
CHEMBL4780033
     RDKit          3D

  0  0  0  0  0  0  0  0  0  0999 V3000
M  V30 BEGIN CTAB
M  V30 COUNTS 95 101 0 0 0
M  V30 BEGIN ATOM
M  V30 1 N 3.438815 -6.551972 -1.563393 0
M  V30 2 C 3.659557 -6.185206 -0.218165 0
M  V30 3 C 4.111596 -5.055929 0.400518 0
M  V30 4 C 4.504742 -3.855781 -0.337595 0
M  V30 5 O 4.461450 -3.768527 -1.586407 0
M  V30 6 N 4.956151 -2.740476 0.412210 0
M  V30 7 C 5.399463 -1.445804 -0.058779 0
M  V30 8 C 4.240825 -0.595384 -0.471931 0
M  V30 9 C 3.643435 0.061627 0.595721 0
M  V30 10 C 2.556862 0.875921 0.283214 0
M  V30 11 C 2.081957 1.041120 -0.983993 0
M  V30 12 C 0.927510 1.843730 -1.359186 0
M  V30 13 O 0.663030 2.116855 -2.573932 0
M  V30 14 N 0.015290 2.372623 -0.398152 0
M  V30 15 C -1.200344 3.193168 -0.557926 0 CFG=1
M  V30 16 C -0.824267 4.447032 -1.346970 0
M  V30 17 C -2.007422 5.321855 -1.565838 0
M  V30 18 C -1.672856 6.653909 -2.254016 0
M  V30 19 C -3.035620 7.346529 -2.409653 0
M  V30 20 C -3.758722 7.512182 -1.113212 0
M  V30 21 C -2.890650 8.057757 -0.019076 0
M  V30 22 C -1.547246 8.523164 -0.557702 0
M  V30 23 C -0.806957 7.442677 -1.307417 0
M  V30 24 C -2.375290 2.486013 -0.974785 0
M  V30 25 O -3.374382 3.277918 -0.826638 0
M  V30 26 N -2.799077 1.200119 -1.497166 0
M  V30 27 C -2.037652 -0.003764 -1.836730 0
M  V30 28 C -2.873335 -1.240694 -1.662799 0
M  V30 29 N -3.798751 -1.137351 -0.566328 0
M  V30 30 C -3.719297 -1.924499 0.607502 0
M  V30 31 N -4.486185 -1.907220 1.725977 0
M  V30 32 C -4.025331 -2.842434 2.572189 0
M  V30 33 C -4.297696 -3.363388 3.836294 0
M  V30 34 C -3.536675 -4.392173 4.387389 0
M  V30 35 C -2.472599 -4.932478 3.682966 0
M  V30 36 C -2.164941 -4.446293 2.424171 0
M  V30 37 C -2.952417 -3.432795 1.936535 0
M  V30 38 O -2.795853 -2.859946 0.761662 0
M  V30 39 C -4.766525 -0.137577 -0.894809 0
M  V30 40 C -4.230496 0.980079 -1.765652 0
M  V30 41 C 2.717122 0.360823 -2.021754 0
M  V30 42 C 3.804066 -0.465377 -1.774248 0
M  V30 43 C 4.136908 -5.225090 1.766686 0
M  V30 44 N 3.688541 -6.489738 1.970527 0
M  V30 45 N 3.415911 -7.033176 0.805599 0
M  V30 46 C 2.937755 -8.365321 0.927470 0
M  V30 47 C 1.570821 -8.432405 1.088620 0
M  V30 48 C 0.948096 -9.672399 1.231561 0
M  V30 49 C 1.690161 -10.837384 1.213085 0
M  V30 50 C 3.074101 -10.764397 1.049486 0
M  V30 51 C 3.697896 -9.535178 0.907043 0
M  V30 52 H 2.512769 -6.573889 -2.066779 0
M  V30 53 H 4.231803 -6.850349 -2.203993 0
M  V30 54 H 4.985304 -2.825659 1.466360 0
M  V30 55 H 6.031689 -0.924542 0.665870 0
M  V30 56 H 6.056858 -1.659657 -0.950846 0
M  V30 57 H 3.971565 -0.024870 1.625336 0
M  V30 58 H 2.085030 1.392729 1.102085 0
M  V30 59 H 0.297633 2.098322 0.592283 0
M  V30 60 H -1.370522 3.619775 0.485370 0
M  V30 61 H 0.027024 4.937861 -0.887519 0
M  V30 62 H -0.516165 4.098149 -2.388830 0
M  V30 63 H -2.522063 5.577273 -0.628040 0
M  V30 64 H -2.778246 4.801111 -2.214926 0
M  V30 65 H -1.263630 6.499881 -3.248788 0
M  V30 66 H -2.930553 8.315630 -2.943833 0
M  V30 67 H -3.634693 6.673798 -3.064074 0
M  V30 68 H -4.599923 8.229453 -1.326354 0
M  V30 69 H -4.244204 6.594400 -0.763504 0
M  V30 70 H -3.373200 9.001318 0.372880 0
M  V30 71 H -2.789023 7.412881 0.867139 0
M  V30 72 H -1.630059 9.469274 -1.099849 0
M  V30 73 H -0.929474 8.752876 0.360569 0
M  V30 74 H -0.230465 6.846215 -0.589085 0
M  V30 75 H -0.044187 7.969630 -1.936713 0
M  V30 76 H -1.102429 -0.112763 -1.300276 0
M  V30 77 H -1.798622 0.088012 -2.932704 0
M  V30 78 H -3.337855 -1.519793 -2.628610 0
M  V30 79 H -2.173478 -2.088691 -1.428843 0
M  V30 80 H -5.134319 -2.914924 4.351093 0
M  V30 81 H -3.767384 -4.780762 5.367794 0
M  V30 82 H -1.916581 -5.733547 4.167013 0
M  V30 83 H -1.344200 -4.878887 1.906025 0
M  V30 84 H -5.267004 0.312960 -0.015663 0
M  V30 85 H -5.581693 -0.675936 -1.466576 0
M  V30 86 H -4.809414 1.903615 -1.671822 0
M  V30 87 H -4.287891 0.681803 -2.832960 0
M  V30 88 H 2.377956 0.456870 -3.065550 0
M  V30 89 H 4.317766 -1.004363 -2.549840 0
M  V30 90 H 4.450089 -4.502139 2.522776 0
M  V30 91 H 0.846495 -7.641648 1.126144 0
M  V30 92 H -0.124544 -9.816849 1.362969 0
M  V30 93 H 1.314595 -11.831189 1.314316 0
M  V30 94 H 3.725756 -11.638920 1.026151 0
M  V30 95 H 4.753473 -9.377389 0.776549 0
M  V30 END ATOM
M  V30 BEGIN BOND
M  V30 1 1 1 2
M  V30 2 2 2 3
M  V30 3 1 3 4
M  V30 4 2 4 5
M  V30 5 1 4 6
M  V30 6 1 6 7
M  V30 7 1 7 8
M  V30 8 2 8 9
M  V30 9 1 9 10
M  V30 10 2 10 11
M  V30 11 1 11 12
M  V30 12 2 12 13
M  V30 13 1 12 14
M  V30 14 1 14 15
M  V30 15 1 15 16
M  V30 16 1 16 17
M  V30 17 1 17 18
M  V30 18 1 18 19
M  V30 19 1 19 20
M  V30 20 1 20 21
M  V30 21 1 21 22
M  V30 22 1 22 23
M  V30 23 1 15 24
M  V30 24 2 24 25
M  V30 25 1 24 26
M  V30 26 1 26 27
M  V30 27 1 27 28
M  V30 28 1 28 29
M  V30 29 1 29 30
M  V30 30 2 30 31
M  V30 31 1 31 32
M  V30 32 2 32 33
M  V30 33 1 33 34
M  V30 34 2 34 35
M  V30 35 1 35 36
M  V30 36 2 36 37
M  V30 37 1 37 38
M  V30 38 1 29 39
M  V30 39 1 39 40
M  V30 40 1 11 41
M  V30 41 2 41 42
M  V30 42 1 3 43
M  V30 43 2 43 44
M  V30 44 1 44 45
M  V30 45 1 45 46
M  V30 46 2 46 47
M  V30 47 1 47 48
M  V30 48 2 48 49
M  V30 49 1 49 50
M  V30 50 2 50 51
M  V30 51 1 45 2
M  V30 52 1 51 46
M  V30 53 1 42 8
M  V30 54 1 23 18
M  V30 55 1 40 26
M  V30 56 1 38 30
M  V30 57 1 37 32
M  V30 58 1 1 52
M  V30 59 1 1 53
M  V30 60 1 6 54
M  V30 61 1 7 55
M  V30 62 1 7 56
M  V30 63 1 9 57
M  V30 64 1 10 58
M  V30 65 1 14 59
M  V30 66 1 15 60 CFG=1
M  V30 67 1 16 61
M  V30 68 1 16 62
M  V30 69 1 17 63
M  V30 70 1 17 64
M  V30 71 1 18 65
M  V30 72 1 19 66
M  V30 73 1 19 67
M  V30 74 1 20 68
M  V30 75 1 20 69
M  V30 76 1 21 70
M  V30 77 1 21 71
M  V30 78 1 22 72
M  V30 79 1 22 73
M  V30 80 1 23 74
M  V30 81 1 23 75
M  V30 82 1 27 76
M  V30 83 1 27 77
M  V30 84 1 28 78
M  V30 85 1 28 79
M  V30 86 1 33 80
M  V30 87 1 34 81
M  V30 88 1 35 82
M  V30 89 1 36 83
M  V30 90 1 39 84
M  V30 91 1 39 85
M  V30 92 1 40 86
M  V30 93 1 40 87
M  V30 94 1 41 88
M  V30 95 1 42 89
M  V30 96 1 43 90
M  V30 97 1 47 91
M  V30 98 1 48 92
M  V30 99 1 49 93
M  V30 100 1 50 94
M  V30 101 1 51 95
M  V30 END BOND
M  V30 END CTAB
M  END
>  <Dataset>  (420) 
ChEMBL_Kinases

>  <Ligand_Instance>  (420) 
nan

>  <PDB_ID>  (420) 
nan

>  <Standardized_SMILES>  (420) 
Nc1c(C(=O)NCc2ccc(C(=O)N[C@@H](CCC3CCCCC3)C(=O)N3CCN(c4nc5ccccc5o4)CC3)cc2)cnn1-c1ccccc1

>  <Name>  (420) 
nan

>  <Pocket>  (420) 
nan

>  <ATP_Site>  (420) 
nan

>  <Peripheral>  (420) 
nan

>  <Num_H_Atoms_ProtBoundConf>  (420) 
nan

>  <Num_Resolved_Atoms>  (420) 
nan

>  <Num_Not_Resolved_Atoms>  (420) 
nan

$$$$
CHEMBL4780060
     RDKit          3D

  0  0  0  0  0  0  0  0  0  0999 V3000
M  V30 BEGIN CTAB
M  V30 COUNTS 59 61 0 0 0
M  V30 BEGIN ATOM
M  V30 1 C 3.112619 -3.389321 -1.725735 0
M  V30 2 C 2.540601 -2.397349 -0.783750 0
M  V30 3 C 3.337157 -1.912797 0.247668 0
M  V30 4 C 2.778175 -0.989731 1.110052 0
M  V30 5 F 3.645795 -0.576846 2.089201 0
M  V30 6 C 1.464651 -0.546748 0.968931 0
M  V30 7 N 1.122337 0.400127 1.976229 0
M  V30 8 C 1.292539 1.828611 1.867509 0
M  V30 9 O 1.792316 2.143518 0.747493 0
M  V30 10 N 0.955397 2.784754 2.864293 0
M  V30 11 C 1.285759 4.093539 2.351722 0
M  V30 12 C 0.964803 5.182716 3.313808 0
M  V30 13 C -0.457951 5.344746 3.706232 0
M  V30 14 C -0.549182 6.529478 4.691227 0
M  V30 15 C -1.047330 4.181915 4.467699 0
M  V30 16 C -1.376928 5.631227 2.546778 0
M  V30 17 C 0.689434 -1.040392 -0.062577 0
M  V30 18 C 1.236933 -1.964074 -0.931828 0
M  V30 19 N 0.393652 -2.428102 -1.962303 0
M  V30 20 C -0.143939 -3.656802 -2.408144 0
M  V30 21 C 0.159948 -4.082337 -3.699009 0
M  V30 22 C -0.291733 -5.255397 -4.267438 0
M  V30 23 C -1.100418 -6.020828 -3.446487 0
M  V30 24 N -1.581526 -7.180020 -3.927559 0
M  V30 25 C -2.383465 -7.989748 -3.183263 0
M  V30 26 N -2.710679 -7.616732 -1.910649 0
M  V30 27 C -3.574772 -8.555193 -1.199522 0
M  V30 28 C -2.243917 -6.448586 -1.383976 0
M  V30 29 O -2.582291 -6.170200 -0.215839 0
M  V30 30 C -1.438265 -5.654853 -2.158915 0
M  V30 31 C -0.952802 -4.464489 -1.644988 0
M  V30 32 F -1.269889 -4.084399 -0.386128 0
M  V30 33 H 4.233707 -3.253541 -1.753174 0
M  V30 34 H 2.788497 -3.295725 -2.759897 0
M  V30 35 H 2.986944 -4.432334 -1.383757 0
M  V30 36 H 4.352773 -2.278204 0.328024 0
M  V30 37 H 0.706975 0.054790 2.890113 0
M  V30 38 H 0.573614 2.275900 3.678110 0
M  V30 39 H 2.332029 4.132245 1.980729 0
M  V30 40 H 0.662238 4.229145 1.416863 0
M  V30 41 H 1.355973 6.159336 2.923009 0
M  V30 42 H 1.537505 5.045692 4.282386 0
M  V30 43 H -1.616015 6.842011 4.755154 0
M  V30 44 H -0.258277 6.187631 5.696866 0
M  V30 45 H 0.118125 7.356748 4.389198 0
M  V30 46 H -1.476329 3.438149 3.762389 0
M  V30 47 H -1.973403 4.607359 4.975378 0
M  V30 48 H -0.397615 3.761917 5.234635 0
M  V30 49 H -1.842727 4.672964 2.218730 0
M  V30 50 H -2.184551 6.293739 2.897975 0
M  V30 51 H -0.872808 6.146279 1.706766 0
M  V30 52 H -0.310966 -0.629189 -0.077352 0
M  V30 53 H 0.054625 -1.652996 -2.594187 0
M  V30 54 H 0.798642 -3.451918 -4.311712 0
M  V30 55 H -0.018591 -5.529055 -5.277797 0
M  V30 56 H -2.756682 -8.926688 -3.608387 0
M  V30 57 H -2.913076 -9.436054 -0.952078 0
M  V30 58 H -4.404732 -8.889793 -1.834081 0
M  V30 59 H -3.874037 -8.139031 -0.225089 0
M  V30 END ATOM
M  V30 BEGIN BOND
M  V30 1 1 1 2
M  V30 2 2 2 3
M  V30 3 1 3 4
M  V30 4 1 4 5
M  V30 5 2 4 6
M  V30 6 1 6 7
M  V30 7 1 7 8
M  V30 8 2 8 9
M  V30 9 1 8 10
M  V30 10 1 10 11
M  V30 11 1 11 12
M  V30 12 1 12 13
M  V30 13 1 13 14
M  V30 14 1 13 15
M  V30 15 1 13 16
M  V30 16 1 6 17
M  V30 17 2 17 18
M  V30 18 1 18 19
M  V30 19 1 19 20
M  V30 20 2 20 21
M  V30 21 1 21 22
M  V30 22 2 22 23
M  V30 23 1 23 24
M  V30 24 2 24 25
M  V30 25 1 25 26
M  V30 26 1 26 27
M  V30 27 1 26 28
M  V30 28 2 28 29
M  V30 29 1 28 30
M  V30 30 2 30 31
M  V30 31 1 31 32
M  V30 32 1 18 2
M  V30 33 1 31 20
M  V30 34 1 30 23
M  V30 35 1 1 33
M  V30 36 1 1 34
M  V30 37 1 1 35
M  V30 38 1 3 36
M  V30 39 1 7 37
M  V30 40 1 10 38
M  V30 41 1 11 39
M  V30 42 1 11 40
M  V30 43 1 12 41
M  V30 44 1 12 42
M  V30 45 1 14 43
M  V30 46 1 14 44
M  V30 47 1 14 45
M  V30 48 1 15 46
M  V30 49 1 15 47
M  V30 50 1 15 48
M  V30 51 1 16 49
M  V30 52 1 16 50
M  V30 53 1 16 51
M  V30 54 1 17 52
M  V30 55 1 19 53
M  V30 56 1 21 54
M  V30 57 1 22 55
M  V30 58 1 25 56
M  V30 59 1 27 57
M  V30 60 1 27 58
M  V30 61 1 27 59
M  V30 END BOND
M  V30 END CTAB
M  END
>  <Dataset>  (421) 
ChEMBL_Kinases

>  <Ligand_Instance>  (421) 
nan

>  <PDB_ID>  (421) 
nan

>  <Standardized_SMILES>  (421) 
Cc1cc(F)c(NC(=O)NCCC(C)(C)C)cc1Nc1ccc2ncn(C)c(=O)c2c1F

>  <Name>  (421) 
nan

>  <Pocket>  (421) 
nan

>  <ATP_Site>  (421) 
nan

>  <Peripheral>  (421) 
nan

>  <Num_H_Atoms_ProtBoundConf>  (421) 
nan

>  <Num_Resolved_Atoms>  (421) 
nan

>  <Num_Not_Resolved_Atoms>  (421) 
nan

$$$$
CHEMBL4780092
     RDKit          3D

  0  0  0  0  0  0  0  0  0  0999 V3000
M  V30 BEGIN CTAB
M  V30 COUNTS 82 86 0 0 0
M  V30 BEGIN ATOM
M  V30 1 C 8.712019 -0.347577 5.604910 0
M  V30 2 C 7.674558 0.614458 5.129666 0
M  V30 3 O 6.550188 0.132775 4.878468 0
M  V30 4 N 7.899815 1.999851 4.957189 0
M  V30 5 C 7.003538 2.987372 4.519039 0
M  V30 6 C 7.434950 4.284972 4.432914 0
M  V30 7 C 6.653243 5.335069 4.017801 0
M  V30 8 C 5.326512 5.105487 3.650826 0
M  V30 9 O 4.487302 6.125903 3.221696 0
M  V30 10 C 3.160199 5.902638 2.884280 0
M  V30 11 C 2.992136 5.514424 1.549364 0
M  V30 12 C 1.747420 5.248122 1.029239 0
M  V30 13 C 0.624761 5.358971 1.821751 0
M  V30 14 C -0.736049 5.056753 1.319880 0
M  V30 15 C -0.842086 3.960095 0.597574 0
M  V30 16 S 0.433750 2.756647 0.123175 0
M  V30 17 C -0.753508 1.372677 0.056373 0
M  V30 18 O -0.125260 0.331290 0.335212 0
M  V30 19 N -1.987624 2.037883 -0.302273 0
M  V30 20 C -2.856126 1.051000 -0.862230 0
M  V30 21 C -3.671897 0.507970 0.124761 0
M  V30 22 C -4.565298 -0.478089 -0.227657 0
M  V30 23 C -4.698252 -0.961037 -1.509201 0
M  V30 24 O -5.459179 -1.892815 -2.131787 0
M  V30 25 C -6.433672 -2.739507 -1.651228 0
M  V30 26 C -6.083539 -3.734964 -0.615637 0
M  V30 27 C -5.074238 -4.761878 -1.017043 0
M  V30 28 C -3.748183 -4.199554 -1.428787 0
M  V30 29 C -2.769695 -5.315935 -1.753291 0
M  V30 30 N -3.156491 -6.179897 -2.805603 0
M  V30 31 C -3.168594 -5.597752 -4.112762 0
M  V30 32 C -1.816068 -5.043541 -4.512829 0
M  V30 33 N -0.784214 -5.774182 -3.805557 0
M  V30 34 C 0.521928 -5.655723 -4.405213 0
M  V30 35 C -1.103177 -7.189500 -3.717312 0
M  V30 36 C -2.285901 -7.333739 -2.813530 0
M  V30 37 C -3.857759 -0.387441 -2.478073 0
M  V30 38 C -2.935153 0.616335 -2.168946 0
M  V30 39 C -2.016817 3.404399 -0.010116 0
M  V30 40 O -3.088546 4.035787 -0.310989 0
M  V30 41 C 0.770153 5.744796 3.154954 0
M  V30 42 C 2.023530 6.012359 3.676234 0
M  V30 43 C 4.830606 3.813743 3.716504 0
M  V30 44 C 5.694825 2.830118 4.145907 0
M  V30 45 H 9.734841 -0.007839 5.271695 0
M  V30 46 H 8.537878 -1.364912 5.178162 0
M  V30 47 H 8.749830 -0.371825 6.713858 0
M  V30 48 H 8.872814 2.255897 5.202716 0
M  V30 49 H 8.469655 4.536088 4.707048 0
M  V30 50 H 7.058128 6.326774 3.975249 0
M  V30 51 H 3.839799 5.403982 0.853892 0
M  V30 52 H 1.653581 4.956097 -0.006526 0
M  V30 53 H -1.631823 5.649320 1.493975 0
M  V30 54 H -3.696850 0.767574 1.169654 0
M  V30 55 H -5.249688 -0.967154 0.439984 0
M  V30 56 H -7.307904 -2.097986 -1.303931 0
M  V30 57 H -6.894659 -3.296856 -2.536269 0
M  V30 58 H -7.047097 -4.291606 -0.347952 0
M  V30 59 H -5.727439 -3.251797 0.342987 0
M  V30 60 H -5.516027 -5.403363 -1.840544 0
M  V30 61 H -4.914559 -5.516470 -0.186454 0
M  V30 62 H -3.832818 -3.504475 -2.293689 0
M  V30 63 H -3.324077 -3.629812 -0.590548 0
M  V30 64 H -2.685719 -5.933573 -0.827250 0
M  V30 65 H -1.773460 -4.827706 -1.864060 0
M  V30 66 H -3.391093 -6.428913 -4.820097 0
M  V30 67 H -3.992010 -4.859721 -4.254570 0
M  V30 68 H -1.673804 -5.227627 -5.593182 0
M  V30 69 H -1.747783 -3.953744 -4.343822 0
M  V30 70 H 1.317933 -5.329608 -3.707663 0
M  V30 71 H 0.864807 -6.623913 -4.848967 0
M  V30 72 H 0.521792 -4.915380 -5.229333 0
M  V30 73 H -1.265074 -7.634170 -4.722973 0
M  V30 74 H -0.247992 -7.713576 -3.263603 0
M  V30 75 H -2.869304 -8.262900 -3.059339 0
M  V30 76 H -1.892305 -7.453889 -1.762057 0
M  V30 77 H -3.776859 -0.599260 -3.551857 0
M  V30 78 H -2.254320 1.111779 -2.840252 0
M  V30 79 H -0.075994 5.849265 3.827954 0
M  V30 80 H 2.255816 6.311987 4.670717 0
M  V30 81 H 3.823180 3.638394 3.438754 0
M  V30 82 H 5.258118 1.852995 4.174363 0
M  V30 END ATOM
M  V30 BEGIN BOND
M  V30 1 1 1 2
M  V30 2 2 2 3
M  V30 3 1 2 4
M  V30 4 1 4 5
M  V30 5 2 5 6
M  V30 6 1 6 7
M  V30 7 2 7 8
M  V30 8 1 8 9
M  V30 9 1 9 10
M  V30 10 2 10 11
M  V30 11 1 11 12
M  V30 12 2 12 13
M  V30 13 1 13 14
M  V30 14 2 14 15
M  V30 15 1 15 16
M  V30 16 1 16 17
M  V30 17 2 17 18
M  V30 18 1 17 19
M  V30 19 1 19 20
M  V30 20 2 20 21
M  V30 21 1 21 22
M  V30 22 2 22 23
M  V30 23 1 23 24
M  V30 24 1 24 25
M  V30 25 1 25 26
M  V30 26 1 26 27
M  V30 27 1 27 28
M  V30 28 1 28 29
M  V30 29 1 29 30
M  V30 30 1 30 31
M  V30 31 1 31 32
M  V30 32 1 32 33
M  V30 33 1 33 34
M  V30 34 1 33 35
M  V30 35 1 35 36
M  V30 36 1 23 37
M  V30 37 2 37 38
M  V30 38 1 19 39
M  V30 39 2 39 40
M  V30 40 1 13 41
M  V30 41 2 41 42
M  V30 42 1 8 43
M  V30 43 2 43 44
M  V30 44 1 44 5
M  V30 45 1 42 10
M  V30 46 1 39 15
M  V30 47 1 38 20
M  V30 48 1 36 30
M  V30 49 1 1 45
M  V30 50 1 1 46
M  V30 51 1 1 47
M  V30 52 1 4 48
M  V30 53 1 6 49
M  V30 54 1 7 50
M  V30 55 1 11 51
M  V30 56 1 12 52
M  V30 57 1 14 53
M  V30 58 1 21 54
M  V30 59 1 22 55
M  V30 60 1 25 56
M  V30 61 1 25 57
M  V30 62 1 26 58
M  V30 63 1 26 59
M  V30 64 1 27 60
M  V30 65 1 27 61
M  V30 66 1 28 62
M  V30 67 1 28 63
M  V30 68 1 29 64
M  V30 69 1 29 65
M  V30 70 1 31 66
M  V30 71 1 31 67
M  V30 72 1 32 68
M  V30 73 1 32 69
M  V30 74 1 34 70
M  V30 75 1 34 71
M  V30 76 1 34 72
M  V30 77 1 35 73
M  V30 78 1 35 74
M  V30 79 1 36 75
M  V30 80 1 36 76
M  V30 81 1 37 77
M  V30 82 1 38 78
M  V30 83 1 41 79
M  V30 84 1 42 80
M  V30 85 1 43 81
M  V30 86 1 44 82
M  V30 END BOND
M  V30 END CTAB
M  END
>  <Dataset>  (422) 
ChEMBL_Kinases

>  <Ligand_Instance>  (422) 
nan

>  <PDB_ID>  (422) 
nan

>  <Standardized_SMILES>  (422) 
CC(=O)Nc1ccc(Oc2ccc(/C=C3\SC(=O)N(c4ccc(OCCCCCN5CCN(C)CC5)cc4)C3=O)cc2)cc1

>  <Name>  (422) 
nan

>  <Pocket>  (422) 
nan

>  <ATP_Site>  (422) 
nan

>  <Peripheral>  (422) 
nan

>  <Num_H_Atoms_ProtBoundConf>  (422) 
nan

>  <Num_Resolved_Atoms>  (422) 
nan

>  <Num_Not_Resolved_Atoms>  (422) 
nan

$$$$
CHEMBL4780095
     RDKit          3D

  0  0  0  0  0  0  0  0  0  0999 V3000
M  V30 BEGIN CTAB
M  V30 COUNTS 57 61 0 0 0
M  V30 BEGIN ATOM
M  V30 1 C 6.607031 -0.656572 5.312387 0
M  V30 2 N 5.801548 -0.739769 4.102369 0
M  V30 3 C 5.252832 0.283286 3.438420 0
M  V30 4 C 4.550497 -0.163481 2.326963 0
M  V30 5 C 3.790046 0.537813 1.294668 0
M  V30 6 C 2.716048 -0.126279 0.741854 0
M  V30 7 C 1.987065 0.512461 -0.234908 0
M  V30 8 C 2.243017 1.769756 -0.709939 0
M  V30 9 C 1.460004 2.352740 -1.708611 0
M  V30 10 N 0.387441 1.547396 -2.175712 0
M  V30 11 C -0.932547 1.642210 -1.656793 0
M  V30 12 C -1.275957 2.611936 -0.738729 0
M  V30 13 C -2.570128 2.651426 -0.272006 0
M  V30 14 C -3.538461 1.759910 -0.685179 0
M  V30 15 C -3.198839 0.793287 -1.599143 0
M  V30 16 N -4.102774 -0.204452 -2.117498 0
M  V30 17 C -4.089468 -1.385483 -1.285464 0
M  V30 18 O -3.359136 -1.468133 -0.251869 0
M  V30 19 N -4.866501 -2.562018 -1.513699 0
M  V30 20 C -4.753599 -3.664175 -0.595805 0
M  V30 21 C -5.633664 -3.646845 0.467118 0
M  V30 22 C -5.592288 -4.665246 1.396260 0
M  V30 23 C -4.678997 -5.699721 1.271294 0
M  V30 24 C -3.810061 -5.667179 0.174353 0
M  V30 25 C -2.837355 -6.811754 0.088910 0
M  V30 26 F -2.342312 -7.048115 1.356615 0
M  V30 27 F -1.819589 -6.389787 -0.743467 0
M  V30 28 F -3.490314 -7.894586 -0.435829 0
M  V30 29 C -3.815000 -4.671173 -0.778137 0
M  V30 30 C -1.891166 0.745568 -2.077336 0
M  V30 31 N 1.823402 3.594671 -2.089387 0
M  V30 32 C 2.876499 4.227300 -1.537010 0
M  V30 33 N 3.635437 3.655781 -0.565305 0
M  V30 34 C 3.316152 2.409324 -0.144138 0
M  V30 35 C 4.095733 1.817266 0.850208 0
M  V30 36 C 4.724231 -1.548350 2.379394 0
M  V30 37 N 5.465055 -1.838493 3.438418 0
M  V30 38 H 6.705088 -1.694606 5.712719 0
M  V30 39 H 7.603062 -0.213365 5.127417 0
M  V30 40 H 6.042262 -0.107904 6.115638 0
M  V30 41 H 5.296413 1.349858 3.661798 0
M  V30 42 H 2.457626 -1.117820 1.067919 0
M  V30 43 H 1.152555 -0.044857 -0.640655 0
M  V30 44 H 0.607894 0.867082 -2.931868 0
M  V30 45 H -0.553596 3.336886 -0.380720 0
M  V30 46 H -2.894007 3.396248 0.451951 0
M  V30 47 H -4.565049 1.762868 -0.337673 0
M  V30 48 H -4.740029 -0.242389 -2.941424 0
M  V30 49 H -5.493299 -2.547108 -2.367713 0
M  V30 50 H -6.355313 -2.850411 0.585173 0
M  V30 51 H -6.302185 -4.617683 2.219715 0
M  V30 52 H -4.637910 -6.504744 1.995325 0
M  V30 53 H -3.137214 -4.663041 -1.617319 0
M  V30 54 H -1.606637 -0.013282 -2.799765 0
M  V30 55 H 3.094503 5.225717 -1.905033 0
M  V30 56 H 4.948220 2.331069 1.296753 0
M  V30 57 H 4.305749 -2.226790 1.655586 0
M  V30 END ATOM
M  V30 BEGIN BOND
M  V30 1 1 1 2
M  V30 2 1 2 3
M  V30 3 2 3 4
M  V30 4 1 4 5
M  V30 5 2 5 6
M  V30 6 1 6 7
M  V30 7 2 7 8
M  V30 8 1 8 9
M  V30 9 1 9 10
M  V30 10 1 10 11
M  V30 11 2 11 12
M  V30 12 1 12 13
M  V30 13 2 13 14
M  V30 14 1 14 15
M  V30 15 1 15 16
M  V30 16 1 16 17
M  V30 17 2 17 18
M  V30 18 1 17 19
M  V30 19 1 19 20
M  V30 20 2 20 21
M  V30 21 1 21 22
M  V30 22 2 22 23
M  V30 23 1 23 24
M  V30 24 1 24 25
M  V30 25 1 25 26
M  V30 26 1 25 27
M  V30 27 1 25 28
M  V30 28 2 24 29
M  V30 29 2 15 30
M  V30 30 2 9 31
M  V30 31 1 31 32
M  V30 32 2 32 33
M  V30 33 1 33 34
M  V30 34 2 34 35
M  V30 35 1 4 36
M  V30 36 2 36 37
M  V30 37 1 37 2
M  V30 38 1 35 5
M  V30 39 1 34 8
M  V30 40 1 30 11
M  V30 41 1 29 20
M  V30 42 1 1 38
M  V30 43 1 1 39
M  V30 44 1 1 40
M  V30 45 1 3 41
M  V30 46 1 6 42
M  V30 47 1 7 43
M  V30 48 1 10 44
M  V30 49 1 12 45
M  V30 50 1 13 46
M  V30 51 1 14 47
M  V30 52 1 16 48
M  V30 53 1 19 49
M  V30 54 1 21 50
M  V30 55 1 22 51
M  V30 56 1 23 52
M  V30 57 1 29 53
M  V30 58 1 30 54
M  V30 59 1 32 55
M  V30 60 1 35 56
M  V30 61 1 36 57
M  V30 END BOND
M  V30 END CTAB
M  END
>  <Dataset>  (423) 
ChEMBL_Kinases

>  <Ligand_Instance>  (423) 
nan

>  <PDB_ID>  (423) 
nan

>  <Standardized_SMILES>  (423) 
Cn1cc(-c2ccc3c(Nc4cccc(NC(=O)Nc5cccc(C(F)(F)F)c5)c4)ncnc3c2)cn1

>  <Name>  (423) 
nan

>  <Pocket>  (423) 
nan

>  <ATP_Site>  (423) 
nan

>  <Peripheral>  (423) 
nan

>  <Num_H_Atoms_ProtBoundConf>  (423) 
nan

>  <Num_Resolved_Atoms>  (423) 
nan

>  <Num_Not_Resolved_Atoms>  (423) 
nan

$$$$
CHEMBL4780101
     RDKit          3D

  0  0  0  0  0  0  0  0  0  0999 V3000
M  V30 BEGIN CTAB
M  V30 COUNTS 34 36 0 0 0
M  V30 BEGIN ATOM
M  V30 1 N 1.666142 -2.549059 3.664401 0
M  V30 2 C 1.605109 -3.421267 2.551496 0
M  V30 3 C 2.100339 -4.697284 2.778175 0
M  V30 4 C 2.075110 -5.597426 1.749424 0
M  V30 5 C 1.562324 -5.209973 0.530542 0
M  V30 6 C 1.085451 -3.929684 0.366618 0
M  V30 7 C 1.081199 -2.975409 1.358871 0
M  V30 8 C 0.564579 -1.637488 1.129544 0
M  V30 9 O 0.695295 -1.015096 2.200263 0
M  V30 10 C 0.043066 -1.312979 -0.183333 0
M  V30 11 C -0.458522 -0.154660 -0.554239 0
M  V30 12 N -0.516876 0.908583 0.381134 0
M  V30 13 C -1.023760 2.189785 0.122858 0
M  V30 14 C -1.063469 3.207118 1.069023 0
M  V30 15 C -1.589879 4.444671 0.702783 0
M  V30 16 C -2.072635 4.694746 -0.565641 0
M  V30 17 C -2.042620 3.700128 -1.518634 0
M  V30 18 C -1.521345 2.478189 -1.152234 0
M  V30 19 N -1.507048 1.463306 -2.176450 0
M  V30 20 C -0.978187 0.156552 -1.875357 0
M  V30 21 O -0.939538 -0.778811 -2.738483 0
M  V30 22 H 0.851178 -2.398666 4.296435 0
M  V30 23 H 2.324217 -1.907074 4.156619 0
M  V30 24 H 2.501631 -4.996797 3.735935 0
M  V30 25 H 2.460215 -6.592342 1.922905 0
M  V30 26 H 1.580586 -5.981272 -0.224410 0
M  V30 27 H 0.722284 -3.790642 -0.639295 0
M  V30 28 H 0.018030 -2.003495 -0.990498 0
M  V30 29 H -0.173118 0.790031 1.347069 0
M  V30 30 H -0.679785 2.982860 2.050261 0
M  V30 31 H -1.609692 5.215327 1.452106 0
M  V30 32 H -2.476194 5.656562 -0.832629 0
M  V30 33 H -2.412498 3.865214 -2.518422 0
M  V30 34 H -1.873194 1.652867 -3.138596 0
M  V30 END ATOM
M  V30 BEGIN BOND
M  V30 1 1 1 2
M  V30 2 2 2 3
M  V30 3 1 3 4
M  V30 4 2 4 5
M  V30 5 1 5 6
M  V30 6 2 6 7
M  V30 7 1 7 8
M  V30 8 2 8 9
M  V30 9 1 8 10
M  V30 10 2 10 11
M  V30 11 1 11 12
M  V30 12 1 12 13
M  V30 13 2 13 14
M  V30 14 1 14 15
M  V30 15 2 15 16
M  V30 16 1 16 17
M  V30 17 2 17 18
M  V30 18 1 18 19
M  V30 19 1 19 20
M  V30 20 2 20 21
M  V30 21 1 7 2
M  V30 22 1 20 11
M  V30 23 1 18 13
M  V30 24 1 1 22
M  V30 25 1 1 23
M  V30 26 1 3 24
M  V30 27 1 4 25
M  V30 28 1 5 26
M  V30 29 1 6 27
M  V30 30 1 10 28
M  V30 31 1 12 29
M  V30 32 1 14 30
M  V30 33 1 15 31
M  V30 34 1 16 32
M  V30 35 1 17 33
M  V30 36 1 19 34
M  V30 END BOND
M  V30 END CTAB
M  END
>  <Dataset>  (424) 
ChEMBL_Kinases

>  <Ligand_Instance>  (424) 
nan

>  <PDB_ID>  (424) 
nan

>  <Standardized_SMILES>  (424) 
Nc1ccccc1C(=O)/C=C1\Nc2ccccc2NC1=O

>  <Name>  (424) 
nan

>  <Pocket>  (424) 
nan

>  <ATP_Site>  (424) 
nan

>  <Peripheral>  (424) 
nan

>  <Num_H_Atoms_ProtBoundConf>  (424) 
nan

>  <Num_Resolved_Atoms>  (424) 
nan

>  <Num_Not_Resolved_Atoms>  (424) 
nan

$$$$
CHEMBL4780102
     RDKit          3D

  0  0  0  0  0  0  0  0  0  0999 V3000
M  V30 BEGIN CTAB
M  V30 COUNTS 42 45 0 0 0
M  V30 BEGIN ATOM
M  V30 1 O -0.049632 -4.045317 1.965571 0
M  V30 2 C 0.040201 -3.261642 1.001889 0
M  V30 3 N 0.285970 -1.858393 1.226050 0
M  V30 4 C 0.428584 -1.364054 2.581181 0
M  V30 5 C -0.606944 -0.384379 2.972531 0
M  V30 6 C -0.097977 1.025368 3.024594 0
M  V30 7 N 0.907035 1.139135 1.983930 0
M  V30 8 C 0.822304 1.780722 0.714494 0
M  V30 9 N 0.974228 1.247076 -0.523865 0
M  V30 10 C 0.852424 2.041978 -1.595772 0
M  V30 11 N 0.586155 3.355328 -1.554246 0
M  V30 12 C 0.431725 3.902949 -0.327386 0
M  V30 13 N 0.160183 5.193192 -0.006495 0
M  V30 14 N 0.095295 5.280057 1.315835 0
M  V30 15 C 0.327877 4.036134 1.821791 0
M  V30 16 C 0.543601 3.144944 0.815201 0
M  V30 17 C 2.144899 0.484731 2.363168 0
M  V30 18 C 1.860143 -0.917931 2.752140 0
M  V30 19 C -0.129204 -3.936824 -0.278934 0
M  V30 20 C -1.122221 -3.719604 -1.210986 0
M  V30 21 C -1.187217 -4.415721 -2.389251 0
M  V30 22 C -0.181237 -5.366017 -2.593696 0
M  V30 23 C 0.839636 -5.629567 -1.698855 0
M  V30 24 Cl 2.039691 -6.844994 -2.070173 0
M  V30 25 C 0.838421 -4.884130 -0.527863 0
M  V30 26 Cl 2.161800 -5.258057 0.580987 0
M  V30 27 H 0.333680 -1.337664 0.322147 0
M  V30 28 H 0.310599 -2.267538 3.229112 0
M  V30 29 H -0.963905 -0.619331 4.007099 0
M  V30 30 H -1.520972 -0.393581 2.352072 0
M  V30 31 H -0.931433 1.719674 2.812217 0
M  V30 32 H 0.359385 1.255212 4.013381 0
M  V30 33 H 0.980805 1.578075 -2.566133 0
M  V30 34 H 0.010356 6.040106 -0.587651 0
M  V30 35 H 0.337748 3.797709 2.884741 0
M  V30 36 H 2.539928 1.040821 3.227683 0
M  V30 37 H 2.847469 0.473678 1.503225 0
M  V30 38 H 2.527311 -1.662102 2.234159 0
M  V30 39 H 2.107303 -1.050655 3.825727 0
M  V30 40 H -1.857783 -2.946498 -0.938908 0
M  V30 41 H -1.964323 -4.236680 -3.104481 0
M  V30 42 H -0.217016 -5.928756 -3.524517 0
M  V30 END ATOM
M  V30 BEGIN BOND
M  V30 1 2 1 2
M  V30 2 1 2 3
M  V30 3 1 3 4
M  V30 4 1 4 5
M  V30 5 1 5 6
M  V30 6 1 6 7
M  V30 7 1 7 8
M  V30 8 2 8 9
M  V30 9 1 9 10
M  V30 10 2 10 11
M  V30 11 1 11 12
M  V30 12 1 12 13
M  V30 13 1 13 14
M  V30 14 2 14 15
M  V30 15 1 15 16
M  V30 16 1 7 17
M  V30 17 1 17 18
M  V30 18 1 2 19
M  V30 19 2 19 20
M  V30 20 1 20 21
M  V30 21 2 21 22
M  V30 22 1 22 23
M  V30 23 1 23 24
M  V30 24 2 23 25
M  V30 25 1 25 26
M  V30 26 1 18 4
M  V30 27 1 25 19
M  V30 28 1 16 8
M  V30 29 2 16 12
M  V30 30 1 3 27
M  V30 31 1 4 28
M  V30 32 1 5 29
M  V30 33 1 5 30
M  V30 34 1 6 31
M  V30 35 1 6 32
M  V30 36 1 10 33
M  V30 37 1 13 34
M  V30 38 1 15 35
M  V30 39 1 17 36
M  V30 40 1 17 37
M  V30 41 1 18 38
M  V30 42 1 18 39
M  V30 43 1 20 40
M  V30 44 1 21 41
M  V30 45 1 22 42
M  V30 END BOND
M  V30 END CTAB
M  END
>  <Dataset>  (425) 
ChEMBL_Kinases

>  <Ligand_Instance>  (425) 
nan

>  <PDB_ID>  (425) 
nan

>  <Standardized_SMILES>  (425) 
O=C(NC1CCN(c2ncnc3[nH]ncc23)CC1)c1cccc(Cl)c1Cl

>  <Name>  (425) 
nan

>  <Pocket>  (425) 
nan

>  <ATP_Site>  (425) 
nan

>  <Peripheral>  (425) 
nan

>  <Num_H_Atoms_ProtBoundConf>  (425) 
nan

>  <Num_Resolved_Atoms>  (425) 
nan

>  <Num_Not_Resolved_Atoms>  (425) 
nan

$$$$
CHEMBL4780169
     RDKit          3D

  0  0  0  0  0  0  0  0  0  0999 V3000
M  V30 BEGIN CTAB
M  V30 COUNTS 64 67 0 0 0
M  V30 BEGIN ATOM
M  V30 1 C 5.228647 -4.227031 1.265297 0
M  V30 2 O 5.215548 -3.026718 2.019539 0
M  V30 3 C 4.818192 -1.806499 1.499393 0
M  V30 4 O 4.493723 -1.955623 0.302482 0
M  V30 5 C 4.885072 -0.754797 2.438110 0
M  V30 6 S 5.373941 -0.625213 4.164674 0
M  V30 7 C 4.994025 1.253128 4.282373 0
M  V30 8 C 4.502387 1.617013 2.908551 0
M  V30 9 C 4.516048 0.502913 2.130713 0
M  V30 10 N 4.028384 1.012038 0.896405 0
M  V30 11 C 3.562150 2.315413 0.539177 0
M  V30 12 N 2.224606 2.239276 0.493954 0
M  V30 13 C 1.378076 3.233822 0.207806 0
M  V30 14 N -0.052977 3.086951 0.172119 0
M  V30 15 C -0.793376 1.895230 0.373890 0
M  V30 16 C -0.251476 0.654060 0.596851 0
M  V30 17 C -0.912934 -0.539236 0.788279 0
M  V30 18 C -2.308439 -0.487755 0.753037 0
M  V30 19 N -3.118866 -1.637843 0.952036 0
M  V30 20 C -4.538219 -1.827833 0.674799 0
M  V30 21 C -4.676671 -2.798825 -0.501748 0
M  V30 22 C -3.263312 -3.299810 -0.807826 0
M  V30 23 N -3.189828 -4.174689 -1.932670 0
M  V30 24 C -1.785772 -4.552973 -2.113168 0
M  V30 25 C -3.633106 -3.574097 -3.155461 0
M  V30 26 C -2.791980 -3.954034 0.471601 0
M  V30 27 C -2.617159 -2.876554 1.519283 0
M  V30 28 C -2.904243 0.734300 0.532858 0
M  V30 29 C -2.196837 1.924179 0.343103 0
M  V30 30 O -2.770061 3.160256 0.119807 0
M  V30 31 C -4.153916 3.413886 0.050910 0
M  V30 32 N 1.947497 4.396249 -0.052765 0
M  V30 33 C 3.273420 4.558459 -0.029827 0
M  V30 34 C 4.137870 3.534511 0.264862 0
M  V30 35 Br 6.021612 3.451388 0.376379 0
M  V30 36 H 4.212016 -4.707708 1.375322 0
M  V30 37 H 5.929838 -4.967121 1.703922 0
M  V30 38 H 5.495830 -4.026711 0.216050 0
M  V30 39 H 5.312008 1.354193 5.422394 0
M  V30 40 H 4.405039 2.598549 3.306006 0
M  V30 41 H 3.991264 0.346166 0.092929 0
M  V30 42 H -0.584903 3.957203 -0.023680 0
M  V30 43 H 0.815751 0.508177 0.636458 0
M  V30 44 H -0.407564 -1.474388 0.954776 0
M  V30 45 H -5.068847 -0.877576 0.470642 0
M  V30 46 H -5.076621 -2.282629 1.533956 0
M  V30 47 H -5.116531 -2.239863 -1.356265 0
M  V30 48 H -5.295889 -3.653817 -0.235554 0
M  V30 49 H -2.633400 -2.393078 -1.031633 0
M  V30 50 H -1.466355 -4.493168 -3.170019 0
M  V30 51 H -1.122419 -3.859109 -1.542342 0
M  V30 52 H -1.567946 -5.583340 -1.784801 0
M  V30 53 H -4.703209 -3.771435 -3.391646 0
M  V30 54 H -3.029104 -3.983904 -4.011926 0
M  V30 55 H -3.431103 -2.492727 -3.122831 0
M  V30 56 H -3.616808 -4.666522 0.756457 0
M  V30 57 H -1.862423 -4.508467 0.263390 0
M  V30 58 H -1.560562 -2.873037 1.779852 0
M  V30 59 H -3.249009 -3.176983 2.400326 0
M  V30 60 H -4.003124 0.856016 0.492334 0
M  V30 61 H -4.638579 3.364412 1.062812 0
M  V30 62 H -4.304001 4.446970 -0.376255 0
M  V30 63 H -4.669115 2.674776 -0.601323 0
M  V30 64 H 3.814205 5.476200 -0.230461 0
M  V30 END ATOM
M  V30 BEGIN BOND
M  V30 1 1 1 2
M  V30 2 1 2 3
M  V30 3 2 3 4
M  V30 4 1 3 5
M  V30 5 1 5 6
M  V30 6 1 6 7
M  V30 7 2 7 8
M  V30 8 1 8 9
M  V30 9 1 9 10
M  V30 10 1 10 11
M  V30 11 2 11 12
M  V30 12 1 12 13
M  V30 13 1 13 14
M  V30 14 1 14 15
M  V30 15 2 15 16
M  V30 16 1 16 17
M  V30 17 2 17 18
M  V30 18 1 18 19
M  V30 19 1 19 20
M  V30 20 1 20 21
M  V30 21 1 21 22
M  V30 22 1 22 23
M  V30 23 1 23 24
M  V30 24 1 23 25
M  V30 25 1 22 26
M  V30 26 1 26 27
M  V30 27 1 18 28
M  V30 28 2 28 29
M  V30 29 1 29 30
M  V30 30 1 30 31
M  V30 31 2 13 32
M  V30 32 1 32 33
M  V30 33 2 33 34
M  V30 34 1 34 35
M  V30 35 2 9 5
M  V30 36 1 34 11
M  V30 37 1 29 15
M  V30 38 1 27 19
M  V30 39 1 1 36
M  V30 40 1 1 37
M  V30 41 1 1 38
M  V30 42 1 7 39
M  V30 43 1 8 40
M  V30 44 1 10 41
M  V30 45 1 14 42
M  V30 46 1 16 43
M  V30 47 1 17 44
M  V30 48 1 20 45
M  V30 49 1 20 46
M  V30 50 1 21 47
M  V30 51 1 21 48
M  V30 52 1 22 49
M  V30 53 1 24 50
M  V30 54 1 24 51
M  V30 55 1 24 52
M  V30 56 1 25 53
M  V30 57 1 25 54
M  V30 58 1 25 55
M  V30 59 1 26 56
M  V30 60 1 26 57
M  V30 61 1 27 58
M  V30 62 1 27 59
M  V30 63 1 28 60
M  V30 64 1 31 61
M  V30 65 1 31 62
M  V30 66 1 31 63
M  V30 67 1 33 64
M  V30 END BOND
M  V30 END CTAB
M  END
>  <Dataset>  (426) 
ChEMBL_Kinases

>  <Ligand_Instance>  (426) 
nan

>  <PDB_ID>  (426) 
nan

>  <Standardized_SMILES>  (426) 
COC(=O)c1sccc1Nc1nc(Nc2ccc(N3CCC(N(C)C)CC3)cc2OC)ncc1Br

>  <Name>  (426) 
nan

>  <Pocket>  (426) 
nan

>  <ATP_Site>  (426) 
nan

>  <Peripheral>  (426) 
nan

>  <Num_H_Atoms_ProtBoundConf>  (426) 
nan

>  <Num_Resolved_Atoms>  (426) 
nan

>  <Num_Not_Resolved_Atoms>  (426) 
nan

$$$$
CHEMBL4780192
     RDKit          3D

  0  0  0  0  0  0  0  0  0  0999 V3000
M  V30 BEGIN CTAB
M  V30 COUNTS 62 68 0 0 0
M  V30 BEGIN ATOM
M  V30 1 C 6.102542 1.087643 -1.043723 0
M  V30 2 C 5.263199 -0.129166 -0.973474 0
M  V30 3 O 5.767141 -1.249185 -0.728885 0
M  V30 4 N 3.860415 -0.039784 -1.185025 0
M  V30 5 C 2.783192 -0.980941 -1.191148 0 CFG=1
M  V30 6 C 1.759731 -0.753163 -0.094407 0
M  V30 7 C 0.501804 -0.267772 -0.727949 0 CFG=2
M  V30 8 N -0.442159 0.356433 0.151394 0
M  V30 9 C -0.725596 1.693568 0.270496 0
M  V30 10 C -0.129262 2.729779 -0.462706 0
M  V30 11 C -0.456024 4.056919 -0.297865 0
M  V30 12 C -1.436556 4.340139 0.659345 0
M  V30 13 C -1.996256 3.292646 1.356950 0
M  V30 14 C -1.679705 1.978483 1.200776 0
M  V30 15 C -2.040187 0.766684 1.718026 0
M  V30 16 C -2.943058 0.444409 2.672814 0
M  V30 17 C -3.149683 -0.862691 3.046616 0
M  V30 18 C -2.407625 -1.864144 2.421369 0
M  V30 19 C -2.404422 -3.245528 2.593614 0
M  V30 20 C -3.120724 -4.080338 3.424388 0
M  V30 21 C -2.923328 -5.444035 3.397707 0
M  V30 22 C -1.989324 -5.943531 2.515973 0
M  V30 23 C -1.289911 -5.083521 1.699083 0
M  V30 24 C -1.458649 -3.705030 1.694890 0
M  V30 25 N -0.949253 -2.641442 1.044294 0
M  V30 26 C -1.498196 -1.491782 1.453655 0
M  V30 27 C -1.282351 -0.184640 1.070291 0
M  V30 28 C -4.190939 -1.038109 4.122892 0
M  V30 29 N -4.595641 0.333662 4.359685 0
M  V30 30 C -3.856347 1.185922 3.503962 0
M  V30 31 O -4.119867 2.371658 3.621411 0
M  V30 32 O -0.080833 -1.124747 -1.652095 0
M  V30 33 C 0.815536 -1.736849 -2.474984 0 CFG=1
M  V30 34 C 0.196861 -1.891234 -3.834839 0
M  V30 35 C 2.150098 -1.079331 -2.563106 0 CFG=2
M  V30 36 O 2.984122 -1.922062 -3.329747 0
M  V30 37 H 6.909705 0.847154 -1.792605 0
M  V30 38 H 5.523056 1.953179 -1.402797 0
M  V30 39 H 6.617911 1.318316 -0.112863 0
M  V30 40 H 3.405849 0.879221 -1.391308 0
M  V30 41 H 3.229389 -1.984013 -0.974133 0
M  V30 42 H 1.693738 -1.547976 0.633284 0
M  V30 43 H 2.164687 0.132888 0.487587 0
M  V30 44 H 0.878410 0.557155 -1.418926 0
M  V30 45 H 0.638156 2.565511 -1.218901 0
M  V30 46 H 0.007241 4.850443 -0.866111 0
M  V30 47 H -1.697601 5.382600 0.793320 0
M  V30 48 H -2.720065 3.616454 2.049289 0
M  V30 49 H -3.841032 -3.678451 4.102318 0
M  V30 50 H -3.501743 -6.058440 4.061038 0
M  V30 51 H -1.802312 -7.010320 2.462086 0
M  V30 52 H -0.567131 -5.500928 1.020661 0
M  V30 53 H -0.239805 -2.866502 0.356197 0
M  V30 54 H -5.047413 -1.631725 3.751407 0
M  V30 55 H -3.778163 -1.470299 5.042018 0
M  V30 56 H -5.329989 0.457061 5.087392 0
M  V30 57 H 1.002027 -2.788454 -2.106963 0
M  V30 58 H 1.001918 -2.221728 -4.521038 0
M  V30 59 H -0.518339 -2.753391 -3.776862 0
M  V30 60 H -0.312117 -0.986208 -4.189765 0
M  V30 61 H 2.149319 -0.121582 -3.098941 0
M  V30 62 H 3.314379 -2.641129 -2.731350 0
M  V30 END ATOM
M  V30 BEGIN BOND
M  V30 1 1 1 2
M  V30 2 2 2 3
M  V30 3 1 2 4
M  V30 4 1 4 5
M  V30 5 1 5 6
M  V30 6 1 6 7
M  V30 7 1 7 8
M  V30 8 1 8 9
M  V30 9 2 9 10
M  V30 10 1 10 11
M  V30 11 2 11 12
M  V30 12 1 12 13
M  V30 13 2 13 14
M  V30 14 1 14 15
M  V30 15 2 15 16
M  V30 16 1 16 17
M  V30 17 2 17 18
M  V30 18 1 18 19
M  V30 19 2 19 20
M  V30 20 1 20 21
M  V30 21 2 21 22
M  V30 22 1 22 23
M  V30 23 2 23 24
M  V30 24 1 24 25
M  V30 25 1 25 26
M  V30 26 2 26 27
M  V30 27 1 17 28
M  V30 28 1 28 29
M  V30 29 1 29 30
M  V30 30 2 30 31
M  V30 31 1 7 32
M  V30 32 1 32 33
M  V30 33 1 33 34
M  V30 34 1 33 35
M  V30 35 1 35 36
M  V30 36 1 35 5
M  V30 37 1 27 8
M  V30 38 1 14 9
M  V30 39 1 27 15
M  V30 40 1 30 16
M  V30 41 1 26 18
M  V30 42 1 24 19
M  V30 43 1 1 37
M  V30 44 1 1 38
M  V30 45 1 1 39
M  V30 46 1 4 40
M  V30 47 1 5 41 CFG=1
M  V30 48 1 6 42
M  V30 49 1 6 43
M  V30 50 1 7 44 CFG=3
M  V30 51 1 10 45
M  V30 52 1 11 46
M  V30 53 1 12 47
M  V30 54 1 13 48
M  V30 55 1 20 49
M  V30 56 1 21 50
M  V30 57 1 22 51
M  V30 58 1 23 52
M  V30 59 1 25 53
M  V30 60 1 28 54
M  V30 61 1 28 55
M  V30 62 1 29 56
M  V30 63 1 33 57 CFG=1
M  V30 64 1 34 58
M  V30 65 1 34 59
M  V30 66 1 34 60
M  V30 67 1 35 61 CFG=3
M  V30 68 1 36 62
M  V30 END BOND
M  V30 END CTAB
M  END
>  <Dataset>  (427) 
ChEMBL_Kinases

>  <Ligand_Instance>  (427) 
nan

>  <PDB_ID>  (427) 
nan

>  <Standardized_SMILES>  (427) 
CC(=O)N[C@H]1C[C@H](n2c3ccccc3c3c4c(c5c6ccccc6[nH]c5c32)CNC4=O)O[C@@H](C)[C@@H]1O

>  <Name>  (427) 
nan

>  <Pocket>  (427) 
nan

>  <ATP_Site>  (427) 
nan

>  <Peripheral>  (427) 
nan

>  <Num_H_Atoms_ProtBoundConf>  (427) 
nan

>  <Num_Resolved_Atoms>  (427) 
nan

>  <Num_Not_Resolved_Atoms>  (427) 
nan

$$$$
CHEMBL4780229
     RDKit          3D

  0  0  0  0  0  0  0  0  0  0999 V3000
M  V30 BEGIN CTAB
M  V30 COUNTS 55 58 0 0 0
M  V30 BEGIN ATOM
M  V30 1 C 3.282017 0.545921 5.306522 0
M  V30 2 C 4.289652 -0.568951 5.526071 0
M  V30 3 O 3.684961 -1.834398 5.342741 0
M  V30 4 C 3.092421 -2.259764 4.177869 0
M  V30 5 N 3.019029 -1.496476 3.047970 0
M  V30 6 C 2.417838 -2.019345 1.973508 0
M  V30 7 N 2.234000 -1.386386 0.707004 0
M  V30 8 C 1.159793 -0.634620 0.156234 0
M  V30 9 C 0.013438 -0.411257 0.890222 0
M  V30 10 C -1.069777 0.298697 0.414396 0
M  V30 11 C -0.995868 0.818716 -0.884479 0
M  V30 12 C -2.033473 1.591926 -1.583828 0
M  V30 13 O -1.987165 2.759165 -2.042133 0
M  V30 14 N -3.278761 0.870653 -1.752835 0
M  V30 15 C -3.497056 -0.505160 -1.270981 0
M  V30 16 C -4.361288 -1.187610 -2.286644 0
M  V30 17 O -4.188585 -0.692450 -3.572064 0
M  V30 18 C -4.604814 0.622587 -3.700556 0
M  V30 19 C -4.453778 1.405372 -2.412810 0 CFG=2
M  V30 20 C -4.423539 2.881656 -2.640679 0
M  V30 21 C 0.167102 0.573396 -1.584357 0
M  V30 22 C 1.268678 -0.130423 -1.143313 0
M  V30 23 O 2.387506 -0.327760 -1.906085 0
M  V30 24 C 2.612517 0.124816 -3.210296 0
M  V30 25 N 1.871552 -3.254978 1.916250 0
M  V30 26 C 1.920924 -4.049460 3.017400 0
M  V30 27 N 1.487588 -5.307640 3.310687 0
M  V30 28 C 1.801702 -5.618543 4.579439 0
M  V30 29 C 2.455149 -4.517744 5.101689 0
M  V30 30 C 2.538979 -3.516368 4.127020 0
M  V30 31 H 3.168379 1.154169 6.251784 0
M  V30 32 H 2.277763 0.145313 5.064142 0
M  V30 33 H 3.659993 1.237352 4.537472 0
M  V30 34 H 4.643684 -0.518490 6.595430 0
M  V30 35 H 5.165733 -0.433927 4.847384 0
M  V30 36 H 3.088806 -1.558755 0.154020 0
M  V30 37 H -0.079603 -0.803911 1.913606 0
M  V30 38 H -1.991221 0.510771 0.927144 0
M  V30 39 H -4.083870 -0.445371 -0.318797 0
M  V30 40 H -2.563958 -1.014432 -1.041676 0
M  V30 41 H -5.439608 -1.164516 -2.063641 0
M  V30 42 H -4.065743 -2.257560 -2.319986 0
M  V30 43 H -3.939047 1.108177 -4.448437 0
M  V30 44 H -5.631657 0.611295 -4.078084 0
M  V30 45 H -5.331986 1.163629 -1.773809 0
M  V30 46 H -3.775394 3.215361 -3.456913 0
M  V30 47 H -4.201126 3.408800 -1.712566 0
M  V30 48 H -5.458935 3.173320 -2.951519 0
M  V30 49 H 0.275423 0.954502 -2.596991 0
M  V30 50 H 3.682591 -0.069345 -3.462420 0
M  V30 51 H 1.916926 -0.426036 -3.894119 0
M  V30 52 H 2.446339 1.201863 -3.374083 0
M  V30 53 H 0.994719 -5.839397 2.555656 0
M  V30 54 H 1.558620 -6.563447 5.035280 0
M  V30 55 H 2.817512 -4.503873 6.114409 0
M  V30 END ATOM
M  V30 BEGIN BOND
M  V30 1 1 1 2
M  V30 2 1 2 3
M  V30 3 1 3 4
M  V30 4 2 4 5
M  V30 5 1 5 6
M  V30 6 1 6 7
M  V30 7 1 7 8
M  V30 8 2 8 9
M  V30 9 1 9 10
M  V30 10 2 10 11
M  V30 11 1 11 12
M  V30 12 2 12 13
M  V30 13 1 12 14
M  V30 14 1 14 15
M  V30 15 1 15 16
M  V30 16 1 16 17
M  V30 17 1 17 18
M  V30 18 1 18 19
M  V30 19 1 19 20
M  V30 20 1 11 21
M  V30 21 2 21 22
M  V30 22 1 22 23
M  V30 23 1 23 24
M  V30 24 2 6 25
M  V30 25 1 25 26
M  V30 26 1 26 27
M  V30 27 1 27 28
M  V30 28 2 28 29
M  V30 29 1 29 30
M  V30 30 1 30 4
M  V30 31 1 22 8
M  V30 32 2 30 26
M  V30 33 1 19 14
M  V30 34 1 1 31
M  V30 35 1 1 32
M  V30 36 1 1 33
M  V30 37 1 2 34
M  V30 38 1 2 35
M  V30 39 1 7 36
M  V30 40 1 9 37
M  V30 41 1 10 38
M  V30 42 1 15 39
M  V30 43 1 15 40
M  V30 44 1 16 41
M  V30 45 1 16 42
M  V30 46 1 18 43
M  V30 47 1 18 44
M  V30 48 1 19 45 CFG=1
M  V30 49 1 20 46
M  V30 50 1 20 47
M  V30 51 1 20 48
M  V30 52 1 21 49
M  V30 53 1 24 50
M  V30 54 1 24 51
M  V30 55 1 24 52
M  V30 56 1 27 53
M  V30 57 1 28 54
M  V30 58 1 29 55
M  V30 END BOND
M  V30 END CTAB
M  END
>  <Dataset>  (428) 
ChEMBL_Kinases

>  <Ligand_Instance>  (428) 
nan

>  <PDB_ID>  (428) 
nan

>  <Standardized_SMILES>  (428) 
CCOc1nc(Nc2ccc(C(=O)N3CCOC[C@@H]3C)cc2OC)nc2[nH]ccc12

>  <Name>  (428) 
nan

>  <Pocket>  (428) 
nan

>  <ATP_Site>  (428) 
nan

>  <Peripheral>  (428) 
nan

>  <Num_H_Atoms_ProtBoundConf>  (428) 
nan

>  <Num_Resolved_Atoms>  (428) 
nan

>  <Num_Not_Resolved_Atoms>  (428) 
nan

$$$$
CHEMBL4780260
     RDKit          3D

  0  0  0  0  0  0  0  0  0  0999 V3000
M  V30 BEGIN CTAB
M  V30 COUNTS 59 63 0 0 0
M  V30 BEGIN ATOM
M  V30 1 C 2.221497 -1.578963 8.652567 0
M  V30 2 N 2.870184 -1.595591 7.364704 0
M  V30 3 C 2.324071 -0.886824 6.258406 0
M  V30 4 O 1.265289 -0.230770 6.377590 0
M  V30 5 C 3.028938 -0.943304 4.980066 0
M  V30 6 C 2.558036 -0.281790 3.867256 0
M  V30 7 C 3.207292 -0.315508 2.631977 0
M  V30 8 N 2.552629 0.435697 1.616010 0
M  V30 9 C 2.897758 1.813358 1.443111 0
M  V30 10 O 3.734709 2.220675 2.276987 0
M  V30 11 C 2.433837 2.800309 0.462840 0
M  V30 12 C 3.185189 3.955164 0.503481 0
M  V30 13 C 2.815521 4.955997 -0.398080 0
M  V30 14 C 1.766462 4.823290 -1.286222 0
M  V30 15 N 1.079865 3.679435 -1.273620 0
M  V30 16 C 1.371630 2.659391 -0.432755 0
M  V30 17 O 0.539823 1.535199 -0.564460 0
M  V30 18 C 0.704486 0.234654 -0.124933 0
M  V30 19 C -0.144782 -0.650243 -0.753991 0
M  V30 20 C -0.189675 -2.000386 -0.506084 0
M  V30 21 N -1.041897 -2.943506 -1.125488 0
M  V30 22 C -2.024223 -2.744225 -2.117103 0
M  V30 23 O -2.233494 -1.600086 -2.566150 0
M  V30 24 N -2.833713 -3.766062 -2.678244 0
M  V30 25 C -3.759068 -3.283086 -3.676103 0
M  V30 26 C -3.541784 -3.170844 -5.040597 0
M  V30 27 C -4.558526 -2.684284 -5.824273 0
M  V30 28 C -5.774372 -2.314778 -5.256991 0
M  V30 29 Cl -7.047549 -1.698393 -6.288662 0
M  V30 30 C -5.995247 -2.426380 -3.887617 0
M  V30 31 C -7.317396 -2.013653 -3.348042 0
M  V30 32 F -8.350643 -2.743115 -3.893425 0
M  V30 33 F -7.486103 -0.659457 -3.559077 0
M  V30 34 F -7.258125 -2.191909 -1.959889 0
M  V30 35 C -4.963666 -2.918217 -3.105430 0
M  V30 36 C 0.691516 -2.446829 0.440992 0
M  V30 37 C 1.555656 -1.592819 1.091072 0
M  V30 38 C 1.582751 -0.240402 0.825488 0
M  V30 39 C 4.379165 -1.057508 2.550120 0
M  V30 40 C 4.832838 -1.709119 3.667309 0
M  V30 41 N 4.179913 -1.653854 4.842223 0
M  V30 42 H 2.971576 -1.809714 9.462580 0
M  V30 43 H 1.380019 -2.270022 8.671292 0
M  V30 44 H 1.904249 -0.530981 8.884596 0
M  V30 45 H 3.753765 -2.146009 7.274469 0
M  V30 46 H 1.628034 0.276670 4.028069 0
M  V30 47 H 4.009230 4.069888 1.195233 0
M  V30 48 H 3.364882 5.870064 -0.407517 0
M  V30 49 H 1.493724 5.599347 -1.972542 0
M  V30 50 H -0.797549 -0.222102 -1.476571 0
M  V30 51 H -0.987053 -3.948505 -0.855607 0
M  V30 52 H -2.691787 -4.757611 -2.327150 0
M  V30 53 H -2.557451 -3.490180 -5.356826 0
M  V30 54 H -4.358872 -2.608744 -6.882549 0
M  V30 55 H -5.219726 -2.970934 -2.061109 0
M  V30 56 H 0.714207 -3.501847 0.690485 0
M  V30 57 H 2.219898 -2.024655 1.825531 0
M  V30 58 H 4.822819 -1.039293 1.575928 0
M  V30 59 H 5.760112 -2.281574 3.556273 0
M  V30 END ATOM
M  V30 BEGIN BOND
M  V30 1 1 1 2
M  V30 2 1 2 3
M  V30 3 2 3 4
M  V30 4 1 3 5
M  V30 5 2 5 6
M  V30 6 1 6 7
M  V30 7 1 7 8
M  V30 8 1 8 9
M  V30 9 2 9 10
M  V30 10 1 9 11
M  V30 11 2 11 12
M  V30 12 1 12 13
M  V30 13 2 13 14
M  V30 14 1 14 15
M  V30 15 2 15 16
M  V30 16 1 16 17
M  V30 17 1 17 18
M  V30 18 2 18 19
M  V30 19 1 19 20
M  V30 20 1 20 21
M  V30 21 1 21 22
M  V30 22 2 22 23
M  V30 23 1 22 24
M  V30 24 1 24 25
M  V30 25 2 25 26
M  V30 26 1 26 27
M  V30 27 2 27 28
M  V30 28 1 28 29
M  V30 29 1 28 30
M  V30 30 1 30 31
M  V30 31 1 31 32
M  V30 32 1 31 33
M  V30 33 1 31 34
M  V30 34 2 30 35
M  V30 35 2 20 36
M  V30 36 1 36 37
M  V30 37 2 37 38
M  V30 38 2 7 39
M  V30 39 1 39 40
M  V30 40 2 40 41
M  V30 41 1 41 5
M  V30 42 1 38 8
M  V30 43 1 16 11
M  V30 44 1 38 18
M  V30 45 1 35 25
M  V30 46 1 1 42
M  V30 47 1 1 43
M  V30 48 1 1 44
M  V30 49 1 2 45
M  V30 50 1 6 46
M  V30 51 1 12 47
M  V30 52 1 13 48
M  V30 53 1 14 49
M  V30 54 1 19 50
M  V30 55 1 21 51
M  V30 56 1 24 52
M  V30 57 1 26 53
M  V30 58 1 27 54
M  V30 59 1 35 55
M  V30 60 1 36 56
M  V30 61 1 37 57
M  V30 62 1 39 58
M  V30 63 1 40 59
M  V30 END BOND
M  V30 END CTAB
M  END
>  <Dataset>  (429) 
ChEMBL_Kinases

>  <Ligand_Instance>  (429) 
nan

>  <PDB_ID>  (429) 
nan

>  <Standardized_SMILES>  (429) 
CNC(=O)c1cc(N2C(=O)c3cccnc3Oc3cc(NC(=O)Nc4ccc(Cl)c(C(F)(F)F)c4)ccc32)ccn1

>  <Name>  (429) 
nan

>  <Pocket>  (429) 
nan

>  <ATP_Site>  (429) 
nan

>  <Peripheral>  (429) 
nan

>  <Num_H_Atoms_ProtBoundConf>  (429) 
nan

>  <Num_Resolved_Atoms>  (429) 
nan

>  <Num_Not_Resolved_Atoms>  (429) 
nan

$$$$
CHEMBL478028
     RDKit          3D

  0  0  0  0  0  0  0  0  0  0999 V3000
M  V30 BEGIN CTAB
M  V30 COUNTS 45 48 0 0 0
M  V30 BEGIN ATOM
M  V30 1 C -0.461521 -5.464544 3.127122 0
M  V30 2 C 0.021422 -4.341203 2.290665 0
M  V30 3 N 0.701429 -4.305963 1.122325 0
M  V30 4 N 0.922781 -3.061090 0.734561 0
M  V30 5 C 1.612562 -2.673722 -0.452272 0
M  V30 6 C 2.996271 -2.513456 -0.323814 0
M  V30 7 C 3.678640 -2.138348 -1.465345 0
M  V30 8 C 3.045842 -1.930848 -2.666490 0
M  V30 9 C 1.678356 -2.096625 -2.763183 0
M  V30 10 Cl 0.729311 -1.867329 -4.231926 0
M  V30 11 C 0.940398 -2.472539 -1.650008 0
M  V30 12 C 0.381907 -2.248317 1.658689 0
M  V30 13 C 0.294033 -0.889282 1.801273 0
M  V30 14 C -0.307016 -0.193561 2.829803 0
M  V30 15 N -0.379176 1.217840 2.948867 0
M  V30 16 C 0.092153 2.219436 2.046599 0 CFG=1
M  V30 17 C 1.547007 2.049528 1.641251 0
M  V30 18 C -0.786440 2.571788 0.932166 0
M  V30 19 C -1.540592 1.761166 0.114902 0
M  V30 20 C -2.344065 2.169677 -0.924429 0
M  V30 21 C -2.418181 3.519176 -1.194110 0
M  V30 22 C -1.712228 4.439843 -0.450392 0
M  V30 23 C -0.940686 3.920260 0.564487 0
M  V30 24 N -0.835025 -1.026718 3.741846 0
M  V30 25 C -0.789326 -2.365103 3.671337 0
M  V30 26 C -0.185472 -3.033617 2.638086 0
M  V30 27 H -0.627705 -6.330380 2.452821 0
M  V30 28 H 0.295955 -5.777948 3.867968 0
M  V30 29 H -1.441195 -5.238771 3.592469 0
M  V30 30 H 3.494649 -2.678618 0.629005 0
M  V30 31 H 4.739204 -2.004414 -1.412174 0
M  V30 32 H 3.555607 -1.639287 -3.564853 0
M  V30 33 H -0.125323 -2.634237 -1.593368 0
M  V30 34 H 0.757318 -0.318477 0.996695 0
M  V30 35 H -0.864139 1.516110 3.855175 0
M  V30 36 H 0.130205 3.174631 2.695227 0
M  V30 37 H 2.127850 2.974777 1.827673 0
M  V30 38 H 2.003688 1.265069 2.283522 0
M  V30 39 H 1.641848 1.848474 0.552917 0
M  V30 40 H -1.504564 0.700983 0.304688 0
M  V30 41 H -2.893935 1.443517 -1.502607 0
M  V30 42 H -3.039587 3.874605 -2.002712 0
M  V30 43 H -1.739199 5.496172 -0.623342 0
M  V30 44 H -0.376865 4.661084 1.157502 0
M  V30 45 H -1.247364 -2.952739 4.461529 0
M  V30 END ATOM
M  V30 BEGIN BOND
M  V30 1 1 1 2
M  V30 2 2 2 3
M  V30 3 1 3 4
M  V30 4 1 4 5
M  V30 5 2 5 6
M  V30 6 1 6 7
M  V30 7 2 7 8
M  V30 8 1 8 9
M  V30 9 1 9 10
M  V30 10 2 9 11
M  V30 11 1 4 12
M  V30 12 2 12 13
M  V30 13 1 13 14
M  V30 14 1 14 15
M  V30 15 1 15 16
M  V30 16 1 16 17
M  V30 17 1 16 18
M  V30 18 2 18 19
M  V30 19 1 19 20
M  V30 20 2 20 21
M  V30 21 1 21 22
M  V30 22 2 22 23
M  V30 23 2 14 24
M  V30 24 1 24 25
M  V30 25 2 25 26
M  V30 26 1 26 2
M  V30 27 1 11 5
M  V30 28 1 26 12
M  V30 29 1 23 18
M  V30 30 1 1 27
M  V30 31 1 1 28
M  V30 32 1 1 29
M  V30 33 1 6 30
M  V30 34 1 7 31
M  V30 35 1 8 32
M  V30 36 1 11 33
M  V30 37 1 13 34
M  V30 38 1 15 35
M  V30 39 1 16 36 CFG=1
M  V30 40 1 17 37
M  V30 41 1 17 38
M  V30 42 1 17 39
M  V30 43 1 19 40
M  V30 44 1 20 41
M  V30 45 1 21 42
M  V30 46 1 22 43
M  V30 47 1 23 44
M  V30 48 1 25 45
M  V30 END BOND
M  V30 END CTAB
M  END
>  <Dataset>  (430) 
ChEMBL_Kinases

>  <Ligand_Instance>  (430) 
nan

>  <PDB_ID>  (430) 
nan

>  <Standardized_SMILES>  (430) 
Cc1nn(-c2cccc(Cl)c2)c2cc(N[C@@H](C)c3ccccc3)ncc12

>  <Name>  (430) 
nan

>  <Pocket>  (430) 
nan

>  <ATP_Site>  (430) 
nan

>  <Peripheral>  (430) 
nan

>  <Num_H_Atoms_ProtBoundConf>  (430) 
nan

>  <Num_Resolved_Atoms>  (430) 
nan

>  <Num_Not_Resolved_Atoms>  (430) 
nan

$$$$
CHEMBL4780287
     RDKit          3D

  0  0  0  0  0  0  0  0  0  0999 V3000
M  V30 BEGIN CTAB
M  V30 COUNTS 49 51 0 0 0
M  V30 BEGIN ATOM
M  V30 1 C -0.200561 -6.498727 -0.905311 0
M  V30 2 C 0.854276 -6.408114 0.162339 0
M  V30 3 C 0.315862 -6.932797 1.466408 0
M  V30 4 C 1.376076 -4.996473 0.282655 0
M  V30 5 O 0.388845 -4.070486 0.613892 0
M  V30 6 C 0.690005 -2.725194 0.767531 0
M  V30 7 C 1.891525 -2.059318 0.644797 0
M  V30 8 C 1.948142 -0.696220 0.847433 0
M  V30 9 C 0.817093 0.027293 1.174419 0
M  V30 10 C 0.859851 1.467840 1.392929 0
M  V30 11 C 1.926936 2.137037 1.906125 0
M  V30 12 N 1.899646 3.475397 2.085016 0
M  V30 13 C 0.830880 4.244510 1.775089 0
M  V30 14 N 0.773540 5.640772 1.951201 0
M  V30 15 C -0.281304 3.616742 1.250131 0
M  V30 16 C -1.494529 4.358957 0.880171 0
M  V30 17 C -1.993172 3.968061 -0.347424 0
M  V30 18 C -3.138531 4.548577 -0.880984 0
M  V30 19 C -3.794014 5.545839 -0.157928 0
M  V30 20 Cl -5.229880 6.270305 -0.834239 0
M  V30 21 C -3.279529 5.913159 1.052853 0
M  V30 22 C -2.144894 5.348315 1.597153 0
M  V30 23 C -0.247314 2.235194 1.067599 0
M  V30 24 C -0.389383 -0.629663 1.299584 0
M  V30 25 C -0.468308 -2.012475 1.097938 0
M  V30 26 C 1.987223 -7.279299 -0.254956 0
M  V30 27 O 1.705229 -7.813834 -1.361926 0
M  V30 28 O 3.214089 -7.910939 -0.204260 0
M  V30 29 H -1.226323 -6.336545 -0.508644 0
M  V30 30 H -0.027519 -5.671486 -1.628982 0
M  V30 31 H -0.184061 -7.470410 -1.459866 0
M  V30 32 H 0.798412 -7.877371 1.792869 0
M  V30 33 H -0.766942 -7.141154 1.349539 0
M  V30 34 H 0.387225 -6.152262 2.272675 0
M  V30 35 H 2.198696 -4.937768 1.016750 0
M  V30 36 H 1.824971 -4.757977 -0.715385 0
M  V30 37 H 2.700606 -2.710624 0.390437 0
M  V30 38 H 2.905502 -0.220636 0.740667 0
M  V30 39 H 2.798825 1.554329 2.165495 0
M  V30 40 H 0.759023 6.022919 2.929377 0
M  V30 41 H 0.738666 6.470131 1.335993 0
M  V30 42 H -1.562914 3.198252 -0.998280 0
M  V30 43 H -3.561240 4.269294 -1.840156 0
M  V30 44 H -3.763341 6.687979 1.646828 0
M  V30 45 H -1.685794 5.579084 2.526467 0
M  V30 46 H -1.154911 1.780874 0.647584 0
M  V30 47 H -1.261039 -0.042756 1.556265 0
M  V30 48 H -1.470969 -2.410393 1.224751 0
M  V30 49 H 3.328229 -8.705388 0.432980 0
M  V30 END ATOM
M  V30 BEGIN BOND
M  V30 1 1 1 2
M  V30 2 1 2 3
M  V30 3 1 2 4
M  V30 4 1 4 5
M  V30 5 1 5 6
M  V30 6 2 6 7
M  V30 7 1 7 8
M  V30 8 2 8 9
M  V30 9 1 9 10
M  V30 10 2 10 11
M  V30 11 1 11 12
M  V30 12 2 12 13
M  V30 13 1 13 14
M  V30 14 1 13 15
M  V30 15 1 15 16
M  V30 16 2 16 17
M  V30 17 1 17 18
M  V30 18 2 18 19
M  V30 19 1 19 20
M  V30 20 1 19 21
M  V30 21 2 21 22
M  V30 22 2 15 23
M  V30 23 1 9 24
M  V30 24 2 24 25
M  V30 25 1 2 26
M  V30 26 2 26 27
M  V30 27 1 26 28
M  V30 28 1 25 6
M  V30 29 1 23 10
M  V30 30 1 22 16
M  V30 31 1 1 29
M  V30 32 1 1 30
M  V30 33 1 1 31
M  V30 34 1 3 32
M  V30 35 1 3 33
M  V30 36 1 3 34
M  V30 37 1 4 35
M  V30 38 1 4 36
M  V30 39 1 7 37
M  V30 40 1 8 38
M  V30 41 1 11 39
M  V30 42 1 14 40
M  V30 43 1 14 41
M  V30 44 1 17 42
M  V30 45 1 18 43
M  V30 46 1 21 44
M  V30 47 1 22 45
M  V30 48 1 23 46
M  V30 49 1 24 47
M  V30 50 1 25 48
M  V30 51 1 28 49
M  V30 END BOND
M  V30 END CTAB
M  END
>  <Dataset>  (431) 
ChEMBL_Kinases

>  <Ligand_Instance>  (431) 
nan

>  <PDB_ID>  (431) 
nan

>  <Standardized_SMILES>  (431) 
CC(C)(COc1ccc(-c2cnc(N)c(-c3ccc(Cl)cc3)c2)cc1)C(=O)O

>  <Name>  (431) 
nan

>  <Pocket>  (431) 
nan

>  <ATP_Site>  (431) 
nan

>  <Peripheral>  (431) 
nan

>  <Num_H_Atoms_ProtBoundConf>  (431) 
nan

>  <Num_Resolved_Atoms>  (431) 
nan

>  <Num_Not_Resolved_Atoms>  (431) 
nan

$$$$
CHEMBL477997
     RDKit          3D

  0  0  0  0  0  0  0  0  0  0999 V3000
M  V30 BEGIN CTAB
M  V30 COUNTS 46 48 0 0 0
M  V30 BEGIN ATOM
M  V30 1 C 1.462321 -5.735610 -3.515477 0
M  V30 2 C 0.621618 -4.539984 -3.299790 0
M  V30 3 O -0.607262 -4.667899 -3.057697 0
M  V30 4 N 1.238598 -3.256772 -3.373772 0
M  V30 5 C 0.754742 -1.928563 -3.224669 0
M  V30 6 C 0.278986 -1.197040 -4.267390 0
M  V30 7 C -0.200717 0.092995 -4.175074 0
M  V30 8 C -0.199349 0.691099 -2.929491 0
M  V30 9 C -0.687074 2.069919 -2.696689 0
M  V30 10 C 0.270763 0.004895 -1.823281 0
M  V30 11 C 0.329228 0.513480 -0.456332 0
M  V30 12 C -0.108398 -0.341783 0.536587 0
M  V30 13 C -0.121981 -0.022945 1.881250 0
M  V30 14 C 0.329458 1.228007 2.259536 0
M  V30 15 C 0.371777 1.699357 3.642024 0
M  V30 16 O 0.792783 2.855677 3.957311 0
M  V30 17 N -0.050586 0.912004 4.743379 0
M  V30 18 C -0.020722 1.344906 6.100598 0
M  V30 19 C -0.512524 0.353015 7.096745 0
M  V30 20 C 0.178561 -0.982769 7.217781 0
M  V30 21 C -1.307085 -0.829565 6.807238 0
M  V30 22 C 0.771389 2.098509 1.282815 0
M  V30 23 C 0.784624 1.778613 -0.062518 0
M  V30 24 C 0.742105 -1.301608 -1.994626 0
M  V30 25 H 1.681516 -6.269297 -2.569432 0
M  V30 26 H 0.985033 -6.473721 -4.199110 0
M  V30 27 H 2.436384 -5.452406 -3.982736 0
M  V30 28 H 2.253342 -3.079807 -3.570892 0
M  V30 29 H 0.270145 -1.657362 -5.267799 0
M  V30 30 H -0.580971 0.682385 -4.998740 0
M  V30 31 H -1.183779 2.220342 -1.725972 0
M  V30 32 H 0.062942 2.837804 -2.965078 0
M  V30 33 H -1.511152 2.220162 -3.454438 0
M  V30 34 H -0.485125 -1.354707 0.338702 0
M  V30 35 H -0.466800 -0.700519 2.649608 0
M  V30 36 H -0.410697 -0.048656 4.581799 0
M  V30 37 H 0.999189 1.665742 6.451597 0
M  V30 38 H -0.636939 2.275024 6.223444 0
M  V30 39 H -0.676434 0.816411 8.112947 0
M  V30 40 H 0.347262 -1.447675 8.206806 0
M  V30 41 H 0.895937 -1.316905 6.444823 0
M  V30 42 H -1.510163 -1.237850 5.821856 0
M  V30 43 H -2.057173 -1.177719 7.567348 0
M  V30 44 H 1.127818 3.081037 1.561906 0
M  V30 45 H 1.113447 2.410366 -0.849939 0
M  V30 46 H 1.123262 -1.877055 -1.137253 0
M  V30 END ATOM
M  V30 BEGIN BOND
M  V30 1 1 1 2
M  V30 2 2 2 3
M  V30 3 1 2 4
M  V30 4 1 4 5
M  V30 5 2 5 6
M  V30 6 1 6 7
M  V30 7 2 7 8
M  V30 8 1 8 9
M  V30 9 1 8 10
M  V30 10 1 10 11
M  V30 11 2 11 12
M  V30 12 1 12 13
M  V30 13 2 13 14
M  V30 14 1 14 15
M  V30 15 2 15 16
M  V30 16 1 15 17
M  V30 17 1 17 18
M  V30 18 1 18 19
M  V30 19 1 19 20
M  V30 20 1 20 21
M  V30 21 1 14 22
M  V30 22 2 22 23
M  V30 23 2 10 24
M  V30 24 1 24 5
M  V30 25 1 23 11
M  V30 26 1 21 19
M  V30 27 1 1 25
M  V30 28 1 1 26
M  V30 29 1 1 27
M  V30 30 1 4 28
M  V30 31 1 6 29
M  V30 32 1 7 30
M  V30 33 1 9 31
M  V30 34 1 9 32
M  V30 35 1 9 33
M  V30 36 1 12 34
M  V30 37 1 13 35
M  V30 38 1 17 36
M  V30 39 1 18 37
M  V30 40 1 18 38
M  V30 41 1 19 39
M  V30 42 1 20 40
M  V30 43 1 20 41
M  V30 44 1 21 42
M  V30 45 1 21 43
M  V30 46 1 22 44
M  V30 47 1 23 45
M  V30 48 1 24 46
M  V30 END BOND
M  V30 END CTAB
M  END
>  <Dataset>  (432) 
ChEMBL_Kinases

>  <Ligand_Instance>  (432) 
nan

>  <PDB_ID>  (432) 
nan

>  <Standardized_SMILES>  (432) 
CC(=O)Nc1ccc(C)c(-c2ccc(C(=O)NCC3CC3)cc2)c1

>  <Name>  (432) 
nan

>  <Pocket>  (432) 
nan

>  <ATP_Site>  (432) 
nan

>  <Peripheral>  (432) 
nan

>  <Num_H_Atoms_ProtBoundConf>  (432) 
nan

>  <Num_Resolved_Atoms>  (432) 
nan

>  <Num_Not_Resolved_Atoms>  (432) 
nan

$$$$
CHEMBL4217261
     RDKit          3D

  0  0  0  0  0  0  0  0  0  0999 V3000
M  V30 BEGIN CTAB
M  V30 COUNTS 57 60 0 0 0
M  V30 BEGIN ATOM
M  V30 1 C 0.038775 -0.820976 2.980033 0
M  V30 2 C 1.296287 -1.564320 2.670322 0
M  V30 3 N 2.495650 -0.879117 2.902831 0
M  V30 4 C 2.837640 -0.600489 4.233058 0
M  V30 5 C 4.136621 0.132947 4.434152 0
M  V30 6 C 3.248934 -0.370963 1.839399 0 CFG=1
M  V30 7 C 3.602761 -1.560945 0.933262 0
M  V30 8 C 2.709757 0.769308 1.060037 0
M  V30 9 N 1.459632 0.559000 0.392685 0
M  V30 10 C 1.138716 1.782170 -0.280970 0
M  V30 11 O 2.005444 2.704827 -0.121445 0
M  V30 12 C -0.030074 2.074612 -1.099994 0
M  V30 13 C -0.109870 3.358314 -1.592040 0
M  V30 14 C -1.191529 3.722248 -2.386198 0
M  V30 15 N -2.121387 2.807438 -2.645577 0
M  V30 16 C -2.073774 1.546101 -2.181415 0
M  V30 17 C -3.176820 0.678824 -2.563905 0
M  V30 18 C -4.255505 1.036235 -3.324834 0
M  V30 19 N -5.080263 0.001854 -3.491612 0
M  V30 20 N -4.579939 -1.057444 -2.855551 0
M  V30 21 C -5.076219 -2.301080 -2.760185 0
M  V30 22 C -4.378511 -3.248342 -2.042617 0
M  V30 23 C -3.180497 -2.832227 -1.455795 0
M  V30 24 C -2.389014 -3.786418 -0.683797 0
M  V30 25 C -2.661809 -5.076539 -0.444258 0
M  V30 26 C -1.816465 -5.839785 0.298706 0
M  V30 27 C -0.644429 -5.171745 0.790632 0
M  V30 28 S -0.876475 -3.442100 0.112542 0
M  V30 29 N -2.704955 -1.557820 -1.572845 0
M  V30 30 C -3.425564 -0.646656 -2.292865 0
M  V30 31 C -1.014199 1.159046 -1.392864 0
M  V30 32 H -0.763514 -1.208358 2.318935 0
M  V30 33 H 0.089338 0.275272 2.805803 0
M  V30 34 H -0.328300 -1.040684 4.016843 0
M  V30 35 H 1.226824 -1.983659 1.655975 0
M  V30 36 H 1.288498 -2.466061 3.359110 0
M  V30 37 H 2.935937 -1.570791 4.778600 0
M  V30 38 H 2.068059 -0.036463 4.819482 0
M  V30 39 H 4.223775 0.316326 5.530906 0
M  V30 40 H 4.188846 1.101387 3.941810 0
M  V30 41 H 5.024679 -0.486367 4.170789 0
M  V30 42 H 4.259594 -0.074439 2.260663 0
M  V30 43 H 4.524211 -1.358159 0.363065 0
M  V30 44 H 2.746618 -1.826569 0.277726 0
M  V30 45 H 3.801112 -2.454875 1.563091 0
M  V30 46 H 3.498011 1.143757 0.364611 0
M  V30 47 H 2.559352 1.614294 1.793173 0
M  V30 48 H 0.714718 -0.155299 0.225396 0
M  V30 49 H 0.608298 4.149775 -1.420867 0
M  V30 50 H -1.287626 4.726288 -2.792507 0
M  V30 51 H -4.455770 2.028786 -3.759877 0
M  V30 52 H -6.011529 -2.578152 -3.233254 0
M  V30 53 H -4.719256 -4.245340 -1.932099 0
M  V30 54 H -3.573033 -5.538445 -0.844733 0
M  V30 55 H -1.933892 -6.887880 0.554477 0
M  V30 56 H 0.152624 -5.704166 1.433218 0
M  V30 57 H -0.958484 0.170114 -1.018135 0
M  V30 END ATOM
M  V30 BEGIN BOND
M  V30 1 1 1 2
M  V30 2 1 2 3
M  V30 3 1 3 4
M  V30 4 1 4 5
M  V30 5 1 3 6
M  V30 6 1 6 7
M  V30 7 1 6 8
M  V30 8 1 8 9
M  V30 9 1 9 10
M  V30 10 2 10 11
M  V30 11 1 10 12
M  V30 12 2 12 13
M  V30 13 1 13 14
M  V30 14 2 14 15
M  V30 15 1 15 16
M  V30 16 1 16 17
M  V30 17 1 17 18
M  V30 18 2 18 19
M  V30 19 1 19 20
M  V30 20 1 20 21
M  V30 21 2 21 22
M  V30 22 1 22 23
M  V30 23 1 23 24
M  V30 24 2 24 25
M  V30 25 1 25 26
M  V30 26 2 26 27
M  V30 27 1 27 28
M  V30 28 2 23 29
M  V30 29 1 29 30
M  V30 30 2 16 31
M  V30 31 1 31 12
M  V30 32 2 30 17
M  V30 33 1 30 20
M  V30 34 1 28 24
M  V30 35 1 1 32
M  V30 36 1 1 33
M  V30 37 1 1 34
M  V30 38 1 2 35
M  V30 39 1 2 36
M  V30 40 1 4 37
M  V30 41 1 4 38
M  V30 42 1 5 39
M  V30 43 1 5 40
M  V30 44 1 5 41
M  V30 45 1 6 42 CFG=1
M  V30 46 1 7 43
M  V30 47 1 7 44
M  V30 48 1 7 45
M  V30 49 1 8 46
M  V30 50 1 8 47
M  V30 51 1 9 48
M  V30 52 1 13 49
M  V30 53 1 14 50
M  V30 54 1 18 51
M  V30 55 1 21 52
M  V30 56 1 22 53
M  V30 57 1 25 54
M  V30 58 1 26 55
M  V30 59 1 27 56
M  V30 60 1 31 57
M  V30 END BOND
M  V30 END CTAB
M  END
>  <Dataset>  (433) 
ChEMBL_Kinases

>  <Ligand_Instance>  (433) 
nan

>  <PDB_ID>  (433) 
nan

>  <Standardized_SMILES>  (433) 
CCN(CC)[C@@H](C)CNC(=O)c1ccnc(-c2cnn3ccc(-c4cccs4)nc23)c1

>  <Name>  (433) 
nan

>  <Pocket>  (433) 
nan

>  <ATP_Site>  (433) 
nan

>  <Peripheral>  (433) 
nan

>  <Num_H_Atoms_ProtBoundConf>  (433) 
nan

>  <Num_Resolved_Atoms>  (433) 
nan

>  <Num_Not_Resolved_Atoms>  (433) 
nan

$$$$
CHEMBL4217233
     RDKit          3D

  0  0  0  0  0  0  0  0  0  0999 V3000
M  V30 BEGIN CTAB
M  V30 COUNTS 50 54 0 0 0
M  V30 BEGIN ATOM
M  V30 1 F 4.346174 -5.507706 1.628793 0
M  V30 2 C 3.777756 -4.735012 0.679309 0
M  V30 3 C 3.610950 -5.321408 -0.563773 0
M  V30 4 C 3.041296 -4.586467 -1.554514 0
M  V30 5 C 2.636883 -3.272538 -1.321369 0
M  V30 6 C 2.825448 -2.732512 -0.062357 0
M  V30 7 N 2.429690 -1.390988 0.253902 0
M  V30 8 C 3.110916 -0.361509 0.786021 0
M  V30 9 N 2.197492 0.630988 0.833492 0
M  V30 10 C 0.974343 0.138713 0.312869 0
M  V30 11 C 0.295480 1.265310 0.468966 0
M  V30 12 N -0.413193 2.441188 0.631849 0
M  V30 13 C 0.374604 3.442749 1.312341 0
M  V30 14 C 0.670303 3.049860 2.734489 0
M  V30 15 C -0.335462 3.408227 3.603280 0
M  V30 16 C -0.312455 3.169271 4.967303 0
M  V30 17 C 0.794853 2.528122 5.488825 0
M  V30 18 C 1.816508 2.162311 4.624135 0
M  V30 19 N 1.687058 2.440883 3.341801 0
M  V30 20 N -0.888760 0.703474 -0.074307 0
M  V30 21 C -1.046025 -0.569716 -0.531631 0
M  V30 22 N -2.224984 -1.223336 -1.134392 0
M  V30 23 C -2.545278 -2.592062 -0.789398 0
M  V30 24 C -4.008195 -2.885779 -0.795193 0
M  V30 25 O -4.693709 -2.285684 -1.822017 0
M  V30 26 C -4.486585 -0.915999 -1.910800 0
M  V30 27 C -3.050218 -0.525217 -2.072787 0
M  V30 28 N -0.038364 -1.494255 -0.520528 0
M  V30 29 C 1.149791 -1.136121 -0.044019 0
M  V30 30 C 3.389890 -3.434596 0.953343 0
M  V30 31 H 3.922043 -6.351869 -0.776057 0
M  V30 32 H 2.895729 -5.020343 -2.542639 0
M  V30 33 H 2.184521 -2.686294 -2.107715 0
M  V30 34 H 4.148909 -0.404102 1.078607 0
M  V30 35 H -1.269057 2.933092 0.481586 0
M  V30 36 H -0.048282 4.439606 1.290539 0
M  V30 37 H 1.363124 3.534872 0.769251 0
M  V30 38 H -1.259590 3.917143 3.310020 0
M  V30 39 H -1.040498 3.406561 5.721806 0
M  V30 40 H 0.974315 2.258133 6.540609 0
M  V30 41 H 2.756561 1.653147 4.871159 0
M  V30 42 H -1.935749 -3.270637 -1.383424 0
M  V30 43 H -2.182522 -2.697677 0.281597 0
M  V30 44 H -4.124315 -3.985174 -0.891288 0
M  V30 45 H -4.449184 -2.622987 0.207413 0
M  V30 46 H -5.017399 -0.321606 -1.137602 0
M  V30 47 H -4.989973 -0.594629 -2.875816 0
M  V30 48 H -2.968497 0.568162 -1.926455 0
M  V30 49 H -2.708826 -0.744112 -3.129709 0
M  V30 50 H 3.564004 -3.062912 1.963748 0
M  V30 END ATOM
M  V30 BEGIN BOND
M  V30 1 1 1 2
M  V30 2 2 2 3
M  V30 3 1 3 4
M  V30 4 2 4 5
M  V30 5 1 5 6
M  V30 6 1 6 7
M  V30 7 1 7 8
M  V30 8 2 8 9
M  V30 9 1 9 10
M  V30 10 2 10 11
M  V30 11 1 11 12
M  V30 12 1 12 13
M  V30 13 1 13 14
M  V30 14 2 14 15
M  V30 15 1 15 16
M  V30 16 2 16 17
M  V30 17 1 17 18
M  V30 18 2 18 19
M  V30 19 1 11 20
M  V30 20 2 20 21
M  V30 21 1 21 22
M  V30 22 1 22 23
M  V30 23 1 23 24
M  V30 24 1 24 25
M  V30 25 1 25 26
M  V30 26 1 26 27
M  V30 27 1 21 28
M  V30 28 2 28 29
M  V30 29 2 6 30
M  V30 30 1 30 2
M  V30 31 1 29 7
M  V30 32 1 29 10
M  V30 33 1 19 14
M  V30 34 1 27 22
M  V30 35 1 3 31
M  V30 36 1 4 32
M  V30 37 1 5 33
M  V30 38 1 8 34
M  V30 39 1 12 35
M  V30 40 1 13 36
M  V30 41 1 13 37
M  V30 42 1 15 38
M  V30 43 1 16 39
M  V30 44 1 17 40
M  V30 45 1 18 41
M  V30 46 1 23 42
M  V30 47 1 23 43
M  V30 48 1 24 44
M  V30 49 1 24 45
M  V30 50 1 26 46
M  V30 51 1 26 47
M  V30 52 1 27 48
M  V30 53 1 27 49
M  V30 54 1 30 50
M  V30 END BOND
M  V30 END CTAB
M  END
>  <Dataset>  (434) 
ChEMBL_Kinases

>  <Ligand_Instance>  (434) 
nan

>  <PDB_ID>  (434) 
nan

>  <Standardized_SMILES>  (434) 
Fc1cccc(-n2cnc3c(NCc4ccccn4)nc(N4CCOCC4)nc32)c1

>  <Name>  (434) 
nan

>  <Pocket>  (434) 
nan

>  <ATP_Site>  (434) 
nan

>  <Peripheral>  (434) 
nan

>  <Num_H_Atoms_ProtBoundConf>  (434) 
nan

>  <Num_Resolved_Atoms>  (434) 
nan

>  <Num_Not_Resolved_Atoms>  (434) 
nan

$$$$
CHEMBL4217207
     RDKit          3D

  0  0  0  0  0  0  0  0  0  0999 V3000
M  V30 BEGIN CTAB
M  V30 COUNTS 48 51 0 0 0
M  V30 BEGIN ATOM
M  V30 1 C -2.676447 -7.608861 -0.654969 0
M  V30 2 N -1.422957 -6.871272 -0.633859 0
M  V30 3 C -1.216015 -5.587724 -1.227768 0
M  V30 4 O -2.214849 -5.085751 -1.804945 0
M  V30 5 C 0.114736 -4.978271 -1.116070 0
M  V30 6 C 0.297032 -3.736784 -1.696220 0
M  V30 7 C 1.529906 -3.108447 -1.625471 0
M  V30 8 O 1.816665 -1.850985 -2.180466 0
M  V30 9 C 1.642160 -0.681058 -1.456824 0
M  V30 10 C 2.540312 -0.018906 -0.644620 0
M  V30 11 C 2.145687 1.143145 -0.015223 0
M  V30 12 C 0.874206 1.649938 -0.184749 0
M  V30 13 C 0.462007 2.875447 0.480662 0
M  V30 14 N -0.683530 3.467403 0.419813 0
M  V30 15 N -0.711468 4.629304 1.197245 0
M  V30 16 C 0.290981 4.354683 2.238043 0
M  V30 17 C -0.365769 3.458918 3.199991 0
M  V30 18 C 0.140858 2.335093 3.767709 0
M  V30 19 C -0.553807 1.551446 4.666928 0
M  V30 20 C -1.837463 1.914466 5.021503 0
M  V30 21 C -2.384342 3.049330 4.465152 0
M  V30 22 Br -4.164813 3.504409 4.991900 0
M  V30 23 C -1.662905 3.829807 3.555364 0
M  V30 24 C 1.339556 3.692986 1.390053 0
M  V30 25 C -0.042832 0.998492 -0.997315 0
M  V30 26 C 0.347665 -0.181646 -1.640656 0
M  V30 27 C 2.556777 -3.754415 -0.965271 0
M  V30 28 C 2.333386 -5.005419 -0.393356 0
M  V30 29 N 1.129402 -5.597996 -0.473264 0
M  V30 30 H -2.582038 -8.638623 -1.005394 0
M  V30 31 H -3.420627 -7.058881 -1.281019 0
M  V30 32 H -3.093639 -7.546748 0.382477 0
M  V30 33 H -0.620542 -7.333120 -0.140082 0
M  V30 34 H -0.487188 -3.207051 -2.219149 0
M  V30 35 H 3.494314 -0.491745 -0.580277 0
M  V30 36 H 2.878273 1.631579 0.612195 0
M  V30 37 H -1.242901 5.526376 1.170526 0
M  V30 38 H 0.612096 5.276181 2.741018 0
M  V30 39 H 1.145830 2.077837 3.470665 0
M  V30 40 H -0.124700 0.664417 5.100990 0
M  V30 41 H -2.387402 1.287087 5.738437 0
M  V30 42 H -2.170057 4.694758 3.174725 0
M  V30 43 H 1.850359 4.500862 0.827376 0
M  V30 44 H 2.063040 3.089058 1.922491 0
M  V30 45 H -1.030943 1.426165 -1.106103 0
M  V30 46 H -0.431386 -0.612622 -2.247846 0
M  V30 47 H 3.545353 -3.301693 -0.882261 0
M  V30 48 H 3.122045 -5.538379 0.132642 0
M  V30 END ATOM
M  V30 BEGIN BOND
M  V30 1 1 1 2
M  V30 2 1 2 3
M  V30 3 2 3 4
M  V30 4 1 3 5
M  V30 5 2 5 6
M  V30 6 1 6 7
M  V30 7 1 7 8
M  V30 8 1 8 9
M  V30 9 2 9 10
M  V30 10 1 10 11
M  V30 11 2 11 12
M  V30 12 1 12 13
M  V30 13 2 13 14
M  V30 14 1 14 15
M  V30 15 1 15 16
M  V30 16 1 16 17
M  V30 17 2 17 18
M  V30 18 1 18 19
M  V30 19 2 19 20
M  V30 20 1 20 21
M  V30 21 1 21 22
M  V30 22 2 21 23
M  V30 23 1 16 24
M  V30 24 1 12 25
M  V30 25 2 25 26
M  V30 26 2 7 27
M  V30 27 1 27 28
M  V30 28 2 28 29
M  V30 29 1 29 5
M  V30 30 1 26 9
M  V30 31 1 24 13
M  V30 32 1 23 17
M  V30 33 1 1 30
M  V30 34 1 1 31
M  V30 35 1 1 32
M  V30 36 1 2 33
M  V30 37 1 6 34
M  V30 38 1 10 35
M  V30 39 1 11 36
M  V30 40 1 15 37
M  V30 41 1 16 38
M  V30 42 1 18 39
M  V30 43 1 19 40
M  V30 44 1 20 41
M  V30 45 1 23 42
M  V30 46 1 24 43
M  V30 47 1 24 44
M  V30 48 1 25 45
M  V30 49 1 26 46
M  V30 50 1 27 47
M  V30 51 1 28 48
M  V30 END BOND
M  V30 END CTAB
M  END
>  <Dataset>  (435) 
ChEMBL_Kinases

>  <Ligand_Instance>  (435) 
nan

>  <PDB_ID>  (435) 
nan

>  <Standardized_SMILES>  (435) 
CNC(=O)c1cc(Oc2ccc(C3=NNC(c4cccc(Br)c4)C3)cc2)ccn1

>  <Name>  (435) 
nan

>  <Pocket>  (435) 
nan

>  <ATP_Site>  (435) 
nan

>  <Peripheral>  (435) 
nan

>  <Num_H_Atoms_ProtBoundConf>  (435) 
nan

>  <Num_Resolved_Atoms>  (435) 
nan

>  <Num_Not_Resolved_Atoms>  (435) 
nan

$$$$
CHEMBL4217093
     RDKit          3D

  0  0  0  0  0  0  0  0  0  0999 V3000
M  V30 BEGIN CTAB
M  V30 COUNTS 56 59 0 0 0
M  V30 BEGIN ATOM
M  V30 1 C -0.567098 -4.321826 3.768237 0
M  V30 2 C 0.528820 -3.824569 2.932024 0
M  V30 3 C 0.751967 -2.458991 2.785020 0
M  V30 4 C 1.801612 -2.060567 1.982404 0
M  V30 5 C 2.664355 -2.917006 1.300946 0
M  V30 6 C 3.737847 -2.321640 0.483152 0
M  V30 7 S 3.213439 -2.018262 -1.224987 0
M  V30 8 C 1.943922 -0.750455 -1.191020 0
M  V30 9 N 2.155414 0.588528 -1.265977 0
M  V30 10 C 1.080112 1.406766 -1.223842 0
M  V30 11 N 1.371291 2.795302 -1.308139 0
M  V30 12 C 1.549752 3.198805 0.045057 0
M  V30 13 C 0.624062 3.669393 0.960014 0
M  V30 14 C 1.255262 3.938053 2.156462 0
M  V30 15 C 0.596454 4.462677 3.390328 0
M  V30 16 N 2.544246 3.630926 1.958220 0
M  V30 17 N 2.699116 3.198196 0.712252 0
M  V30 18 C -0.197669 0.897996 -1.107870 0
M  V30 19 C -0.412662 -0.460413 -1.031722 0
M  V30 20 N -1.709695 -1.035188 -0.910203 0
M  V30 21 C -2.879140 -0.215595 -0.837451 0
M  V30 22 C -4.130791 -0.945716 -1.223749 0
M  V30 23 N -3.896477 -2.113143 -2.038917 0
M  V30 24 C -3.151864 -1.852956 -3.239927 0
M  V30 25 C -3.132097 -3.035688 -1.227505 0
M  V30 26 C -1.792838 -2.487468 -0.864513 0
M  V30 27 N 0.701983 -1.195438 -1.080469 0
M  V30 28 C 2.423211 -4.277734 1.462010 0
M  V30 29 C 1.360816 -4.694175 2.274048 0
M  V30 30 H -0.244380 -4.723512 4.743474 0
M  V30 31 H -1.267275 -3.480217 3.963566 0
M  V30 32 H -1.183479 -5.107633 3.296157 0
M  V30 33 H 0.130111 -1.726887 3.279321 0
M  V30 34 H 1.948205 -0.995923 1.886804 0
M  V30 35 H 3.992476 -1.323632 0.906546 0
M  V30 36 H 4.643425 -2.938139 0.437706 0
M  V30 37 H 1.507268 3.620068 -1.909873 0
M  V30 38 H -0.442703 3.795420 0.727391 0
M  V30 39 H 0.253633 5.485181 3.211660 0
M  V30 40 H -0.272268 3.828172 3.666052 0
M  V30 41 H 1.320537 4.401005 4.235243 0
M  V30 42 H 3.292779 3.726122 2.681519 0
M  V30 43 H -1.024931 1.581960 -1.077848 0
M  V30 44 H -2.777414 0.636094 -1.532222 0
M  V30 45 H -3.036057 0.215720 0.190839 0
M  V30 46 H -4.642065 -1.282966 -0.310431 0
M  V30 47 H -4.846728 -0.286977 -1.766636 0
M  V30 48 H -2.951883 -0.771005 -3.404000 0
M  V30 49 H -3.748281 -2.223611 -4.099887 0
M  V30 50 H -2.178468 -2.382711 -3.301974 0
M  V30 51 H -3.743013 -3.255722 -0.326287 0
M  V30 52 H -2.984521 -3.993628 -1.764255 0
M  V30 53 H -1.539091 -2.803662 0.146501 0
M  V30 54 H -0.977674 -2.883027 -1.526257 0
M  V30 55 H 3.076073 -4.945797 0.946502 0
M  V30 56 H 1.185879 -5.770366 2.389350 0
M  V30 END ATOM
M  V30 BEGIN BOND
M  V30 1 1 1 2
M  V30 2 2 2 3
M  V30 3 1 3 4
M  V30 4 2 4 5
M  V30 5 1 5 6
M  V30 6 1 6 7
M  V30 7 1 7 8
M  V30 8 2 8 9
M  V30 9 1 9 10
M  V30 10 1 10 11
M  V30 11 1 11 12
M  V30 12 1 12 13
M  V30 13 2 13 14
M  V30 14 1 14 15
M  V30 15 1 14 16
M  V30 16 1 16 17
M  V30 17 2 10 18
M  V30 18 1 18 19
M  V30 19 1 19 20
M  V30 20 1 20 21
M  V30 21 1 21 22
M  V30 22 1 22 23
M  V30 23 1 23 24
M  V30 24 1 23 25
M  V30 25 1 25 26
M  V30 26 2 19 27
M  V30 27 1 5 28
M  V30 28 2 28 29
M  V30 29 1 29 2
M  V30 30 1 27 8
M  V30 31 2 17 12
M  V30 32 1 26 20
M  V30 33 1 1 30
M  V30 34 1 1 31
M  V30 35 1 1 32
M  V30 36 1 3 33
M  V30 37 1 4 34
M  V30 38 1 6 35
M  V30 39 1 6 36
M  V30 40 1 11 37
M  V30 41 1 13 38
M  V30 42 1 15 39
M  V30 43 1 15 40
M  V30 44 1 15 41
M  V30 45 1 16 42
M  V30 46 1 18 43
M  V30 47 1 21 44
M  V30 48 1 21 45
M  V30 49 1 22 46
M  V30 50 1 22 47
M  V30 51 1 24 48
M  V30 52 1 24 49
M  V30 53 1 24 50
M  V30 54 1 25 51
M  V30 55 1 25 52
M  V30 56 1 26 53
M  V30 57 1 26 54
M  V30 58 1 28 55
M  V30 59 1 29 56
M  V30 END BOND
M  V30 END CTAB
M  END
>  <Dataset>  (436) 
ChEMBL_Kinases

>  <Ligand_Instance>  (436) 
nan

>  <PDB_ID>  (436) 
nan

>  <Standardized_SMILES>  (436) 
Cc1ccc(CSc2nc(Nc3cc(C)[nH]n3)cc(N3CCN(C)CC3)n2)cc1

>  <Name>  (436) 
nan

>  <Pocket>  (436) 
nan

>  <ATP_Site>  (436) 
nan

>  <Peripheral>  (436) 
nan

>  <Num_H_Atoms_ProtBoundConf>  (436) 
nan

>  <Num_Resolved_Atoms>  (436) 
nan

>  <Num_Not_Resolved_Atoms>  (436) 
nan

$$$$
CHEMBL4217077
     RDKit          3D

  0  0  0  0  0  0  0  0  0  0999 V3000
M  V30 BEGIN CTAB
M  V30 COUNTS 60 65 0 0 0
M  V30 BEGIN ATOM
M  V30 1 O 3.180080 -2.750057 2.118288 0
M  V30 2 C 2.083837 -2.067429 2.009539 0
M  V30 3 C 1.430661 -0.978453 2.773370 0
M  V30 4 C 1.314308 0.335913 2.148231 0
M  V30 5 C 0.062768 0.981509 2.107678 0
M  V30 6 C -0.227504 2.197891 1.531398 0
M  V30 7 C 0.789929 2.892800 0.917471 0
M  V30 8 C 2.052488 2.343622 0.906815 0
M  V30 9 C 3.098750 3.020940 0.324580 0
M  V30 10 C 4.385278 2.516603 0.316017 0
M  V30 11 C 4.593582 1.275024 0.928619 0
M  V30 12 C 3.527356 0.652469 1.485182 0
M  V30 13 C 2.238132 1.123347 1.510161 0
M  V30 14 O 0.082234 -1.469411 2.974067 0
M  V30 15 C -0.662667 -1.941095 1.900552 0
M  V30 16 C -2.053419 -1.882964 1.857521 0
M  V30 17 C -2.840317 -2.335398 0.825969 0
M  V30 18 N -4.235848 -2.222549 0.892009 0
M  V30 19 C -4.996399 -1.619494 1.937664 0
M  V30 20 C -6.149279 -0.760298 1.469031 0
M  V30 21 O -6.928745 -1.349563 0.506785 0
M  V30 22 C -6.126214 -1.623358 -0.582576 0
M  V30 23 C -5.153635 -2.708830 -0.100761 0
M  V30 24 C -2.173872 -2.883136 -0.231945 0
M  V30 25 C -0.798169 -2.965958 -0.242024 0
M  V30 26 C -0.022385 -2.511329 0.791579 0
M  V30 27 N 1.420821 -2.587224 0.822655 0
M  V30 28 C 2.117749 -3.184210 -0.300704 0
M  V30 29 C 2.511632 -2.116169 -1.241687 0
M  V30 30 C 1.825434 -1.583062 -2.293433 0
M  V30 31 C 2.276050 -0.590802 -3.132303 0
M  V30 32 C 3.523769 -0.058333 -2.931286 0
M  V30 33 F 4.003622 0.916245 -3.730567 0
M  V30 34 C 4.266336 -0.541086 -1.900482 0
M  V30 35 C 3.775893 -1.523758 -1.098045 0
M  V30 36 H 1.878299 -0.898158 3.801817 0
M  V30 37 H -0.804026 0.530736 2.572599 0
M  V30 38 H -1.208791 2.637562 1.534528 0
M  V30 39 H 0.619679 3.831841 0.458405 0
M  V30 40 H 2.855430 3.990810 -0.136170 0
M  V30 41 H 5.157737 3.106790 -0.161852 0
M  V30 42 H 5.607137 0.878597 0.922671 0
M  V30 43 H 3.757404 -0.281760 1.954800 0
M  V30 44 H -2.476137 -1.433570 2.744808 0
M  V30 45 H -5.476009 -2.450048 2.534946 0
M  V30 46 H -4.443239 -1.013791 2.661176 0
M  V30 47 H -5.804338 0.239651 1.112119 0
M  V30 48 H -6.788251 -0.549521 2.351860 0
M  V30 49 H -5.598275 -0.770614 -1.014179 0
M  V30 50 H -6.707493 -2.122782 -1.398436 0
M  V30 51 H -5.830330 -3.463702 0.399350 0
M  V30 52 H -4.709026 -3.108207 -1.012508 0
M  V30 53 H -2.706103 -3.267379 -1.090903 0
M  V30 54 H -0.333264 -3.408333 -1.086933 0
M  V30 55 H 3.079626 -3.640170 0.082076 0
M  V30 56 H 1.508501 -3.992170 -0.749233 0
M  V30 57 H 0.841373 -1.969695 -2.493059 0
M  V30 58 H 1.648657 -0.238594 -3.938813 0
M  V30 59 H 5.248212 -0.112124 -1.754126 0
M  V30 60 H 4.447650 -1.842729 -0.299441 0
M  V30 END ATOM
M  V30 BEGIN BOND
M  V30 1 2 1 2
M  V30 2 1 2 3
M  V30 3 1 3 4
M  V30 4 2 4 5
M  V30 5 1 5 6
M  V30 6 2 6 7
M  V30 7 1 7 8
M  V30 8 2 8 9
M  V30 9 1 9 10
M  V30 10 2 10 11
M  V30 11 1 11 12
M  V30 12 2 12 13
M  V30 13 1 3 14
M  V30 14 1 14 15
M  V30 15 2 15 16
M  V30 16 1 16 17
M  V30 17 1 17 18
M  V30 18 1 18 19
M  V30 19 1 19 20
M  V30 20 1 20 21
M  V30 21 1 21 22
M  V30 22 1 22 23
M  V30 23 2 17 24
M  V30 24 1 24 25
M  V30 25 2 25 26
M  V30 26 1 26 27
M  V30 27 1 27 28
M  V30 28 1 28 29
M  V30 29 2 29 30
M  V30 30 1 30 31
M  V30 31 2 31 32
M  V30 32 1 32 33
M  V30 33 1 32 34
M  V30 34 2 34 35
M  V30 35 1 27 2
M  V30 36 1 35 29
M  V30 37 1 13 4
M  V30 38 1 26 15
M  V30 39 1 13 8
M  V30 40 1 23 18
M  V30 41 1 3 36
M  V30 42 1 5 37
M  V30 43 1 6 38
M  V30 44 1 7 39
M  V30 45 1 9 40
M  V30 46 1 10 41
M  V30 47 1 11 42
M  V30 48 1 12 43
M  V30 49 1 16 44
M  V30 50 1 19 45
M  V30 51 1 19 46
M  V30 52 1 20 47
M  V30 53 1 20 48
M  V30 54 1 22 49
M  V30 55 1 22 50
M  V30 56 1 23 51
M  V30 57 1 23 52
M  V30 58 1 24 53
M  V30 59 1 25 54
M  V30 60 1 28 55
M  V30 61 1 28 56
M  V30 62 1 30 57
M  V30 63 1 31 58
M  V30 64 1 34 59
M  V30 65 1 35 60
M  V30 END BOND
M  V30 END CTAB
M  END
>  <Dataset>  (437) 
ChEMBL_Kinases

>  <Ligand_Instance>  (437) 
nan

>  <PDB_ID>  (437) 
nan

>  <Standardized_SMILES>  (437) 
O=C1C(c2cccc3ccccc23)Oc2cc(N3CCOCC3)ccc2N1Cc1ccc(F)cc1

>  <Name>  (437) 
nan

>  <Pocket>  (437) 
nan

>  <ATP_Site>  (437) 
nan

>  <Peripheral>  (437) 
nan

>  <Num_H_Atoms_ProtBoundConf>  (437) 
nan

>  <Num_Resolved_Atoms>  (437) 
nan

>  <Num_Not_Resolved_Atoms>  (437) 
nan

$$$$
CHEMBL4778413
     RDKit          3D

  0  0  0  0  0  0  0  0  0  0999 V3000
M  V30 BEGIN CTAB
M  V30 COUNTS 28 30 0 0 0
M  V30 BEGIN ATOM
M  V30 1 C -3.213847 -1.412188 3.491242 0
M  V30 2 N -1.846719 -1.792774 3.810862 0
M  V30 3 C -0.959972 -2.056393 2.725143 0
M  V30 4 N -0.509222 -3.230921 2.200053 0
M  V30 5 C 0.328002 -3.211350 1.129132 0
M  V30 6 C 0.694066 -1.972545 0.605805 0
M  V30 7 C 1.556821 -1.996762 -0.495375 0
M  V30 8 C 1.878933 -0.753719 -0.960734 0
M  V30 9 C 2.741292 -0.731935 -2.058190 0
M  V30 10 N 3.162336 0.435153 -2.640024 0
M  V30 11 C 2.731798 1.617889 -2.141186 0
M  V30 12 C 1.872169 1.691927 -1.051065 0
M  V30 13 C 1.493646 0.488718 -0.521045 0
M  V30 14 C 0.631839 0.442062 0.580607 0
M  V30 15 N 0.126635 1.621162 1.156824 0 CHG=1 VAL=4
M  V30 16 O 1.063742 2.126040 1.805507 0
M  V30 17 O -1.114198 2.257113 1.132470 0 CHG=-1 VAL=1
M  V30 18 C 0.240512 -0.767222 1.132719 0
M  V30 19 N -0.593016 -0.874125 2.203770 0
M  V30 20 H -3.310607 -0.335298 3.800007 0
M  V30 21 H -3.329261 -1.397780 2.390836 0
M  V30 22 H -3.973560 -2.074267 3.908934 0
M  V30 23 H -1.789486 -1.798274 4.863388 0
M  V30 24 H 0.652130 -4.150766 0.755916 0
M  V30 25 H 1.946192 -2.899095 -0.952768 0
M  V30 26 H 3.141156 -1.637630 -2.529018 0
M  V30 27 H 3.072675 2.555704 -2.612207 0
M  V30 28 H 1.511550 2.604290 -0.628993 0
M  V30 END ATOM
M  V30 BEGIN BOND
M  V30 1 1 1 2
M  V30 2 1 2 3
M  V30 3 2 3 4
M  V30 4 1 4 5
M  V30 5 2 5 6
M  V30 6 1 6 7
M  V30 7 2 7 8
M  V30 8 1 8 9
M  V30 9 2 9 10
M  V30 10 1 10 11
M  V30 11 2 11 12
M  V30 12 1 12 13
M  V30 13 2 13 14
M  V30 14 1 14 15
M  V30 15 2 15 16
M  V30 16 1 15 17
M  V30 17 1 14 18
M  V30 18 2 18 19
M  V30 19 1 19 3
M  V30 20 1 18 6
M  V30 21 1 13 8
M  V30 22 1 1 20
M  V30 23 1 1 21
M  V30 24 1 1 22
M  V30 25 1 2 23
M  V30 26 1 5 24
M  V30 27 1 7 25
M  V30 28 1 9 26
M  V30 29 1 11 27
M  V30 30 1 12 28
M  V30 END BOND
M  V30 END CTAB
M  END
>  <Dataset>  (438) 
ChEMBL_Kinases

>  <Ligand_Instance>  (438) 
nan

>  <PDB_ID>  (438) 
nan

>  <Standardized_SMILES>  (438) 
CNc1ncc2cc3cnccc3c([N+](=O)[O-])c2n1

>  <Name>  (438) 
nan

>  <Pocket>  (438) 
nan

>  <ATP_Site>  (438) 
nan

>  <Peripheral>  (438) 
nan

>  <Num_H_Atoms_ProtBoundConf>  (438) 
nan

>  <Num_Resolved_Atoms>  (438) 
nan

>  <Num_Not_Resolved_Atoms>  (438) 
nan

$$$$
CHEMBL4216980
     RDKit          3D

  0  0  0  0  0  0  0  0  0  0999 V3000
M  V30 BEGIN CTAB
M  V30 COUNTS 43 47 0 0 0
M  V30 BEGIN ATOM
M  V30 1 C -1.940615 -5.622428 1.207979 0
M  V30 2 C -0.872969 -4.780089 0.904944 0
M  V30 3 C -0.703449 -3.528974 1.509543 0
M  V30 4 C 0.442397 -2.701500 1.139311 0
M  V30 5 C 1.624117 -3.446015 1.089503 0
M  V30 6 C 2.817519 -2.838600 0.756656 0
M  V30 7 C 2.881580 -1.492294 0.465718 0
M  V30 8 N 3.788427 -0.564551 0.115895 0
M  V30 9 C 3.204036 0.645064 -0.034374 0
M  V30 10 N 1.891092 0.519342 0.219038 0
M  V30 11 C 0.924637 1.601728 0.161341 0
M  V30 12 C 0.614925 1.976283 -1.249179 0
M  V30 13 C 0.742031 3.453648 -1.533942 0
M  V30 14 C 1.971084 4.082990 -0.962544 0
M  V30 15 N 2.307316 3.638949 0.350439 0
M  V30 16 C 1.330596 2.786387 0.974777 0
M  V30 17 C 1.701708 -0.779698 0.521841 0
M  V30 18 C 0.491013 -1.353285 0.850647 0
M  V30 19 C -1.675223 -3.191585 2.430332 0
M  V30 20 C -1.790997 -2.043790 3.187145 0
M  V30 21 C -2.931212 -2.170193 3.962487 0
M  V30 22 N -3.489418 -3.381616 3.670467 0
M  V30 23 C -2.728395 -4.010634 2.736193 0
M  V30 24 N -2.853133 -5.206016 2.130794 0
M  V30 25 H -2.047498 -6.581378 0.727401 0
M  V30 26 H -0.191893 -5.160809 0.175350 0
M  V30 27 H 1.703737 -4.512529 1.297405 0
M  V30 28 H 3.755683 -3.380326 0.706857 0
M  V30 29 H 3.688244 1.580409 -0.312615 0
M  V30 30 H -0.049519 1.250220 0.613194 0
M  V30 31 H -0.435325 1.705926 -1.561107 0
M  V30 32 H 1.252604 1.364803 -1.923317 0
M  V30 33 H 0.834994 3.531512 -2.656412 0
M  V30 34 H -0.203597 3.989357 -1.283844 0
M  V30 35 H 1.759987 5.188453 -0.919542 0
M  V30 36 H 2.826063 3.972972 -1.660927 0
M  V30 37 H 2.445866 4.445765 1.013922 0
M  V30 38 H 0.436423 3.388503 1.188143 0
M  V30 39 H 1.750468 2.481520 1.956072 0
M  V30 40 H -0.461713 -0.875923 0.916254 0
M  V30 41 H -1.133205 -1.185032 3.199024 0
M  V30 42 H -3.325178 -1.453057 4.674870 0
M  V30 43 H -4.378242 -3.722889 4.133052 0
M  V30 END ATOM
M  V30 BEGIN BOND
M  V30 1 2 1 2
M  V30 2 1 2 3
M  V30 3 1 3 4
M  V30 4 2 4 5
M  V30 5 1 5 6
M  V30 6 2 6 7
M  V30 7 1 7 8
M  V30 8 2 8 9
M  V30 9 1 9 10
M  V30 10 1 10 11
M  V30 11 1 11 12
M  V30 12 1 12 13
M  V30 13 1 13 14
M  V30 14 1 14 15
M  V30 15 1 15 16
M  V30 16 1 10 17
M  V30 17 2 17 18
M  V30 18 2 3 19
M  V30 19 1 19 20
M  V30 20 2 20 21
M  V30 21 1 21 22
M  V30 22 1 22 23
M  V30 23 2 23 24
M  V30 24 1 24 1
M  V30 25 1 18 4
M  V30 26 1 23 19
M  V30 27 1 17 7
M  V30 28 1 16 11
M  V30 29 1 1 25
M  V30 30 1 2 26
M  V30 31 1 5 27
M  V30 32 1 6 28
M  V30 33 1 9 29
M  V30 34 1 11 30
M  V30 35 1 12 31
M  V30 36 1 12 32
M  V30 37 1 13 33
M  V30 38 1 13 34
M  V30 39 1 14 35
M  V30 40 1 14 36
M  V30 41 1 15 37
M  V30 42 1 16 38
M  V30 43 1 16 39
M  V30 44 1 18 40
M  V30 45 1 20 41
M  V30 46 1 21 42
M  V30 47 1 22 43
M  V30 END BOND
M  V30 END CTAB
M  END
>  <Dataset>  (439) 
ChEMBL_Kinases

>  <Ligand_Instance>  (439) 
nan

>  <PDB_ID>  (439) 
nan

>  <Standardized_SMILES>  (439) 
c1cc(-c2ccc3ncn(C4CCCNC4)c3c2)c2cc[nH]c2n1

>  <Name>  (439) 
nan

>  <Pocket>  (439) 
nan

>  <ATP_Site>  (439) 
nan

>  <Peripheral>  (439) 
nan

>  <Num_H_Atoms_ProtBoundConf>  (439) 
nan

>  <Num_Resolved_Atoms>  (439) 
nan

>  <Num_Not_Resolved_Atoms>  (439) 
nan

$$$$
CHEMBL4778419
     RDKit          3D

  0  0  0  0  0  0  0  0  0  0999 V3000
M  V30 BEGIN CTAB
M  V30 COUNTS 56 59 0 0 0
M  V30 BEGIN ATOM
M  V30 1 C 0.888052 -4.595881 3.616486 0
M  V30 2 C 0.904247 -3.277366 2.980159 0
M  V30 3 C 1.709678 -2.294533 3.516721 0
M  V30 4 C 1.742219 -1.043423 2.934447 0
M  V30 5 F 2.527706 -0.103110 3.466764 0
M  V30 6 C 0.975304 -0.792293 1.831764 0
M  V30 7 N 1.039293 0.510503 1.263751 0
M  V30 8 C 1.935444 0.951229 0.252231 0
M  V30 9 O 2.796386 0.196164 -0.259905 0
M  V30 10 C 1.901426 2.320193 -0.249794 0
M  V30 11 C 2.795231 2.691281 -1.231647 0
M  V30 12 C 2.835908 3.981047 -1.772716 0
M  V30 13 C 1.940401 4.909138 -1.295917 0
M  V30 14 C 1.030169 4.581512 -0.315644 0
M  V30 15 C 0.050705 5.552899 0.222814 0
M  V30 16 C 0.611298 6.301571 1.412634 0
M  V30 17 C -0.433926 6.543726 -0.813147 0
M  V30 18 C -1.119493 4.791831 0.713811 0
M  V30 19 N -2.011350 4.193932 1.104340 0
M  V30 20 C 1.029133 3.296594 0.186409 0
M  V30 21 C 0.166442 -1.801542 1.303997 0
M  V30 22 C 0.112577 -3.072196 1.868854 0
M  V30 23 C -0.753809 -4.080021 1.267327 0
M  V30 24 C -1.593977 -4.915023 1.974344 0
M  V30 25 N -2.379733 -5.834045 1.385540 0
M  V30 26 C -2.412089 -6.015998 0.056694 0
M  V30 27 C -3.242302 -6.977245 -0.477512 0
M  V30 28 O -3.971744 -7.687870 0.266184 0
M  V30 29 N -3.219898 -7.100770 -1.816737 0
M  V30 30 C -4.063706 -8.087458 -2.446427 0
M  V30 31 N -2.446128 -6.346197 -2.598747 0
M  V30 32 C -1.631605 -5.402182 -2.066339 0
M  V30 33 C -1.591667 -5.208330 -0.703814 0
M  V30 34 C -0.783774 -4.265744 -0.119435 0
M  V30 35 H 1.919558 -4.784624 4.036919 0
M  V30 36 H 0.696997 -5.447754 2.957389 0
M  V30 37 H 0.246360 -4.577600 4.541741 0
M  V30 38 H 2.317601 -2.520727 4.404310 0
M  V30 39 H 0.326615 1.143414 1.684646 0
M  V30 40 H 3.544626 2.022410 -1.672711 0
M  V30 41 H 3.531261 4.278099 -2.539801 0
M  V30 42 H 1.969508 5.901721 -1.710283 0
M  V30 43 H 0.452122 5.785973 2.372640 0
M  V30 44 H 0.168806 7.334175 1.418320 0
M  V30 45 H 1.722829 6.421698 1.284971 0
M  V30 46 H -1.095393 6.069712 -1.565315 0
M  V30 47 H -1.110399 7.241574 -0.250674 0
M  V30 48 H 0.389654 7.107934 -1.251896 0
M  V30 49 H 0.324593 3.043444 0.944942 0
M  V30 50 H -0.413518 -1.519884 0.424329 0
M  V30 51 H -1.617591 -4.821733 3.050115 0
M  V30 52 H -4.852866 -8.465044 -1.782695 0
M  V30 53 H -4.575408 -7.563195 -3.289384 0
M  V30 54 H -3.488447 -8.919273 -2.916621 0
M  V30 55 H -1.018524 -4.808350 -2.722912 0
M  V30 56 H -0.151296 -3.648227 -0.752676 0
M  V30 END ATOM
M  V30 BEGIN BOND
M  V30 1 1 1 2
M  V30 2 2 2 3
M  V30 3 1 3 4
M  V30 4 1 4 5
M  V30 5 2 4 6
M  V30 6 1 6 7
M  V30 7 1 7 8
M  V30 8 2 8 9
M  V30 9 1 8 10
M  V30 10 2 10 11
M  V30 11 1 11 12
M  V30 12 2 12 13
M  V30 13 1 13 14
M  V30 14 1 14 15
M  V30 15 1 15 16
M  V30 16 1 15 17
M  V30 17 1 15 18
M  V30 18 3 18 19
M  V30 19 2 14 20
M  V30 20 1 6 21
M  V30 21 2 21 22
M  V30 22 1 22 23
M  V30 23 2 23 24
M  V30 24 1 24 25
M  V30 25 2 25 26
M  V30 26 1 26 27
M  V30 27 2 27 28
M  V30 28 1 27 29
M  V30 29 1 29 30
M  V30 30 1 29 31
M  V30 31 2 31 32
M  V30 32 1 32 33
M  V30 33 2 33 34
M  V30 34 1 22 2
M  V30 35 1 34 23
M  V30 36 1 20 10
M  V30 37 1 33 26
M  V30 38 1 1 35
M  V30 39 1 1 36
M  V30 40 1 1 37
M  V30 41 1 3 38
M  V30 42 1 7 39
M  V30 43 1 11 40
M  V30 44 1 12 41
M  V30 45 1 13 42
M  V30 46 1 16 43
M  V30 47 1 16 44
M  V30 48 1 16 45
M  V30 49 1 17 46
M  V30 50 1 17 47
M  V30 51 1 17 48
M  V30 52 1 20 49
M  V30 53 1 21 50
M  V30 54 1 24 51
M  V30 55 1 30 52
M  V30 56 1 30 53
M  V30 57 1 30 54
M  V30 58 1 32 55
M  V30 59 1 34 56
M  V30 END BOND
M  V30 END CTAB
M  END
>  <Dataset>  (440) 
ChEMBL_Kinases

>  <Ligand_Instance>  (440) 
nan

>  <PDB_ID>  (440) 
nan

>  <Standardized_SMILES>  (440) 
Cc1cc(F)c(NC(=O)c2cccc(C(C)(C)C#N)c2)cc1-c1cnc2c(=O)n(C)ncc2c1

>  <Name>  (440) 
nan

>  <Pocket>  (440) 
nan

>  <ATP_Site>  (440) 
nan

>  <Peripheral>  (440) 
nan

>  <Num_H_Atoms_ProtBoundConf>  (440) 
nan

>  <Num_Resolved_Atoms>  (440) 
nan

>  <Num_Not_Resolved_Atoms>  (440) 
nan

$$$$
CHEMBL4216977
     RDKit          3D

  0  0  0  0  0  0  0  0  0  0999 V3000
M  V30 BEGIN CTAB
M  V30 COUNTS 59 63 0 0 0
M  V30 BEGIN ATOM
M  V30 1 C 1.715140 -6.341150 4.624594 0
M  V30 2 O 2.506408 -5.181350 4.420296 0
M  V30 3 C 2.236627 -4.427784 3.286227 0
M  V30 4 C 1.243806 -4.790315 2.397801 0
M  V30 5 C 0.968133 -4.047538 1.267515 0
M  V30 6 C 1.678544 -2.901873 0.974786 0
M  V30 7 C 1.510454 -2.000115 -0.184314 0
M  V30 8 C 1.519791 -0.582780 0.175222 0
M  V30 9 O 2.337699 0.305342 -0.239601 0
M  V30 10 N 0.640180 0.114888 1.049256 0
M  V30 11 C 0.953295 1.545371 1.173701 0
M  V30 12 C -0.304525 2.362680 1.384848 0
M  V30 13 N -1.465681 1.675876 0.795768 0
M  V30 14 C -2.344458 1.960948 -0.265797 0
M  V30 15 N -2.158593 1.068448 -1.282266 0
M  V30 16 C -2.887748 1.156219 -2.433294 0
M  V30 17 N -3.815067 2.133978 -2.592851 0
M  V30 18 C -4.034170 3.035362 -1.620212 0
M  V30 19 N -4.830279 4.104858 -1.397587 0
M  V30 20 C -4.607665 4.645928 -0.181134 0
M  V30 21 C -3.610399 3.907482 0.454908 0
M  V30 22 Br -2.911400 4.221435 2.197241 0
M  V30 23 C -3.292855 2.935767 -0.465385 0
M  V30 24 C -1.788057 0.405055 1.463321 0
M  V30 25 C -0.505487 -0.238888 1.860686 0
M  V30 26 C 0.356353 -2.470055 -1.003206 0
M  V30 27 C 0.210298 -1.762511 -2.324705 0
M  V30 28 N 1.335514 -0.980022 -2.698374 0
M  V30 29 C 2.610336 -1.493042 -2.384939 0
M  V30 30 C 2.740368 -2.219493 -1.078138 0
M  V30 31 C 2.680737 -2.542359 1.878327 0
M  V30 32 C 2.968996 -3.274171 3.013195 0
M  V30 33 H 1.858954 -7.020989 3.749249 0
M  V30 34 H 0.645534 -6.039805 4.612656 0
M  V30 35 H 1.987950 -6.865226 5.562632 0
M  V30 36 H 0.642861 -5.676325 2.558318 0
M  V30 37 H 0.199336 -4.299240 0.549206 0
M  V30 38 H 1.409238 1.951953 0.245254 0
M  V30 39 H 1.687607 1.678053 1.995595 0
M  V30 40 H -0.480792 2.367936 2.476772 0
M  V30 41 H -0.195037 3.393603 1.044165 0
M  V30 42 H -2.766826 0.467278 -3.258120 0
M  V30 43 H -5.530045 4.438645 -2.124686 0
M  V30 44 H -5.109611 5.510141 0.248638 0
M  V30 45 H -2.353436 -0.286674 0.838585 0
M  V30 46 H -2.385890 0.713719 2.370327 0
M  V30 47 H -0.637689 -1.336491 1.823635 0
M  V30 48 H -0.336228 -0.006491 2.937962 0
M  V30 49 H -0.596780 -2.575970 -0.440416 0
M  V30 50 H 0.618302 -3.531737 -1.293173 0
M  V30 51 H -0.681075 -1.102739 -2.249140 0
M  V30 52 H -0.012756 -2.454636 -3.170278 0
M  V30 53 H 1.215236 0.035175 -2.735474 0
M  V30 54 H 2.998064 -2.124441 -3.231861 0
M  V30 55 H 3.324700 -0.620262 -2.351421 0
M  V30 56 H 3.678400 -1.954519 -0.569306 0
M  V30 57 H 2.811275 -3.307163 -1.313994 0
M  V30 58 H 3.298348 -1.663889 1.747069 0
M  V30 59 H 3.722936 -3.031034 3.721464 0
M  V30 END ATOM
M  V30 BEGIN BOND
M  V30 1 1 1 2
M  V30 2 1 2 3
M  V30 3 2 3 4
M  V30 4 1 4 5
M  V30 5 2 5 6
M  V30 6 1 6 7
M  V30 7 1 7 8
M  V30 8 2 8 9
M  V30 9 1 8 10
M  V30 10 1 10 11
M  V30 11 1 11 12
M  V30 12 1 12 13
M  V30 13 1 13 14
M  V30 14 2 14 15
M  V30 15 1 15 16
M  V30 16 2 16 17
M  V30 17 1 17 18
M  V30 18 1 18 19
M  V30 19 1 19 20
M  V30 20 2 20 21
M  V30 21 1 21 22
M  V30 22 1 21 23
M  V30 23 1 13 24
M  V30 24 1 24 25
M  V30 25 1 7 26
M  V30 26 1 26 27
M  V30 27 1 27 28
M  V30 28 1 28 29
M  V30 29 1 29 30
M  V30 30 1 6 31
M  V30 31 2 31 32
M  V30 32 1 32 3
M  V30 33 1 30 7
M  V30 34 1 25 10
M  V30 35 1 23 14
M  V30 36 2 23 18
M  V30 37 1 1 33
M  V30 38 1 1 34
M  V30 39 1 1 35
M  V30 40 1 4 36
M  V30 41 1 5 37
M  V30 42 1 11 38
M  V30 43 1 11 39
M  V30 44 1 12 40
M  V30 45 1 12 41
M  V30 46 1 16 42
M  V30 47 1 19 43
M  V30 48 1 20 44
M  V30 49 1 24 45
M  V30 50 1 24 46
M  V30 51 1 25 47
M  V30 52 1 25 48
M  V30 53 1 26 49
M  V30 54 1 26 50
M  V30 55 1 27 51
M  V30 56 1 27 52
M  V30 57 1 28 53
M  V30 58 1 29 54
M  V30 59 1 29 55
M  V30 60 1 30 56
M  V30 61 1 30 57
M  V30 62 1 31 58
M  V30 63 1 32 59
M  V30 END BOND
M  V30 END CTAB
M  END
>  <Dataset>  (441) 
ChEMBL_Kinases

>  <Ligand_Instance>  (441) 
nan

>  <PDB_ID>  (441) 
nan

>  <Standardized_SMILES>  (441) 
COc1ccc(C2(C(=O)N3CCN(c4ncnc5[nH]cc(Br)c45)CC3)CCNCC2)cc1

>  <Name>  (441) 
nan

>  <Pocket>  (441) 
nan

>  <ATP_Site>  (441) 
nan

>  <Peripheral>  (441) 
nan

>  <Num_H_Atoms_ProtBoundConf>  (441) 
nan

>  <Num_Resolved_Atoms>  (441) 
nan

>  <Num_Not_Resolved_Atoms>  (441) 
nan

$$$$
CHEMBL4778422
     RDKit          3D

  0  0  0  0  0  0  0  0  0  0999 V3000
M  V30 BEGIN CTAB
M  V30 COUNTS 61 64 0 0 0
M  V30 BEGIN ATOM
M  V30 1 C 3.690348 0.916276 4.534770 0
M  V30 2 O 3.620573 0.882248 3.121116 0
M  V30 3 C 3.554944 -0.190686 2.346026 0
M  V30 4 O 3.594104 -0.825330 3.457786 0
M  V30 5 C 3.479130 -1.144310 1.290035 0
M  V30 6 S 3.443983 -2.930053 1.303638 0
M  V30 7 C 3.329497 -3.002293 -0.578515 0
M  V30 8 C 3.331040 -1.613707 -1.021760 0
M  V30 9 C 3.409814 -0.735451 -0.008143 0
M  V30 10 N 3.402276 0.569659 -0.564354 0
M  V30 11 C 2.317912 1.379159 -0.120206 0
M  V30 12 N 1.398325 0.987728 0.777606 0
M  V30 13 C 0.369609 1.697400 1.215756 0
M  V30 14 N -0.427840 1.023443 2.179007 0
M  V30 15 C -1.235650 -0.134829 2.075206 0
M  V30 16 C -1.302616 -0.858617 0.900643 0
M  V30 17 C -2.050140 -2.005851 0.743472 0
M  V30 18 C -2.783000 -2.456272 1.848612 0
M  V30 19 C -2.719999 -1.734845 3.025369 0
M  V30 20 C -1.956348 -0.594585 3.127008 0
M  V30 21 O -1.881516 0.148326 4.311216 0
M  V30 22 C -2.611013 -0.269181 5.459081 0
M  V30 23 C -3.533426 -3.727718 1.518865 0
M  V30 24 C -2.759577 -4.178988 0.288735 0
M  V30 25 N -2.304417 -2.931517 -0.302985 0
M  V30 26 C -2.105655 -2.536577 -1.633181 0
M  V30 27 O -1.734442 -1.395248 -1.993223 0
M  V30 28 C -2.136715 -2.909358 -3.036195 0
M  V30 29 N -1.780578 -1.881930 -3.943255 0
M  V30 30 C -0.437128 -1.430886 -3.934831 0
M  V30 31 C -2.784219 -0.977198 -4.357974 0
M  V30 32 N 0.159988 2.969011 0.749394 0
M  V30 33 C 1.044393 3.462563 -0.171573 0
M  V30 34 C 2.111812 2.656194 -0.592186 0
M  V30 35 C 3.047707 3.159812 -1.559005 0
M  V30 36 N 3.806217 3.553235 -2.355278 0
M  V30 37 H 2.689629 0.516088 4.872043 0
M  V30 38 H 3.785704 1.986491 4.808407 0
M  V30 39 H 4.516336 0.355337 4.970183 0
M  V30 40 H 3.292749 -4.169818 -0.810111 0
M  V30 41 H 3.264501 -1.775792 -2.079652 0
M  V30 42 H 4.067848 1.007629 -1.236432 0
M  V30 43 H -0.359918 1.517606 3.090821 0
M  V30 44 H -0.730314 -0.503254 0.042764 0
M  V30 45 H -3.291434 -2.102513 3.851702 0
M  V30 46 H -2.497328 -1.376632 5.577051 0
M  V30 47 H -2.259256 0.282186 6.344235 0
M  V30 48 H -3.692430 -0.077627 5.321823 0
M  V30 49 H -3.297562 -4.431932 2.344535 0
M  V30 50 H -4.594423 -3.565708 1.351409 0
M  V30 51 H -3.441546 -4.743724 -0.351886 0
M  V30 52 H -1.869789 -4.763142 0.623539 0
M  V30 53 H -3.173383 -3.258916 -3.277348 0
M  V30 54 H -1.427347 -3.767425 -3.236616 0
M  V30 55 H -0.397846 -0.337641 -3.671789 0
M  V30 56 H -0.007199 -1.473795 -4.958923 0
M  V30 57 H 0.215923 -1.987685 -3.229975 0
M  V30 58 H -2.469420 0.067696 -4.383417 0
M  V30 59 H -3.130889 -1.318403 -5.378610 0
M  V30 60 H -3.677803 -1.142390 -3.704364 0
M  V30 61 H 0.889992 4.463128 -0.544640 0
M  V30 END ATOM
M  V30 BEGIN BOND
M  V30 1 1 1 2
M  V30 2 1 2 3
M  V30 3 2 3 4
M  V30 4 1 3 5
M  V30 5 1 5 6
M  V30 6 1 6 7
M  V30 7 2 7 8
M  V30 8 1 8 9
M  V30 9 1 9 10
M  V30 10 1 10 11
M  V30 11 2 11 12
M  V30 12 1 12 13
M  V30 13 1 13 14
M  V30 14 1 14 15
M  V30 15 2 15 16
M  V30 16 1 16 17
M  V30 17 2 17 18
M  V30 18 1 18 19
M  V30 19 2 19 20
M  V30 20 1 20 21
M  V30 21 1 21 22
M  V30 22 1 18 23
M  V30 23 1 23 24
M  V30 24 1 24 25
M  V30 25 1 25 26
M  V30 26 2 26 27
M  V30 27 1 26 28
M  V30 28 1 28 29
M  V30 29 1 29 30
M  V30 30 1 29 31
M  V30 31 2 13 32
M  V30 32 1 32 33
M  V30 33 2 33 34
M  V30 34 1 34 35
M  V30 35 3 35 36
M  V30 36 2 9 5
M  V30 37 1 34 11
M  V30 38 1 20 15
M  V30 39 1 25 17
M  V30 40 1 1 37
M  V30 41 1 1 38
M  V30 42 1 1 39
M  V30 43 1 7 40
M  V30 44 1 8 41
M  V30 45 1 10 42
M  V30 46 1 14 43
M  V30 47 1 16 44
M  V30 48 1 19 45
M  V30 49 1 22 46
M  V30 50 1 22 47
M  V30 51 1 22 48
M  V30 52 1 23 49
M  V30 53 1 23 50
M  V30 54 1 24 51
M  V30 55 1 24 52
M  V30 56 1 28 53
M  V30 57 1 28 54
M  V30 58 1 30 55
M  V30 59 1 30 56
M  V30 60 1 30 57
M  V30 61 1 31 58
M  V30 62 1 31 59
M  V30 63 1 31 60
M  V30 64 1 33 61
M  V30 END BOND
M  V30 END CTAB
M  END
>  <Dataset>  (442) 
ChEMBL_Kinases

>  <Ligand_Instance>  (442) 
nan

>  <PDB_ID>  (442) 
nan

>  <Standardized_SMILES>  (442) 
COC(=O)c1sccc1Nc1nc(Nc2cc3c(cc2OC)CCN3C(=O)CN(C)C)ncc1C#N

>  <Name>  (442) 
nan

>  <Pocket>  (442) 
nan

>  <ATP_Site>  (442) 
nan

>  <Peripheral>  (442) 
nan

>  <Num_H_Atoms_ProtBoundConf>  (442) 
nan

>  <Num_Resolved_Atoms>  (442) 
nan

>  <Num_Not_Resolved_Atoms>  (442) 
nan

$$$$
CHEMBL4216964
     RDKit          3D

  0  0  0  0  0  0  0  0  0  0999 V3000
M  V30 BEGIN CTAB
M  V30 COUNTS 69 73 0 0 0
M  V30 BEGIN ATOM
M  V30 1 C 4.341158 -3.319682 1.465598 0
M  V30 2 C 3.894549 -2.499153 0.313343 0
M  V30 3 C 4.696621 -1.642614 -0.406758 0
M  V30 4 C 4.289951 -0.858523 -1.498740 0
M  V30 5 C 5.385853 -0.022817 -1.979586 0
M  V30 6 C 5.431301 1.339169 -1.376536 0
M  V30 7 N 4.339478 2.205182 -1.615380 0
M  V30 8 C 4.247262 2.722904 -2.963127 0
M  V30 9 C 2.944981 3.485629 -3.087243 0
M  V30 10 O 2.985231 4.561932 -2.188314 0
M  V30 11 C 2.941152 4.007552 -0.886646 0
M  V30 12 C 4.269193 3.321099 -0.702060 0
M  V30 13 C 2.972039 -1.013329 -1.816809 0
M  V30 14 C 2.551786 -0.261489 -2.957978 0
M  V30 15 N 2.201825 0.330156 -3.887738 0
M  V30 16 C 2.089610 -1.840567 -1.160900 0
M  V30 17 C 2.557727 -2.578351 -0.099022 0
M  V30 18 N 1.645630 -3.425407 0.584447 0
M  V30 19 C 0.267693 -3.714689 0.395895 0
M  V30 20 N -0.160667 -4.773440 -0.352520 0
M  V30 21 C -1.503214 -4.988514 -0.490742 0
M  V30 22 C -2.372309 -4.119907 0.135974 0
M  V30 23 C -1.961273 -3.046707 0.894366 0
M  V30 24 C -2.857470 -2.113600 1.561136 0
M  V30 25 C -2.298080 -1.079337 2.282117 0
M  V30 26 C -3.134608 -0.182744 2.921801 0
M  V30 27 C -2.643584 0.921752 3.692517 0
M  V30 28 N -2.264278 1.816129 4.325416 0
M  V30 29 C -4.505305 -0.318444 2.841777 0
M  V30 30 C -5.116996 -1.352367 2.121801 0
M  V30 31 C -4.227981 -2.217017 1.503709 0
M  V30 32 C -6.597172 -1.259988 2.204823 0 CFG=1
M  V30 33 C -7.237306 -1.670662 0.923555 0
M  V30 34 C -7.140990 -2.039292 3.380148 0
M  V30 35 O -6.594100 -1.520425 4.548812 0
M  V30 36 C -6.793070 0.205469 2.553291 0
M  V30 37 N -5.599506 0.434519 3.382157 0
M  V30 38 N -0.628987 -2.904931 0.981197 0
M  V30 39 H 3.561172 -3.357754 2.262697 0
M  V30 40 H 4.693196 -4.326524 1.152594 0
M  V30 41 H 5.251380 -2.852459 1.938881 0
M  V30 42 H 5.717831 -1.661301 0.001922 0
M  V30 43 H 6.377211 -0.496581 -1.896994 0
M  V30 44 H 5.224941 0.130124 -3.095043 0
M  V30 45 H 6.378695 1.847564 -1.705286 0
M  V30 46 H 5.564090 1.232142 -0.265299 0
M  V30 47 H 4.376458 1.967507 -3.730249 0
M  V30 48 H 5.065572 3.489859 -3.133737 0
M  V30 49 H 2.830822 3.953784 -4.088300 0
M  V30 50 H 2.073415 2.871225 -2.831294 0
M  V30 51 H 2.142001 3.212520 -0.933261 0
M  V30 52 H 2.709860 4.774996 -0.142966 0
M  V30 53 H 4.415131 3.008773 0.352216 0
M  V30 54 H 5.047121 4.106841 -0.909809 0
M  V30 55 H 1.083942 -1.852439 -1.529565 0
M  V30 56 H 1.841014 -4.025967 1.401996 0
M  V30 57 H -1.863685 -5.832601 -1.086156 0
M  V30 58 H -3.425376 -4.302490 0.017573 0
M  V30 59 H -1.231325 -0.937450 2.369841 0
M  V30 60 H -4.694111 -3.016539 0.947244 0
M  V30 61 H -7.764289 -2.641744 1.071327 0
M  V30 62 H -6.489996 -1.848725 0.108165 0
M  V30 63 H -7.959595 -0.937392 0.514696 0
M  V30 64 H -8.221201 -1.889690 3.411466 0
M  V30 65 H -6.922778 -3.116529 3.276206 0
M  V30 66 H -6.609444 -2.179152 5.288050 0
M  V30 67 H -7.711980 0.402150 3.122940 0
M  V30 68 H -6.694213 0.836041 1.647667 0
M  V30 69 H -5.573167 1.048535 4.223024 0
M  V30 END ATOM
M  V30 BEGIN BOND
M  V30 1 1 1 2
M  V30 2 2 2 3
M  V30 3 1 3 4
M  V30 4 1 4 5
M  V30 5 1 5 6
M  V30 6 1 6 7
M  V30 7 1 7 8
M  V30 8 1 8 9
M  V30 9 1 9 10
M  V30 10 1 10 11
M  V30 11 1 11 12
M  V30 12 2 4 13
M  V30 13 1 13 14
M  V30 14 3 14 15
M  V30 15 1 13 16
M  V30 16 2 16 17
M  V30 17 1 17 18
M  V30 18 1 18 19
M  V30 19 2 19 20
M  V30 20 1 20 21
M  V30 21 2 21 22
M  V30 22 1 22 23
M  V30 23 1 23 24
M  V30 24 2 24 25
M  V30 25 1 25 26
M  V30 26 1 26 27
M  V30 27 3 27 28
M  V30 28 2 26 29
M  V30 29 1 29 30
M  V30 30 2 30 31
M  V30 31 1 30 32
M  V30 32 1 32 33 CFG=3
M  V30 33 1 32 34
M  V30 34 1 34 35
M  V30 35 1 32 36
M  V30 36 1 36 37
M  V30 37 2 23 38
M  V30 38 1 17 2
M  V30 39 1 38 19
M  V30 40 1 12 7
M  V30 41 1 31 24
M  V30 42 1 37 29
M  V30 43 1 1 39
M  V30 44 1 1 40
M  V30 45 1 1 41
M  V30 46 1 3 42
M  V30 47 1 5 43
M  V30 48 1 5 44
M  V30 49 1 6 45
M  V30 50 1 6 46
M  V30 51 1 8 47
M  V30 52 1 8 48
M  V30 53 1 9 49
M  V30 54 1 9 50
M  V30 55 1 11 51
M  V30 56 1 11 52
M  V30 57 1 12 53
M  V30 58 1 12 54
M  V30 59 1 16 55
M  V30 60 1 18 56
M  V30 61 1 21 57
M  V30 62 1 22 58
M  V30 63 1 25 59
M  V30 64 1 31 60
M  V30 65 1 33 61
M  V30 66 1 33 62
M  V30 67 1 33 63
M  V30 68 1 34 64
M  V30 69 1 34 65
M  V30 70 1 35 66
M  V30 71 1 36 67
M  V30 72 1 36 68
M  V30 73 1 37 69
M  V30 END BOND
M  V30 END CTAB
M  END
>  <Dataset>  (443) 
ChEMBL_Kinases

>  <Ligand_Instance>  (443) 
nan

>  <PDB_ID>  (443) 
nan

>  <Standardized_SMILES>  (443) 
Cc1cc(CCN2CCOCC2)c(C#N)cc1Nc1nccc(-c2cc(C#N)c3c(c2)[C@@](C)(CO)CN3)n1

>  <Name>  (443) 
nan

>  <Pocket>  (443) 
nan

>  <ATP_Site>  (443) 
nan

>  <Peripheral>  (443) 
nan

>  <Num_H_Atoms_ProtBoundConf>  (443) 
nan

>  <Num_Resolved_Atoms>  (443) 
nan

>  <Num_Not_Resolved_Atoms>  (443) 
nan

$$$$
CHEMBL4779011
     RDKit          3D

  0  0  0  0  0  0  0  0  0  0999 V3000
M  V30 BEGIN CTAB
M  V30 COUNTS 55 59 0 0 0
M  V30 BEGIN ATOM
M  V30 1 C 0.080310 2.511908 5.326256 0
M  V30 2 O 1.022630 2.134617 4.366491 0
M  V30 3 C 1.957169 1.122033 4.522010 0
M  V30 4 C 2.078994 0.346893 5.657879 0
M  V30 5 C 3.049858 -0.632957 5.694429 0
M  V30 6 C 3.902915 -0.854310 4.617078 0
M  V30 7 C 3.771199 -0.072710 3.486937 0
M  V30 8 F 4.630543 -0.336494 2.472465 0
M  V30 9 C 2.799484 0.924619 3.421527 0
M  V30 10 C 2.704340 1.723587 2.198602 0
M  V30 11 C 1.886346 1.328092 1.156331 0
M  V30 12 C 1.772079 2.056919 -0.011554 0
M  V30 13 C 2.497346 3.218594 -0.144871 0
M  V30 14 C 3.314967 3.608083 0.904505 0
M  V30 15 N 3.405639 2.870071 2.039440 0
M  V30 16 C 2.162335 3.691438 -1.399426 0
M  V30 17 N 1.286133 2.822920 -1.935772 0
M  V30 18 N 1.034016 1.831733 -1.123620 0
M  V30 19 C 0.143317 0.761891 -1.425122 0
M  V30 20 C 0.193777 0.072609 -2.626448 0
M  V30 21 C -0.680858 -0.963058 -2.898395 0
M  V30 22 C -1.639824 -1.353769 -1.986407 0
M  V30 23 N -2.590759 -2.391818 -2.139218 0
M  V30 24 C -3.579809 -2.744432 -1.116037 0
M  V30 25 C -4.215777 -4.052418 -1.448501 0
M  V30 26 N -3.342239 -5.072853 -1.921209 0
M  V30 27 C -2.794152 -5.909992 -0.895301 0
M  V30 28 C -2.320278 -4.637866 -2.818609 0
M  V30 29 C -2.718234 -3.239864 -3.312115 0
M  V30 30 C -1.682056 -0.661230 -0.793065 0
M  V30 31 C -0.815205 0.375721 -0.506471 0
M  V30 32 H -0.733736 3.075682 4.787948 0
M  V30 33 H -0.406630 1.638419 5.826615 0
M  V30 34 H 0.490137 3.190982 6.121244 0
M  V30 35 H 1.392463 0.560807 6.462796 0
M  V30 36 H 3.125333 -1.228829 6.598778 0
M  V30 37 H 4.628436 -1.646304 4.748082 0
M  V30 38 H 1.330392 0.409781 1.294858 0
M  V30 39 H 3.875974 4.530060 0.770857 0
M  V30 40 H 2.596397 4.618018 -1.780875 0
M  V30 41 H 0.930341 0.347620 -3.367624 0
M  V30 42 H -0.662434 -1.516382 -3.827142 0
M  V30 43 H -3.085471 -2.805748 -0.109738 0
M  V30 44 H -4.374324 -1.983258 -1.014296 0
M  V30 45 H -4.672316 -4.430972 -0.489961 0
M  V30 46 H -5.102995 -3.867667 -2.102756 0
M  V30 47 H -3.012830 -6.975861 -1.132623 0
M  V30 48 H -3.276422 -5.605555 0.068705 0
M  V30 49 H -1.684948 -5.778164 -0.855894 0
M  V30 50 H -2.180399 -5.307615 -3.691331 0
M  V30 51 H -1.382789 -4.498556 -2.228107 0
M  V30 52 H -2.110935 -2.913122 -4.158893 0
M  V30 53 H -3.807733 -3.269267 -3.605284 0
M  V30 54 H -2.392114 -0.878659 -0.001076 0
M  V30 55 H -0.852520 0.915699 0.431159 0
M  V30 END ATOM
M  V30 BEGIN BOND
M  V30 1 1 1 2
M  V30 2 1 2 3
M  V30 3 2 3 4
M  V30 4 1 4 5
M  V30 5 2 5 6
M  V30 6 1 6 7
M  V30 7 1 7 8
M  V30 8 2 7 9
M  V30 9 1 9 10
M  V30 10 2 10 11
M  V30 11 1 11 12
M  V30 12 2 12 13
M  V30 13 1 13 14
M  V30 14 2 14 15
M  V30 15 1 13 16
M  V30 16 2 16 17
M  V30 17 1 17 18
M  V30 18 1 18 19
M  V30 19 2 19 20
M  V30 20 1 20 21
M  V30 21 2 21 22
M  V30 22 1 22 23
M  V30 23 1 23 24
M  V30 24 1 24 25
M  V30 25 1 25 26
M  V30 26 1 26 27
M  V30 27 1 26 28
M  V30 28 1 28 29
M  V30 29 1 22 30
M  V30 30 2 30 31
M  V30 31 1 9 3
M  V30 32 1 15 10
M  V30 33 1 31 19
M  V30 34 1 18 12
M  V30 35 1 29 23
M  V30 36 1 1 32
M  V30 37 1 1 33
M  V30 38 1 1 34
M  V30 39 1 4 35
M  V30 40 1 5 36
M  V30 41 1 6 37
M  V30 42 1 11 38
M  V30 43 1 14 39
M  V30 44 1 16 40
M  V30 45 1 20 41
M  V30 46 1 21 42
M  V30 47 1 24 43
M  V30 48 1 24 44
M  V30 49 1 25 45
M  V30 50 1 25 46
M  V30 51 1 27 47
M  V30 52 1 27 48
M  V30 53 1 27 49
M  V30 54 1 28 50
M  V30 55 1 28 51
M  V30 56 1 29 52
M  V30 57 1 29 53
M  V30 58 1 30 54
M  V30 59 1 31 55
M  V30 END BOND
M  V30 END CTAB
M  END
>  <Dataset>  (444) 
ChEMBL_Kinases

>  <Ligand_Instance>  (444) 
nan

>  <PDB_ID>  (444) 
nan

>  <Standardized_SMILES>  (444) 
COc1cccc(F)c1-c1cc2c(cn1)cnn2-c1ccc(N2CCN(C)CC2)cc1

>  <Name>  (444) 
nan

>  <Pocket>  (444) 
nan

>  <ATP_Site>  (444) 
nan

>  <Peripheral>  (444) 
nan

>  <Num_H_Atoms_ProtBoundConf>  (444) 
nan

>  <Num_Resolved_Atoms>  (444) 
nan

>  <Num_Not_Resolved_Atoms>  (444) 
nan

$$$$
CHEMBL4778441
     RDKit          3D

  0  0  0  0  0  0  0  0  0  0999 V3000
M  V30 BEGIN CTAB
M  V30 COUNTS 68 72 0 0 0
M  V30 BEGIN ATOM
M  V30 1 C 0.873265 -1.900282 3.733634 0
M  V30 2 O 0.316606 -1.089503 2.717022 0
M  V30 3 C 0.953203 0.124017 2.423018 0
M  V30 4 C 2.074325 0.530658 3.081810 0
M  V30 5 C 2.688793 1.743869 2.769178 0
M  V30 6 C 2.090309 2.497047 1.756890 0
M  V30 7 C 0.939447 2.052412 1.098817 0
M  V30 8 C 0.552842 3.040923 0.094420 0
M  V30 9 N 0.240466 4.330898 0.299914 0
M  V30 10 C -0.052719 4.932421 -0.871803 0
M  V30 11 C -0.435797 6.334091 -1.033781 0
M  V30 12 C -0.699715 6.847624 -2.282824 0
M  V30 13 C -1.064908 8.172171 -2.413822 0
M  V30 14 C -1.159259 8.959380 -1.289503 0
M  V30 15 C -0.901624 8.476828 -0.023308 0
M  V30 16 C -0.531856 7.133319 0.103683 0
M  V30 17 N 0.086396 3.980664 -1.809491 0
M  V30 18 C 0.456366 2.802122 -1.261660 0
M  V30 19 C 0.685324 1.566501 -1.966520 0
M  V30 20 C -0.414242 1.192533 -2.741802 0
M  V30 21 C -0.397076 0.029269 -3.499869 0
M  V30 22 N 0.705241 -0.752733 -3.484187 0
M  V30 23 C 1.782571 -0.417310 -2.744354 0
M  V30 24 N 3.008791 -1.132009 -2.637111 0
M  V30 25 C 2.902367 -2.264236 -1.695947 0
M  V30 26 C 1.888177 -3.260859 -2.192226 0
M  V30 27 C 1.822134 -4.398004 -1.193577 0
M  V30 28 N 0.864752 -5.405858 -1.627170 0
M  V30 29 S 0.729150 -6.727623 -0.552532 0
M  V30 30 O 2.079252 -7.390912 -0.471065 0
M  V30 31 O -0.217214 -7.715147 -1.174060 0
M  V30 32 C 0.174641 -6.241065 1.008389 0
M  V30 33 C 0.896742 -5.845727 2.101618 0
M  V30 34 C 0.293497 -5.487113 3.287238 0
M  V30 35 C -1.081421 -5.507360 3.436537 0
M  V30 36 C -1.835826 -5.898718 2.359374 0
M  V30 37 C -1.204916 -6.251920 1.187548 0
M  V30 38 C 1.789525 0.747907 -1.973923 0
M  V30 39 C 0.355113 0.849340 1.430245 0
M  V30 40 H 1.816489 -2.340656 3.363668 0
M  V30 41 H 1.113397 -1.322199 4.666467 0
M  V30 42 H 0.156143 -2.677590 4.079664 0
M  V30 43 H 2.512510 -0.080433 3.861354 0
M  V30 44 H 3.562971 2.015567 3.314591 0
M  V30 45 H 2.642696 3.421348 1.588616 0
M  V30 46 H -0.637633 6.264990 -3.187038 0
M  V30 47 H -1.297595 8.695640 -3.337296 0
M  V30 48 H -1.437364 10.001880 -1.293247 0
M  V30 49 H -0.944578 8.995687 0.914162 0
M  V30 50 H -0.314676 6.687155 1.062478 0
M  V30 51 H -0.064416 4.101127 -2.838798 0
M  V30 52 H -1.357200 1.733673 -2.839334 0
M  V30 53 H -1.235753 -0.293863 -4.116933 0
M  V30 54 H 3.840525 -0.820575 -3.197290 0
M  V30 55 H 3.881681 -2.704561 -1.476842 0
M  V30 56 H 2.511139 -1.843981 -0.744964 0
M  V30 57 H 0.895532 -2.755795 -2.202951 0
M  V30 58 H 2.108820 -3.609919 -3.209097 0
M  V30 59 H 1.445088 -4.041372 -0.206463 0
M  V30 60 H 2.789598 -4.873333 -1.026387 0
M  V30 61 H -0.034446 -5.010595 -1.937412 0
M  V30 62 H 1.982171 -5.846028 1.934398 0
M  V30 63 H 0.930448 -5.179387 4.130688 0
M  V30 64 H -1.455937 -5.211934 4.397615 0
M  V30 65 H -2.903931 -5.910280 2.490081 0
M  V30 66 H -1.896840 -6.546063 0.397745 0
M  V30 67 H 2.589034 1.104232 -1.354270 0
M  V30 68 H -0.521460 0.643988 0.840304 0
M  V30 END ATOM
M  V30 BEGIN BOND
M  V30 1 1 1 2
M  V30 2 1 2 3
M  V30 3 2 3 4
M  V30 4 1 4 5
M  V30 5 2 5 6
M  V30 6 1 6 7
M  V30 7 1 7 8
M  V30 8 1 8 9
M  V30 9 2 9 10
M  V30 10 1 10 11
M  V30 11 2 11 12
M  V30 12 1 12 13
M  V30 13 2 13 14
M  V30 14 1 14 15
M  V30 15 2 15 16
M  V30 16 1 10 17
M  V30 17 1 17 18
M  V30 18 1 18 19
M  V30 19 2 19 20
M  V30 20 1 20 21
M  V30 21 2 21 22
M  V30 22 1 22 23
M  V30 23 1 23 24
M  V30 24 1 24 25
M  V30 25 1 25 26
M  V30 26 1 26 27
M  V30 27 1 27 28
M  V30 28 1 28 29
M  V30 29 2 29 30
M  V30 30 2 29 31
M  V30 31 1 29 32
M  V30 32 2 32 33
M  V30 33 1 33 34
M  V30 34 2 34 35
M  V30 35 1 35 36
M  V30 36 2 36 37
M  V30 37 2 23 38
M  V30 38 2 7 39
M  V30 39 1 39 3
M  V30 40 2 18 8
M  V30 41 1 38 19
M  V30 42 1 16 11
M  V30 43 1 37 32
M  V30 44 1 1 40
M  V30 45 1 1 41
M  V30 46 1 1 42
M  V30 47 1 4 43
M  V30 48 1 5 44
M  V30 49 1 6 45
M  V30 50 1 12 46
M  V30 51 1 13 47
M  V30 52 1 14 48
M  V30 53 1 15 49
M  V30 54 1 16 50
M  V30 55 1 17 51
M  V30 56 1 20 52
M  V30 57 1 21 53
M  V30 58 1 24 54
M  V30 59 1 25 55
M  V30 60 1 25 56
M  V30 61 1 26 57
M  V30 62 1 26 58
M  V30 63 1 27 59
M  V30 64 1 27 60
M  V30 65 1 28 61
M  V30 66 1 33 62
M  V30 67 1 34 63
M  V30 68 1 35 64
M  V30 69 1 36 65
M  V30 70 1 37 66
M  V30 71 1 38 67
M  V30 72 1 39 68
M  V30 END BOND
M  V30 END CTAB
M  END
>  <Dataset>  (445) 
ChEMBL_Kinases

>  <Ligand_Instance>  (445) 
nan

>  <PDB_ID>  (445) 
nan

>  <Standardized_SMILES>  (445) 
COc1cccc(-c2nc(-c3ccccc3)[nH]c2-c2ccnc(NCCCNS(=O)(=O)c3ccccc3)c2)c1

>  <Name>  (445) 
nan

>  <Pocket>  (445) 
nan

>  <ATP_Site>  (445) 
nan

>  <Peripheral>  (445) 
nan

>  <Num_H_Atoms_ProtBoundConf>  (445) 
nan

>  <Num_Resolved_Atoms>  (445) 
nan

>  <Num_Not_Resolved_Atoms>  (445) 
nan

$$$$
CHEMBL4216875
     RDKit          3D

  0  0  0  0  0  0  0  0  0  0999 V3000
M  V30 BEGIN CTAB
M  V30 COUNTS 74 78 0 0 0
M  V30 BEGIN ATOM
M  V30 1 C 2.648139 -1.519770 5.796531 0
M  V30 2 O 2.463086 -1.899712 4.459131 0
M  V30 3 C 1.989926 -1.075704 3.456417 0
M  V30 4 C 1.633781 0.242751 3.644474 0
M  V30 5 C 1.176231 0.965221 2.571296 0
M  V30 6 C 0.810637 2.344670 2.829608 0
M  V30 7 O 0.938614 2.817712 3.988655 0
M  V30 8 N 0.311183 3.205347 1.849761 0
M  V30 9 C -0.132986 4.556706 1.748157 0
M  V30 10 C 0.587073 5.374937 0.741251 0
M  V30 11 C -0.067877 6.718384 0.586712 0
M  V30 12 N -1.486592 6.613121 0.308846 0
M  V30 13 C -1.740196 6.058574 -1.004773 0
M  V30 14 C -2.180562 5.877807 1.348110 0
M  V30 15 C -1.641749 4.499533 1.517984 0
M  V30 16 C 1.065725 0.404893 1.316030 0
M  V30 17 C 1.429342 -0.926947 1.143067 0
M  V30 18 C 1.895997 -1.677102 2.221975 0
M  V30 19 N 2.237490 -3.039534 1.999100 0
M  V30 20 C 2.177124 -3.679382 0.713551 0
M  V30 21 N 3.198855 -4.201348 0.025418 0
M  V30 22 C 2.978252 -4.760552 -1.177238 0
M  V30 23 C 1.738663 -4.826914 -1.750140 0
M  V30 24 C 0.679556 -4.285106 -1.037378 0
M  V30 25 N 0.937146 -3.734515 0.162676 0
M  V30 26 N -0.700619 -4.240280 -1.463627 0
M  V30 27 C -1.753200 -3.964858 -0.512786 0
M  V30 28 C -2.789291 -5.046442 -0.399457 0
M  V30 29 C -4.124738 -4.420648 -0.739669 0
M  V30 30 C -3.897587 -2.958235 -0.991974 0
M  V30 31 C -2.449830 -2.657636 -0.735381 0
M  V30 32 C -0.953002 -4.480884 -2.867151 0 CFG=1
M  V30 33 C -0.984949 -3.253976 -3.718799 0
M  V30 34 C 0.090633 -5.377601 -3.408061 0
M  V30 35 O -0.248526 -6.210951 -4.320587 0
M  V30 36 N 1.441034 -5.416755 -3.022529 0
M  V30 37 C 2.529895 -5.984910 -3.772114 0
M  V30 38 H 2.571770 -2.410707 6.481467 0
M  V30 39 H 3.658452 -1.109203 5.897540 0
M  V30 40 H 1.840575 -0.791127 6.065746 0
M  V30 41 H 1.729380 0.652008 4.628055 0
M  V30 42 H 0.177277 2.880371 0.853591 0
M  V30 43 H -0.005550 5.028317 2.751695 0
M  V30 44 H 1.604927 5.600094 1.174778 0
M  V30 45 H 0.635606 4.923010 -0.263920 0
M  V30 46 H 0.369871 7.250454 -0.283356 0
M  V30 47 H 0.064349 7.377811 1.474430 0
M  V30 48 H -2.511853 5.261162 -0.976813 0
M  V30 49 H -2.105823 6.901563 -1.646566 0
M  V30 50 H -0.803518 5.694742 -1.491943 0
M  V30 51 H -3.246737 5.807362 0.983065 0
M  V30 52 H -2.222631 6.462229 2.271490 0
M  V30 53 H -1.932828 3.824007 0.708637 0
M  V30 54 H -2.057840 4.070657 2.464583 0
M  V30 55 H 0.706305 0.962597 0.464028 0
M  V30 56 H 1.346044 -1.366475 0.172391 0
M  V30 57 H 2.553790 -3.669635 2.744773 0
M  V30 58 H 3.808219 -5.180794 -1.727543 0
M  V30 59 H -1.304248 -3.888991 0.522092 0
M  V30 60 H -2.623867 -5.891247 -1.079738 0
M  V30 61 H -2.896061 -5.474230 0.618936 0
M  V30 62 H -4.858735 -4.488098 0.099237 0
M  V30 63 H -4.601346 -4.924923 -1.620031 0
M  V30 64 H -4.102195 -2.683077 -2.067723 0
M  V30 65 H -4.594026 -2.302353 -0.402372 0
M  V30 66 H -1.976739 -2.026426 -1.529149 0
M  V30 67 H -2.443280 -1.982442 0.169306 0
M  V30 68 H -1.915214 -5.053539 -2.900172 0
M  V30 69 H -0.323378 -2.444687 -3.343232 0
M  V30 70 H -1.990502 -2.792495 -3.789321 0
M  V30 71 H -0.597432 -3.514809 -4.726841 0
M  V30 72 H 2.753275 -7.038737 -3.440722 0
M  V30 73 H 3.474462 -5.416071 -3.719147 0
M  V30 74 H 2.249036 -6.101421 -4.852872 0
M  V30 END ATOM
M  V30 BEGIN BOND
M  V30 1 1 1 2
M  V30 2 1 2 3
M  V30 3 2 3 4
M  V30 4 1 4 5
M  V30 5 1 5 6
M  V30 6 2 6 7
M  V30 7 1 6 8
M  V30 8 1 8 9
M  V30 9 1 9 10
M  V30 10 1 10 11
M  V30 11 1 11 12
M  V30 12 1 12 13
M  V30 13 1 12 14
M  V30 14 1 14 15
M  V30 15 2 5 16
M  V30 16 1 16 17
M  V30 17 2 17 18
M  V30 18 1 18 19
M  V30 19 1 19 20
M  V30 20 2 20 21
M  V30 21 1 21 22
M  V30 22 2 22 23
M  V30 23 1 23 24
M  V30 24 2 24 25
M  V30 25 1 24 26
M  V30 26 1 26 27
M  V30 27 1 27 28
M  V30 28 1 28 29
M  V30 29 1 29 30
M  V30 30 1 30 31
M  V30 31 1 26 32
M  V30 32 1 32 33
M  V30 33 1 32 34
M  V30 34 2 34 35
M  V30 35 1 34 36
M  V30 36 1 36 37
M  V30 37 1 18 3
M  V30 38 1 25 20
M  V30 39 1 31 27
M  V30 40 1 15 9
M  V30 41 1 36 23
M  V30 42 1 1 38
M  V30 43 1 1 39
M  V30 44 1 1 40
M  V30 45 1 4 41
M  V30 46 1 8 42
M  V30 47 1 9 43
M  V30 48 1 10 44
M  V30 49 1 10 45
M  V30 50 1 11 46
M  V30 51 1 11 47
M  V30 52 1 13 48
M  V30 53 1 13 49
M  V30 54 1 13 50
M  V30 55 1 14 51
M  V30 56 1 14 52
M  V30 57 1 15 53
M  V30 58 1 15 54
M  V30 59 1 16 55
M  V30 60 1 17 56
M  V30 61 1 19 57
M  V30 62 1 22 58
M  V30 63 1 27 59
M  V30 64 1 28 60
M  V30 65 1 28 61
M  V30 66 1 29 62
M  V30 67 1 29 63
M  V30 68 1 30 64
M  V30 69 1 30 65
M  V30 70 1 31 66
M  V30 71 1 31 67
M  V30 72 1 32 68 CFG=1
M  V30 73 1 33 69
M  V30 74 1 33 70
M  V30 75 1 33 71
M  V30 76 1 37 72
M  V30 77 1 37 73
M  V30 78 1 37 74
M  V30 END BOND
M  V30 END CTAB
M  END
>  <Dataset>  (446) 
ChEMBL_Kinases

>  <Ligand_Instance>  (446) 
nan

>  <PDB_ID>  (446) 
nan

>  <Standardized_SMILES>  (446) 
COc1cc(C(=O)NC2CCN(C)CC2)ccc1Nc1ncc2c(n1)N(C1CCCC1)[C@@H](C)C(=O)N2C

>  <Name>  (446) 
nan

>  <Pocket>  (446) 
nan

>  <ATP_Site>  (446) 
nan

>  <Peripheral>  (446) 
nan

>  <Num_H_Atoms_ProtBoundConf>  (446) 
nan

>  <Num_Resolved_Atoms>  (446) 
nan

>  <Num_Not_Resolved_Atoms>  (446) 
nan

$$$$
CHEMBL4778470
     RDKit          3D

  0  0  0  0  0  0  0  0  0  0999 V3000
M  V30 BEGIN CTAB
M  V30 COUNTS 63 66 0 0 0
M  V30 BEGIN ATOM
M  V30 1 C -0.388478 -1.045095 3.540467 0
M  V30 2 O 0.487441 -0.268959 2.761319 0
M  V30 3 C 1.831598 -0.132851 2.995794 0
M  V30 4 O 1.944434 -0.858559 4.014843 0
M  V30 5 C 2.917845 0.551515 2.408711 0
M  V30 6 S 4.548602 0.274644 3.290659 0
M  V30 7 C 5.452073 1.412333 2.051492 0
M  V30 8 C 4.476704 1.821450 1.197204 0
M  V30 9 C 3.194309 1.373851 1.394112 0
M  V30 10 N 2.190467 1.822459 0.497741 0
M  V30 11 C 0.989393 2.536347 0.723490 0
M  V30 12 N -0.185206 1.896642 0.660403 0
M  V30 13 C -1.389938 2.423069 0.867412 0
M  V30 14 N -2.608636 1.696031 0.776137 0
M  V30 15 C -2.871688 0.351382 0.406817 0
M  V30 16 C -1.846469 -0.501176 -0.002417 0
M  V30 17 C -1.991549 -1.835551 -0.397919 0
M  V30 18 C -3.303711 -2.339822 -0.371710 0
M  V30 19 C -4.307792 -1.494255 0.032249 0
M  V30 20 C -4.161620 -0.189787 0.418512 0
M  V30 21 O -5.171410 0.647590 0.821546 0
M  V30 22 C -6.497615 0.168602 0.856472 0
M  V30 23 C -3.288181 -3.759198 -0.832293 0
M  V30 24 C -1.949746 -3.841549 -1.549967 0
M  V30 25 N -1.131131 -2.873559 -0.830572 0
M  V30 26 C 0.243219 -2.874689 -0.540655 0
M  V30 27 O 0.703639 -1.904008 0.155144 0
M  V30 28 C 1.445499 -3.665776 -0.772382 0
M  V30 29 N 1.258748 -4.861282 -1.581091 0
M  V30 30 C 0.972645 -4.521671 -2.953204 0
M  V30 31 C 2.504972 -5.609065 -1.538951 0
M  V30 32 N -1.429973 3.729132 1.170531 0
M  V30 33 C -0.324125 4.470902 1.260430 0
M  V30 34 C 0.893291 3.868553 1.034785 0
M  V30 35 C 2.147737 4.660222 1.122113 0
M  V30 36 H -0.404960 -0.618362 4.582540 0
M  V30 37 H -0.089676 -2.094655 3.644722 0
M  V30 38 H -1.412351 -1.002093 3.110707 0
M  V30 39 H 6.510276 1.583148 2.157511 0
M  V30 40 H 4.856638 2.482278 0.432205 0
M  V30 41 H 2.184205 1.683664 -0.535045 0
M  V30 42 H -3.486776 2.239565 1.024893 0
M  V30 43 H -0.815550 -0.185172 -0.053481 0
M  V30 44 H -5.297135 -1.933096 0.037579 0
M  V30 45 H -6.613142 -0.358076 1.846530 0
M  V30 46 H -6.740369 -0.532038 0.050406 0
M  V30 47 H -7.230859 1.029421 0.858597 0
M  V30 48 H -3.312298 -4.473963 -0.006915 0
M  V30 49 H -4.074961 -4.004525 -1.546727 0
M  V30 50 H -2.045086 -3.491980 -2.580257 0
M  V30 51 H -1.487329 -4.819351 -1.441167 0
M  V30 52 H 2.265232 -3.104428 -1.288497 0
M  V30 53 H 1.942604 -3.987795 0.196519 0
M  V30 54 H 1.819411 -4.917849 -3.590061 0
M  V30 55 H 1.005970 -3.400350 -3.034151 0
M  V30 56 H 0.018625 -4.954477 -3.323117 0
M  V30 57 H 2.791098 -5.929921 -2.566839 0
M  V30 58 H 3.307692 -4.980311 -1.134891 0
M  V30 59 H 2.407516 -6.542336 -0.923969 0
M  V30 60 H -0.436714 5.509579 1.505156 0
M  V30 61 H 2.932831 4.347562 0.432437 0
M  V30 62 H 1.903358 5.727118 0.899647 0
M  V30 63 H 2.490934 4.668003 2.178738 0
M  V30 END ATOM
M  V30 BEGIN BOND
M  V30 1 1 1 2
M  V30 2 1 2 3
M  V30 3 2 3 4
M  V30 4 1 3 5
M  V30 5 1 5 6
M  V30 6 1 6 7
M  V30 7 2 7 8
M  V30 8 1 8 9
M  V30 9 1 9 10
M  V30 10 1 10 11
M  V30 11 2 11 12
M  V30 12 1 12 13
M  V30 13 1 13 14
M  V30 14 1 14 15
M  V30 15 2 15 16
M  V30 16 1 16 17
M  V30 17 2 17 18
M  V30 18 1 18 19
M  V30 19 2 19 20
M  V30 20 1 20 21
M  V30 21 1 21 22
M  V30 22 1 18 23
M  V30 23 1 23 24
M  V30 24 1 24 25
M  V30 25 1 25 26
M  V30 26 2 26 27
M  V30 27 1 26 28
M  V30 28 1 28 29
M  V30 29 1 29 30
M  V30 30 1 29 31
M  V30 31 2 13 32
M  V30 32 1 32 33
M  V30 33 2 33 34
M  V30 34 1 34 35
M  V30 35 2 9 5
M  V30 36 1 34 11
M  V30 37 1 20 15
M  V30 38 1 25 17
M  V30 39 1 1 36
M  V30 40 1 1 37
M  V30 41 1 1 38
M  V30 42 1 7 39
M  V30 43 1 8 40
M  V30 44 1 10 41
M  V30 45 1 14 42
M  V30 46 1 16 43
M  V30 47 1 19 44
M  V30 48 1 22 45
M  V30 49 1 22 46
M  V30 50 1 22 47
M  V30 51 1 23 48
M  V30 52 1 23 49
M  V30 53 1 24 50
M  V30 54 1 24 51
M  V30 55 1 28 52
M  V30 56 1 28 53
M  V30 57 1 30 54
M  V30 58 1 30 55
M  V30 59 1 30 56
M  V30 60 1 31 57
M  V30 61 1 31 58
M  V30 62 1 31 59
M  V30 63 1 33 60
M  V30 64 1 35 61
M  V30 65 1 35 62
M  V30 66 1 35 63
M  V30 END BOND
M  V30 END CTAB
M  END
>  <Dataset>  (447) 
ChEMBL_Kinases

>  <Ligand_Instance>  (447) 
nan

>  <PDB_ID>  (447) 
nan

>  <Standardized_SMILES>  (447) 
COC(=O)c1sccc1Nc1nc(Nc2cc3c(cc2OC)CCN3C(=O)CN(C)C)ncc1C

>  <Name>  (447) 
nan

>  <Pocket>  (447) 
nan

>  <ATP_Site>  (447) 
nan

>  <Peripheral>  (447) 
nan

>  <Num_H_Atoms_ProtBoundConf>  (447) 
nan

>  <Num_Resolved_Atoms>  (447) 
nan

>  <Num_Not_Resolved_Atoms>  (447) 
nan

$$$$
CHEMBL4216786
     RDKit          3D

  0  0  0  0  0  0  0  0  0  0999 V3000
M  V30 BEGIN CTAB
M  V30 COUNTS 103 109 0 0 0
M  V30 BEGIN ATOM
M  V30 1 C 9.010252 -3.259780 6.474193 0
M  V30 2 C 8.741151 -2.735299 5.105078 0
M  V30 3 O 8.463947 -3.728390 4.386548 0
M  V30 4 N 8.814872 -1.350764 4.787420 0
M  V30 5 C 9.119646 -0.136764 5.523979 0
M  V30 6 C 8.072951 0.946378 5.312397 0
M  V30 7 N 6.945002 0.440687 4.563856 0
M  V30 8 C 5.578916 0.488770 4.943002 0
M  V30 9 C 5.076089 1.180691 6.026330 0
M  V30 10 C 3.739475 1.193173 6.350857 0
M  V30 11 C 2.801111 0.511510 5.612951 0
M  V30 12 N 1.408181 0.486385 5.863417 0
M  V30 13 C 0.396221 -0.272374 5.217296 0
M  V30 14 N 0.652440 -1.215824 4.317446 0
M  V30 15 C -0.232661 -1.956607 3.637943 0
M  V30 16 C -1.532690 -1.622945 3.986626 0
M  V30 17 C -1.904805 -0.661554 4.902146 0
M  V30 18 N -0.899257 0.015170 5.521387 0
M  V30 19 N -3.253870 -0.309784 5.088108 0
M  V30 20 C -3.661710 0.685793 6.054894 0
M  V30 21 C -4.268277 -0.945946 4.300156 0
M  V30 22 O -5.503510 -0.734233 4.369445 0
M  V30 23 N -3.881273 -1.918996 3.332302 0
M  V30 24 C -4.659008 -2.427225 2.225301 0
M  V30 25 C -4.432400 -1.704183 1.047527 0
M  V30 26 C -5.029756 -1.972963 -0.191378 0
M  V30 27 N -4.653081 -1.117197 -1.261792 0
M  V30 28 C -5.082386 0.078173 -1.886524 0
M  V30 29 O -6.107772 0.679855 -1.486325 0
M  V30 30 C -4.260245 0.522342 -2.979009 0
M  V30 31 C -3.075217 -0.018191 -3.421017 0
M  V30 32 C -2.340186 0.487308 -4.475052 0
M  V30 33 C -2.768657 1.598406 -5.163623 0
M  V30 34 C -2.005562 2.172273 -6.270018 0
M  V30 35 N -2.543329 1.902278 -7.591214 0
M  V30 36 C -1.775317 2.599911 -8.611524 0
M  V30 37 C -1.432518 1.585209 -9.666738 0
M  V30 38 C -1.536311 0.235184 -8.984170 0
M  V30 39 N -2.089327 -0.764976 -9.889600 0
M  V30 40 C -2.149677 -2.016875 -9.160486 0
M  V30 41 C -1.214399 -0.921734 -11.034809 0
M  V30 42 C -2.559775 0.513862 -7.919162 0
M  V30 43 C -3.972749 2.174434 -4.740955 0
M  V30 44 C -4.484072 3.371699 -5.448587 0
M  V30 45 F -4.716561 3.127185 -6.794775 0
M  V30 46 F -5.692202 3.735013 -4.906236 0
M  V30 47 F -3.648405 4.453729 -5.334403 0
M  V30 48 C -4.694530 1.635608 -3.666426 0
M  V30 49 C -5.911553 -3.041494 -0.233834 0
M  V30 50 C -6.135227 -3.754691 0.925297 0
M  V30 51 C -5.536836 -3.472524 2.129825 0
M  V30 52 C -5.744209 -4.214755 3.393658 0
M  V30 53 C -2.562882 -2.499699 3.328472 0
M  V30 54 C 3.338865 -0.165933 4.542916 0
M  V30 55 N 4.651720 -0.160688 4.248022 0
M  V30 56 C 7.254165 -0.170490 3.283770 0
M  V30 57 C 8.533952 -0.959588 3.417379 0
M  V30 58 H 9.977427 -3.801738 6.541657 0
M  V30 59 H 9.048898 -2.399051 7.181505 0
M  V30 60 H 8.161783 -3.901042 6.831279 0
M  V30 61 H 9.151621 -0.370425 6.609407 0
M  V30 62 H 10.123005 0.261480 5.249111 0
M  V30 63 H 7.736497 1.383908 6.268730 0
M  V30 64 H 8.513318 1.773117 4.679813 0
M  V30 65 H 5.771706 1.738784 6.646351 0
M  V30 66 H 3.389888 1.758583 7.218386 0
M  V30 67 H 1.150836 1.129948 6.636297 0
M  V30 68 H 0.004317 -2.712099 2.913638 0
M  V30 69 H -2.887539 1.464458 6.245416 0
M  V30 70 H -4.545373 1.280061 5.681231 0
M  V30 71 H -3.904160 0.224395 7.056574 0
M  V30 72 H -3.734843 -0.847808 1.060596 0
M  V30 73 H -3.839918 -1.695733 -1.524681 0
M  V30 74 H -2.692925 -0.887359 -2.916035 0
M  V30 75 H -1.410546 0.025957 -4.783756 0
M  V30 76 H -1.867198 3.271673 -6.174368 0
M  V30 77 H -0.947646 1.768705 -6.259166 0
M  V30 78 H -2.414087 3.394620 -9.086648 0
M  V30 79 H -0.899316 3.098897 -8.157299 0
M  V30 80 H -2.170282 1.570606 -10.481994 0
M  V30 81 H -0.396146 1.736809 -10.018801 0
M  V30 82 H -0.581882 -0.155687 -8.618195 0
M  V30 83 H -2.312633 -2.842978 -9.890918 0
M  V30 84 H -1.168483 -2.252334 -8.672780 0
M  V30 85 H -2.957448 -2.058070 -8.413786 0
M  V30 86 H -1.803045 -1.304816 -11.899751 0
M  V30 87 H -0.412778 -1.660942 -10.840155 0
M  V30 88 H -0.720231 0.066445 -11.267694 0
M  V30 89 H -3.564536 0.154700 -8.248112 0
M  V30 90 H -2.296491 -0.145088 -7.062861 0
M  V30 91 H -5.616927 2.131794 -3.394043 0
M  V30 92 H -6.367135 -3.246481 -1.183879 0
M  V30 93 H -6.823884 -4.594325 0.907023 0
M  V30 94 H -5.722494 -5.305497 3.089848 0
M  V30 95 H -4.916256 -4.107786 4.096266 0
M  V30 96 H -6.749706 -4.047537 3.838032 0
M  V30 97 H -2.573571 -3.440514 3.961991 0
M  V30 98 H -2.247979 -2.815633 2.338402 0
M  V30 99 H 2.811272 -0.760851 3.826854 0
M  V30 100 H 7.451818 0.664107 2.568665 0
M  V30 101 H 6.410824 -0.793321 2.918670 0
M  V30 102 H 8.441993 -1.869234 2.751551 0
M  V30 103 H 9.423142 -0.425943 3.000063 0
M  V30 END ATOM
M  V30 BEGIN BOND
M  V30 1 1 1 2
M  V30 2 2 2 3
M  V30 3 1 2 4
M  V30 4 1 4 5
M  V30 5 1 5 6
M  V30 6 1 6 7
M  V30 7 1 7 8
M  V30 8 2 8 9
M  V30 9 1 9 10
M  V30 10 2 10 11
M  V30 11 1 11 12
M  V30 12 1 12 13
M  V30 13 2 13 14
M  V30 14 1 14 15
M  V30 15 2 15 16
M  V30 16 1 16 17
M  V30 17 2 17 18
M  V30 18 1 17 19
M  V30 19 1 19 20
M  V30 20 1 19 21
M  V30 21 2 21 22
M  V30 22 1 21 23
M  V30 23 1 23 24
M  V30 24 2 24 25
M  V30 25 1 25 26
M  V30 26 1 26 27
M  V30 27 1 27 28
M  V30 28 2 28 29
M  V30 29 1 28 30
M  V30 30 2 30 31
M  V30 31 1 31 32
M  V30 32 2 32 33
M  V30 33 1 33 34
M  V30 34 1 34 35
M  V30 35 1 35 36
M  V30 36 1 36 37
M  V30 37 1 37 38
M  V30 38 1 38 39
M  V30 39 1 39 40
M  V30 40 1 39 41
M  V30 41 1 38 42
M  V30 42 1 33 43
M  V30 43 1 43 44
M  V30 44 1 44 45
M  V30 45 1 44 46
M  V30 46 1 44 47
M  V30 47 2 43 48
M  V30 48 2 26 49
M  V30 49 1 49 50
M  V30 50 2 50 51
M  V30 51 1 51 52
M  V30 52 1 23 53
M  V30 53 1 11 54
M  V30 54 2 54 55
M  V30 55 1 7 56
M  V30 56 1 56 57
M  V30 57 1 57 4
M  V30 58 1 55 8
M  V30 59 1 18 13
M  V30 60 1 51 24
M  V30 61 1 53 16
M  V30 62 1 48 30
M  V30 63 1 42 35
M  V30 64 1 1 58
M  V30 65 1 1 59
M  V30 66 1 1 60
M  V30 67 1 5 61
M  V30 68 1 5 62
M  V30 69 1 6 63
M  V30 70 1 6 64
M  V30 71 1 9 65
M  V30 72 1 10 66
M  V30 73 1 12 67
M  V30 74 1 15 68
M  V30 75 1 20 69
M  V30 76 1 20 70
M  V30 77 1 20 71
M  V30 78 1 25 72
M  V30 79 1 27 73
M  V30 80 1 31 74
M  V30 81 1 32 75
M  V30 82 1 34 76
M  V30 83 1 34 77
M  V30 84 1 36 78
M  V30 85 1 36 79
M  V30 86 1 37 80
M  V30 87 1 37 81
M  V30 88 1 38 82
M  V30 89 1 40 83
M  V30 90 1 40 84
M  V30 91 1 40 85
M  V30 92 1 41 86
M  V30 93 1 41 87
M  V30 94 1 41 88
M  V30 95 1 42 89
M  V30 96 1 42 90
M  V30 97 1 48 91
M  V30 98 1 49 92
M  V30 99 1 50 93
M  V30 100 1 52 94
M  V30 101 1 52 95
M  V30 102 1 52 96
M  V30 103 1 53 97
M  V30 104 1 53 98
M  V30 105 1 54 99
M  V30 106 1 56 100
M  V30 107 1 56 101
M  V30 108 1 57 102
M  V30 109 1 57 103
M  V30 END BOND
M  V30 END CTAB
M  END
>  <Dataset>  (448) 
ChEMBL_Kinases

>  <Ligand_Instance>  (448) 
nan

>  <PDB_ID>  (448) 
nan

>  <Standardized_SMILES>  (448) 
CC(=O)N1CCN(c2ccc(Nc3ncc4c(n3)N(C)C(=O)N(c3cc(NC(=O)c5ccc(CN6CCC(N(C)C)C6)c(C(F)(F)F)c5)ccc3C)C4)cn2)CC1

>  <Name>  (448) 
nan

>  <Pocket>  (448) 
nan

>  <ATP_Site>  (448) 
nan

>  <Peripheral>  (448) 
nan

>  <Num_H_Atoms_ProtBoundConf>  (448) 
nan

>  <Num_Resolved_Atoms>  (448) 
nan

>  <Num_Not_Resolved_Atoms>  (448) 
nan

$$$$
CHEMBL4778477
     RDKit          3D

  0  0  0  0  0  0  0  0  0  0999 V3000
M  V30 BEGIN CTAB
M  V30 COUNTS 54 58 0 0 0
M  V30 BEGIN ATOM
M  V30 1 C 2.640250 1.715164 4.620220 0
M  V30 2 O 2.640001 1.228649 3.298775 0
M  V30 3 C 2.963407 -0.077088 2.964208 0
M  V30 4 C 3.336074 -1.142160 3.770462 0
M  V30 5 C 3.613820 -2.358420 3.226183 0
M  V30 6 C 3.525810 -2.533409 1.879544 0
M  V30 7 C 3.160676 -1.513219 1.026365 0
M  V30 8 F 3.100445 -1.782410 -0.300645 0
M  V30 9 C 2.880941 -0.280363 1.595925 0
M  V30 10 C 2.500783 0.741382 0.596925 0
M  V30 11 C 1.186584 0.900353 0.252874 0
M  V30 12 C 0.708288 1.815051 -0.662262 0
M  V30 13 C 1.650525 2.641992 -1.283013 0
M  V30 14 C 2.967106 2.462953 -0.920110 0
M  V30 15 N 3.388270 1.550277 -0.015429 0
M  V30 16 C 0.956839 3.461830 -2.143060 0
M  V30 17 N -0.332664 3.116354 -2.018334 0
M  V30 18 N -0.494116 2.154035 -1.155463 0
M  V30 19 C -1.668272 1.469028 -0.700416 0
M  V30 20 C -2.649963 2.167974 0.011544 0
M  V30 21 C -3.721618 1.384265 0.385425 0
M  V30 22 Cl -5.001041 2.202483 1.289203 0
M  V30 23 C -3.794360 0.042836 0.074907 0
M  V30 24 C -2.792144 -0.586865 -0.630037 0
M  V30 25 N -2.815404 -1.945595 -0.972126 0
M  V30 26 C -3.865790 -2.891631 -0.659639 0
M  V30 27 C -3.285020 -3.915659 0.290068 0
M  V30 28 N -2.153919 -4.554648 -0.334485 0
M  V30 29 C -0.942616 -4.455052 0.460677 0
M  V30 30 C -1.869342 -4.032077 -1.650340 0
M  V30 31 C -1.722539 -2.545650 -1.710137 0
M  V30 32 N -1.746370 0.172966 -0.996199 0
M  V30 33 H 3.599620 2.261236 4.819534 0
M  V30 34 H 1.790313 2.436939 4.785266 0
M  V30 35 H 2.460855 0.902321 5.353723 0
M  V30 36 H 3.366398 -0.867114 4.816228 0
M  V30 37 H 3.891304 -3.100398 3.964581 0
M  V30 38 H 3.756107 -3.518095 1.492452 0
M  V30 39 H 0.469953 0.254950 0.740227 0
M  V30 40 H 3.719583 3.098415 -1.392868 0
M  V30 41 H 1.402278 4.224632 -2.779380 0
M  V30 42 H -2.502196 3.216582 0.205244 0
M  V30 43 H -4.658692 -0.500965 0.399656 0
M  V30 44 H -4.758393 -2.425817 -0.248151 0
M  V30 45 H -4.139830 -3.456577 -1.586537 0
M  V30 46 H -4.041262 -4.646604 0.648318 0
M  V30 47 H -2.914286 -3.376844 1.184004 0
M  V30 48 H -0.121365 -4.802131 -0.218629 0
M  V30 49 H -1.034111 -5.124268 1.346530 0
M  V30 50 H -0.780156 -3.404042 0.756860 0
M  V30 51 H -2.553201 -4.426592 -2.423156 0
M  V30 52 H -0.856931 -4.454263 -1.915313 0
M  V30 53 H -1.833696 -2.240233 -2.779412 0
M  V30 54 H -0.735972 -2.187931 -1.352088 0
M  V30 END ATOM
M  V30 BEGIN BOND
M  V30 1 1 1 2
M  V30 2 1 2 3
M  V30 3 2 3 4
M  V30 4 1 4 5
M  V30 5 2 5 6
M  V30 6 1 6 7
M  V30 7 1 7 8
M  V30 8 2 7 9
M  V30 9 1 9 10
M  V30 10 2 10 11
M  V30 11 1 11 12
M  V30 12 2 12 13
M  V30 13 1 13 14
M  V30 14 2 14 15
M  V30 15 1 13 16
M  V30 16 2 16 17
M  V30 17 1 17 18
M  V30 18 1 18 19
M  V30 19 2 19 20
M  V30 20 1 20 21
M  V30 21 1 21 22
M  V30 22 2 21 23
M  V30 23 1 23 24
M  V30 24 1 24 25
M  V30 25 1 25 26
M  V30 26 1 26 27
M  V30 27 1 27 28
M  V30 28 1 28 29
M  V30 29 1 28 30
M  V30 30 1 30 31
M  V30 31 2 24 32
M  V30 32 1 9 3
M  V30 33 1 15 10
M  V30 34 1 32 19
M  V30 35 1 18 12
M  V30 36 1 31 25
M  V30 37 1 1 33
M  V30 38 1 1 34
M  V30 39 1 1 35
M  V30 40 1 4 36
M  V30 41 1 5 37
M  V30 42 1 6 38
M  V30 43 1 11 39
M  V30 44 1 14 40
M  V30 45 1 16 41
M  V30 46 1 20 42
M  V30 47 1 23 43
M  V30 48 1 26 44
M  V30 49 1 26 45
M  V30 50 1 27 46
M  V30 51 1 27 47
M  V30 52 1 29 48
M  V30 53 1 29 49
M  V30 54 1 29 50
M  V30 55 1 30 51
M  V30 56 1 30 52
M  V30 57 1 31 53
M  V30 58 1 31 54
M  V30 END BOND
M  V30 END CTAB
M  END
>  <Dataset>  (449) 
ChEMBL_Kinases

>  <Ligand_Instance>  (449) 
nan

>  <PDB_ID>  (449) 
nan

>  <Standardized_SMILES>  (449) 
COc1cccc(F)c1-c1cc2c(cn1)cnn2-c1cc(Cl)cc(N2CCN(C)CC2)n1

>  <Name>  (449) 
nan

>  <Pocket>  (449) 
nan

>  <ATP_Site>  (449) 
nan

>  <Peripheral>  (449) 
nan

>  <Num_H_Atoms_ProtBoundConf>  (449) 
nan

>  <Num_Resolved_Atoms>  (449) 
nan

>  <Num_Not_Resolved_Atoms>  (449) 
nan

$$$$
CHEMBL4216706
     RDKit          3D

  0  0  0  0  0  0  0  0  0  0999 V3000
M  V30 BEGIN CTAB
M  V30 COUNTS 44 47 0 0 0
M  V30 BEGIN ATOM
M  V30 1 C -1.006542 -4.122106 4.628646 0
M  V30 2 C 0.284960 -3.363171 4.512195 0
M  V30 3 O 1.087840 -3.199058 5.491581 0
M  V30 4 N 0.626584 -2.807775 3.271744 0
M  V30 5 C 1.819793 -2.064753 3.019463 0
M  V30 6 C 2.027079 -1.535298 1.738290 0
M  V30 7 C 3.148105 -0.802220 1.413588 0
M  V30 8 N 3.340390 -0.235235 0.097030 0
M  V30 9 C 2.133376 -0.342681 -0.645126 0
M  V30 10 N 1.234291 0.599578 -0.324755 0
M  V30 11 C 0.008314 0.683279 -0.900649 0
M  V30 12 C -0.923207 1.729705 -0.481668 0
M  V30 13 C -0.486247 2.606838 0.526069 0
M  V30 14 C -1.344586 3.626734 0.972423 0
M  V30 15 C -2.545014 3.611122 0.323163 0
M  V30 16 C -3.029050 2.784141 -0.664775 0
M  V30 17 C -4.389503 2.967214 -1.226223 0
M  V30 18 F -5.066378 1.750178 -1.119792 0
M  V30 19 F -5.045136 3.963839 -0.530365 0
M  V30 20 F -4.389216 3.260363 -2.577868 0
M  V30 21 N -2.166462 1.844025 -1.039616 0
M  V30 22 N -0.293644 -0.232876 -1.833651 0
M  V30 23 N 0.539910 -1.206418 -2.215936 0
M  V30 24 C 0.516250 -2.227908 -3.090574 0
M  V30 25 C 1.726250 -2.907107 -3.023729 0
M  V30 26 C 2.531351 -2.287733 -2.075640 0
M  V30 27 C 1.733121 -1.231952 -1.606636 0
M  V30 28 C 4.103310 -0.594526 2.426130 0
M  V30 29 C 3.899613 -1.113378 3.681712 0
M  V30 30 N 2.781361 -1.811970 3.906787 0
M  V30 31 H -1.876414 -3.411752 4.715034 0
M  V30 32 H -1.143088 -4.707985 3.694888 0
M  V30 33 H -1.007724 -4.798557 5.498205 0
M  V30 34 H -0.044013 -2.953818 2.495429 0
M  V30 35 H 1.260711 -1.732696 1.006957 0
M  V30 36 H 4.293542 0.145066 -0.106660 0
M  V30 37 H 0.508171 2.510033 0.964779 0
M  V30 38 H -1.072884 4.330881 1.740248 0
M  V30 39 H -3.251229 4.400877 0.643696 0
M  V30 40 H -0.326117 -2.448081 -3.722674 0
M  V30 41 H 2.019083 -3.793262 -3.615418 0
M  V30 42 H 3.545239 -2.571203 -1.779823 0
M  V30 43 H 4.992837 -0.026159 2.206404 0
M  V30 44 H 4.642858 -0.955013 4.484703 0
M  V30 END ATOM
M  V30 BEGIN BOND
M  V30 1 1 1 2
M  V30 2 2 2 3
M  V30 3 1 2 4
M  V30 4 1 4 5
M  V30 5 2 5 6
M  V30 6 1 6 7
M  V30 7 1 7 8
M  V30 8 1 8 9
M  V30 9 2 9 10
M  V30 10 1 10 11
M  V30 11 1 11 12
M  V30 12 2 12 13
M  V30 13 1 13 14
M  V30 14 2 14 15
M  V30 15 1 15 16
M  V30 16 1 16 17
M  V30 17 1 17 18
M  V30 18 1 17 19
M  V30 19 1 17 20
M  V30 20 2 16 21
M  V30 21 2 11 22
M  V30 22 1 22 23
M  V30 23 1 23 24
M  V30 24 2 24 25
M  V30 25 1 25 26
M  V30 26 2 26 27
M  V30 27 2 7 28
M  V30 28 1 28 29
M  V30 29 2 29 30
M  V30 30 1 30 5
M  V30 31 1 27 9
M  V30 32 1 21 12
M  V30 33 1 27 23
M  V30 34 1 1 31
M  V30 35 1 1 32
M  V30 36 1 1 33
M  V30 37 1 4 34
M  V30 38 1 6 35
M  V30 39 1 8 36
M  V30 40 1 13 37
M  V30 41 1 14 38
M  V30 42 1 15 39
M  V30 43 1 24 40
M  V30 44 1 25 41
M  V30 45 1 26 42
M  V30 46 1 28 43
M  V30 47 1 29 44
M  V30 END BOND
M  V30 END CTAB
M  END
>  <Dataset>  (450) 
ChEMBL_Kinases

>  <Ligand_Instance>  (450) 
nan

>  <PDB_ID>  (450) 
nan

>  <Standardized_SMILES>  (450) 
CC(=O)Nc1cc(Nc2nc(-c3cccc(C(F)(F)F)n3)nn3cccc23)ccn1

>  <Name>  (450) 
nan

>  <Pocket>  (450) 
nan

>  <ATP_Site>  (450) 
nan

>  <Peripheral>  (450) 
nan

>  <Num_H_Atoms_ProtBoundConf>  (450) 
nan

>  <Num_Resolved_Atoms>  (450) 
nan

>  <Num_Not_Resolved_Atoms>  (450) 
nan

$$$$
CHEMBL4216587
     RDKit          3D

  0  0  0  0  0  0  0  0  0  0999 V3000
M  V30 BEGIN CTAB
M  V30 COUNTS 32 33 0 0 0
M  V30 BEGIN ATOM
M  V30 1 C 1.466403 -3.754187 1.649005 0
M  V30 2 C 0.210122 -3.041675 1.935225 0
M  V30 3 C -0.849449 -3.612387 2.613685 0
M  V30 4 C -1.820192 -2.635687 2.675874 0
M  V30 5 C -1.333117 -1.497764 2.037372 0
M  V30 6 C -2.095384 -0.233883 1.900836 0
M  V30 7 N -0.095300 -1.773515 1.596355 0
M  V30 8 C 0.710096 -0.813740 0.884442 0
M  V30 9 C 0.500651 -0.879559 -0.624879 0
M  V30 10 C 1.384456 0.163826 -1.310970 0
M  V30 11 N 1.055670 1.487622 -0.854849 0
M  V30 12 C 0.103984 2.200268 -1.519297 0
M  V30 13 C -0.035706 3.423858 -0.904831 0
M  V30 14 N 0.825974 3.447547 0.122411 0
M  V30 15 C 1.491654 2.263343 0.150854 0
M  V30 16 H 1.214667 -4.742802 1.200118 0
M  V30 17 H 2.023075 -3.889682 2.614415 0
M  V30 18 H 2.079116 -3.160834 0.940534 0
M  V30 19 H -0.922981 -4.610160 3.018205 0
M  V30 20 H -2.785797 -2.741707 3.139698 0
M  V30 21 H -1.424717 0.582288 1.575259 0
M  V30 22 H -2.424775 0.052639 2.935133 0
M  V30 23 H -2.985935 -0.345479 1.267464 0
M  V30 24 H 0.599677 0.214453 1.257686 0
M  V30 25 H 1.795032 -1.065529 1.044443 0
M  V30 26 H -0.543099 -0.665598 -0.879651 0
M  V30 27 H 0.770867 -1.879631 -1.006969 0
M  V30 28 H 1.320567 0.063318 -2.399239 0
M  V30 29 H 2.417542 -0.061490 -0.947142 0
M  V30 30 H -0.512333 1.987686 -2.378509 0
M  V30 31 H -0.689213 4.264690 -1.137468 0
M  V30 32 H 2.246331 1.909473 0.812164 0
M  V30 END ATOM
M  V30 BEGIN BOND
M  V30 1 1 1 2
M  V30 2 2 2 3
M  V30 3 1 3 4
M  V30 4 2 4 5
M  V30 5 1 5 6
M  V30 6 1 5 7
M  V30 7 1 7 8
M  V30 8 1 8 9
M  V30 9 1 9 10
M  V30 10 1 10 11
M  V30 11 1 11 12
M  V30 12 2 12 13
M  V30 13 1 13 14
M  V30 14 2 14 15
M  V30 15 1 7 2
M  V30 16 1 15 11
M  V30 17 1 1 16
M  V30 18 1 1 17
M  V30 19 1 1 18
M  V30 20 1 3 19
M  V30 21 1 4 20
M  V30 22 1 6 21
M  V30 23 1 6 22
M  V30 24 1 6 23
M  V30 25 1 8 24
M  V30 26 1 8 25
M  V30 27 1 9 26
M  V30 28 1 9 27
M  V30 29 1 10 28
M  V30 30 1 10 29
M  V30 31 1 12 30
M  V30 32 1 13 31
M  V30 33 1 15 32
M  V30 END BOND
M  V30 END CTAB
M  END
>  <Dataset>  (451) 
ChEMBL_Kinases

>  <Ligand_Instance>  (451) 
nan

>  <PDB_ID>  (451) 
nan

>  <Standardized_SMILES>  (451) 
Cc1ccc(C)n1CCCn1ccnc1

>  <Name>  (451) 
nan

>  <Pocket>  (451) 
nan

>  <ATP_Site>  (451) 
nan

>  <Peripheral>  (451) 
nan

>  <Num_H_Atoms_ProtBoundConf>  (451) 
nan

>  <Num_Resolved_Atoms>  (451) 
nan

>  <Num_Not_Resolved_Atoms>  (451) 
nan

$$$$
CHEMBL4216563
     RDKit          3D

  0  0  0  0  0  0  0  0  0  0999 V3000
M  V30 BEGIN CTAB
M  V30 COUNTS 57 61 0 0 0
M  V30 BEGIN ATOM
M  V30 1 C 1.181613 -2.236631 3.612305 0
M  V30 2 N 1.947394 -1.092729 4.064842 0
M  V30 3 C 3.374043 -1.351059 3.979072 0
M  V30 4 C 3.791689 -1.689694 2.545267 0
M  V30 5 N 3.013591 -0.848552 1.651065 0
M  V30 6 C 2.534992 -1.092165 0.333623 0
M  V30 7 C 2.206116 -0.165130 -0.609278 0
M  V30 8 C 1.725687 -0.549293 -1.841835 0
M  V30 9 N 1.422207 0.541964 -2.739718 0
M  V30 10 C 0.045841 0.846019 -2.455395 0
M  V30 11 C -0.511204 1.591033 -1.409587 0
M  V30 12 C -1.875632 1.611534 -1.578514 0
M  V30 13 C -2.819288 2.290682 -0.695777 0
M  V30 14 C -2.421887 2.939873 0.425440 0
M  V30 15 C -3.296729 3.595334 1.270092 0
M  V30 16 C -4.655111 3.574870 0.930857 0
M  V30 17 C -5.103232 2.927400 -0.200132 0
M  V30 18 F -6.404401 2.906498 -0.528227 0
M  V30 19 C -4.184483 2.292070 -1.001666 0
M  V30 20 N -2.150665 0.901779 -2.693638 0
M  V30 21 N -1.009929 0.459996 -3.194329 0
M  V30 22 N 1.581285 -1.879780 -2.107367 0
M  V30 23 C 1.912598 -2.785789 -1.158829 0
M  V30 24 S 1.593561 -4.437316 -1.817340 0
M  V30 25 C -0.135532 -4.760297 -1.381550 0
M  V30 26 C -1.103685 -4.388625 -2.295439 0
M  V30 27 C -2.454905 -4.568984 -2.084606 0
M  V30 28 C -2.806357 -5.160046 -0.873658 0
M  V30 29 C -1.849038 -5.534868 0.044892 0
M  V30 30 C -0.497994 -5.342770 -0.190910 0
M  V30 31 N 2.383537 -2.419193 0.047404 0
M  V30 32 C 2.729031 0.410761 2.345597 0
M  V30 33 C 1.568732 0.069728 3.283183 0
M  V30 34 H 0.426682 -2.530523 4.367895 0
M  V30 35 H 1.853953 -3.078094 3.311040 0
M  V30 36 H 0.609526 -1.972922 2.674729 0
M  V30 37 H 3.578563 -2.208382 4.659045 0
M  V30 38 H 3.927928 -0.499434 4.366697 0
M  V30 39 H 3.716397 -2.762273 2.338969 0
M  V30 40 H 4.852811 -1.317415 2.483530 0
M  V30 41 H 2.334896 0.868328 -0.365586 0
M  V30 42 H 2.084496 0.965124 -3.410799 0
M  V30 43 H 0.127517 2.024578 -0.653705 0
M  V30 44 H -1.389969 2.993508 0.737758 0
M  V30 45 H -2.992038 4.119101 2.170979 0
M  V30 46 H -5.329060 4.094471 1.610179 0
M  V30 47 H -4.451548 1.752599 -1.912386 0
M  V30 48 H -3.128784 0.745048 -3.081119 0
M  V30 49 H -0.803782 -3.923765 -3.246473 0
M  V30 50 H -3.167181 -4.255449 -2.845550 0
M  V30 51 H -3.870700 -5.298654 -0.716492 0
M  V30 52 H -2.220960 -5.983334 0.956386 0
M  V30 53 H 0.254474 -5.636855 0.536112 0
M  V30 54 H 2.376603 1.148031 1.611510 0
M  V30 55 H 3.584843 0.836559 2.866415 0
M  V30 56 H 0.696486 -0.181037 2.644254 0
M  V30 57 H 1.259015 0.930418 3.911861 0
M  V30 END ATOM
M  V30 BEGIN BOND
M  V30 1 1 1 2
M  V30 2 1 2 3
M  V30 3 1 3 4
M  V30 4 1 4 5
M  V30 5 1 5 6
M  V30 6 2 6 7
M  V30 7 1 7 8
M  V30 8 1 8 9
M  V30 9 1 9 10
M  V30 10 1 10 11
M  V30 11 2 11 12
M  V30 12 1 12 13
M  V30 13 2 13 14
M  V30 14 1 14 15
M  V30 15 2 15 16
M  V30 16 1 16 17
M  V30 17 1 17 18
M  V30 18 2 17 19
M  V30 19 1 12 20
M  V30 20 1 20 21
M  V30 21 2 8 22
M  V30 22 1 22 23
M  V30 23 1 23 24
M  V30 24 1 24 25
M  V30 25 2 25 26
M  V30 26 1 26 27
M  V30 27 2 27 28
M  V30 28 1 28 29
M  V30 29 2 29 30
M  V30 30 2 23 31
M  V30 31 1 5 32
M  V30 32 1 32 33
M  V30 33 1 33 2
M  V30 34 1 31 6
M  V30 35 2 21 10
M  V30 36 1 30 25
M  V30 37 1 19 13
M  V30 38 1 1 34
M  V30 39 1 1 35
M  V30 40 1 1 36
M  V30 41 1 3 37
M  V30 42 1 3 38
M  V30 43 1 4 39
M  V30 44 1 4 40
M  V30 45 1 7 41
M  V30 46 1 9 42
M  V30 47 1 11 43
M  V30 48 1 14 44
M  V30 49 1 15 45
M  V30 50 1 16 46
M  V30 51 1 19 47
M  V30 52 1 20 48
M  V30 53 1 26 49
M  V30 54 1 27 50
M  V30 55 1 28 51
M  V30 56 1 29 52
M  V30 57 1 30 53
M  V30 58 1 32 54
M  V30 59 1 32 55
M  V30 60 1 33 56
M  V30 61 1 33 57
M  V30 END BOND
M  V30 END CTAB
M  END
>  <Dataset>  (452) 
ChEMBL_Kinases

>  <Ligand_Instance>  (452) 
nan

>  <PDB_ID>  (452) 
nan

>  <Standardized_SMILES>  (452) 
CN1CCN(c2cc(Nc3cc(-c4cccc(F)c4)[nH]n3)nc(Sc3ccccc3)n2)CC1

>  <Name>  (452) 
nan

>  <Pocket>  (452) 
nan

>  <ATP_Site>  (452) 
nan

>  <Peripheral>  (452) 
nan

>  <Num_H_Atoms_ProtBoundConf>  (452) 
nan

>  <Num_Resolved_Atoms>  (452) 
nan

>  <Num_Not_Resolved_Atoms>  (452) 
nan

$$$$
CHEMBL4778479
     RDKit          3D

  0  0  0  0  0  0  0  0  0  0999 V3000
M  V30 BEGIN CTAB
M  V30 COUNTS 34 37 0 0 0
M  V30 BEGIN ATOM
M  V30 1 O -3.368479 -4.371332 2.465547 0
M  V30 2 C -2.611726 -3.462565 1.983452 0
M  V30 3 C -1.257390 -3.825761 1.560371 0
M  V30 4 C -0.400021 -2.948664 1.047004 0
M  V30 5 C 1.003123 -3.118246 0.564356 0
M  V30 6 C 1.369406 -1.756720 0.120113 0 CFG=2
M  V30 7 O 1.634133 -1.774918 -1.231655 0
M  V30 8 C 2.523260 -1.106975 0.822263 0
M  V30 9 O 2.525591 0.278529 0.774054 0
M  V30 10 C 1.554200 1.115527 0.244673 0
M  V30 11 C 0.289297 0.550582 0.005887 0
M  V30 12 C -0.819599 1.197365 -0.514240 0
M  V30 13 C -0.637724 2.542738 -0.822904 0
M  V30 14 C 0.600937 3.137832 -0.600237 0
M  V30 15 O 0.830969 4.490941 -0.896144 0
M  V30 16 C 1.684312 2.451831 -0.078022 0
M  V30 17 O 2.929212 3.015053 0.154894 0
M  V30 18 C 0.185778 -0.878899 0.363873 0
M  V30 19 C -0.818189 -1.557860 0.894171 0
M  V30 20 C -2.162860 -1.192405 1.314533 0
M  V30 21 C -3.006787 -2.073035 1.823183 0
M  V30 22 O -4.301330 -1.759884 2.235514 0
M  V30 23 H -0.928707 -4.871451 1.670082 0
M  V30 24 H 1.662006 -3.557627 1.329952 0
M  V30 25 H 0.907592 -3.827000 -0.308008 0
M  V30 26 H 1.096189 -2.468923 -1.651140 0
M  V30 27 H 3.445203 -1.464615 0.298692 0
M  V30 28 H 2.621465 -1.464747 1.871120 0
M  V30 29 H -1.749749 0.684981 -0.677108 0
M  V30 30 H -1.434616 3.118855 -1.226372 0
M  V30 31 H 0.462504 5.206837 -0.253818 0
M  V30 32 H 3.200503 3.286380 1.104835 0
M  V30 33 H -2.577355 -0.202233 1.264425 0
M  V30 34 H -4.452756 -0.937076 2.804897 0
M  V30 END ATOM
M  V30 BEGIN BOND
M  V30 1 2 1 2
M  V30 2 1 2 3
M  V30 3 2 3 4
M  V30 4 1 4 5
M  V30 5 1 5 6
M  V30 6 1 6 7 CFG=3
M  V30 7 1 6 8
M  V30 8 1 8 9
M  V30 9 1 9 10
M  V30 10 2 10 11
M  V30 11 1 11 12
M  V30 12 2 12 13
M  V30 13 1 13 14
M  V30 14 1 14 15
M  V30 15 2 14 16
M  V30 16 1 16 17
M  V30 17 1 11 18
M  V30 18 2 18 19
M  V30 19 1 19 20
M  V30 20 2 20 21
M  V30 21 1 21 22
M  V30 22 1 21 2
M  V30 23 1 19 4
M  V30 24 1 18 6
M  V30 25 1 16 10
M  V30 26 1 3 23
M  V30 27 1 5 24
M  V30 28 1 5 25
M  V30 29 1 7 26
M  V30 30 1 8 27
M  V30 31 1 8 28
M  V30 32 1 12 29
M  V30 33 1 13 30
M  V30 34 1 15 31
M  V30 35 1 17 32
M  V30 36 1 20 33
M  V30 37 1 22 34
M  V30 END BOND
M  V30 END CTAB
M  END
>  <Dataset>  (453) 
ChEMBL_Kinases

>  <Ligand_Instance>  (453) 
nan

>  <PDB_ID>  (453) 
nan

>  <Standardized_SMILES>  (453) 
O=C1C=C2C[C@]3(O)COc4c(ccc(O)c4O)C3=C2C=C1O

>  <Name>  (453) 
nan

>  <Pocket>  (453) 
nan

>  <ATP_Site>  (453) 
nan

>  <Peripheral>  (453) 
nan

>  <Num_H_Atoms_ProtBoundConf>  (453) 
nan

>  <Num_Resolved_Atoms>  (453) 
nan

>  <Num_Not_Resolved_Atoms>  (453) 
nan

$$$$
CHEMBL4216522
     RDKit          3D

  0  0  0  0  0  0  0  0  0  0999 V3000
M  V30 BEGIN CTAB
M  V30 COUNTS 50 55 0 0 0
M  V30 BEGIN ATOM
M  V30 1 O -1.200925 -0.037347 3.220996 0
M  V30 2 C -0.673009 0.026795 2.094157 0
M  V30 3 C -0.107196 1.396453 1.730641 0
M  V30 4 C 1.345047 1.207203 1.868701 0
M  V30 5 C 1.807923 0.389391 2.916473 0
M  V30 6 C 3.127763 0.073237 3.162082 0
M  V30 7 C 4.092366 0.589988 2.324863 0
M  V30 8 C 3.713065 1.400117 1.278152 0
M  V30 9 C 4.664650 1.935856 0.446488 0
M  V30 10 C 4.333656 2.775295 -0.613177 0
M  V30 11 C 2.967037 3.037215 -0.774145 0
M  V30 12 C 2.053855 2.490979 0.065392 0
M  V30 13 C 2.373799 1.659106 1.113537 0
M  V30 14 O -0.586234 1.540090 0.405616 0
M  V30 15 C -0.560706 0.464426 -0.434026 0
M  V30 16 C -0.495899 0.727228 -1.808099 0
M  V30 17 C -0.462157 -0.260153 -2.766169 0
M  V30 18 C -0.492155 -1.595491 -2.387816 0
M  V30 19 C -0.556258 -1.876843 -1.040333 0
M  V30 20 C -0.589146 -0.874665 -0.117097 0
M  V30 21 N -0.653698 -1.144727 1.292357 0
M  V30 22 C -0.686135 -2.493975 1.810653 0
M  V30 23 C -2.056049 -2.996154 2.060572 0
M  V30 24 C -2.650228 -2.855370 3.320479 0
M  V30 25 C -3.922897 -3.291258 3.634251 0
M  V30 26 C -4.684234 -3.902929 2.688244 0
M  V30 27 C -4.166374 -4.077373 1.424133 0
M  V30 28 C -2.893351 -3.622721 1.170086 0
M  V30 29 O -0.447752 -2.386393 -3.527761 0
M  V30 30 C -0.204933 -1.548583 -4.642486 0
M  V30 31 O -0.398897 -0.231687 -4.160278 0
M  V30 32 H -0.525942 2.150556 2.391116 0
M  V30 33 H 1.094903 -0.059552 3.627211 0
M  V30 34 H 3.406433 -0.563322 3.988632 0
M  V30 35 H 5.115269 0.323683 2.542703 0
M  V30 36 H 5.709750 1.669897 0.656605 0
M  V30 37 H 5.185482 3.121119 -1.182438 0
M  V30 38 H 2.769866 3.698014 -1.615462 0
M  V30 39 H 1.066208 2.793260 -0.165559 0
M  V30 40 H -0.468433 1.746822 -2.194851 0
M  V30 41 H -0.571057 -2.903748 -0.722843 0
M  V30 42 H -0.189614 -2.448537 2.823017 0
M  V30 43 H -0.078958 -3.208631 1.216669 0
M  V30 44 H -2.146578 -2.394859 4.152689 0
M  V30 45 H -4.365860 -3.177995 4.599510 0
M  V30 46 H -5.671927 -4.252318 2.895743 0
M  V30 47 H -4.756395 -4.557453 0.671887 0
M  V30 48 H -2.544048 -3.789631 0.164908 0
M  V30 49 H -0.952611 -1.695816 -5.445269 0
M  V30 50 H 0.834108 -1.610636 -4.991490 0
M  V30 END ATOM
M  V30 BEGIN BOND
M  V30 1 2 1 2
M  V30 2 1 2 3
M  V30 3 1 3 4
M  V30 4 2 4 5
M  V30 5 1 5 6
M  V30 6 2 6 7
M  V30 7 1 7 8
M  V30 8 2 8 9
M  V30 9 1 9 10
M  V30 10 2 10 11
M  V30 11 1 11 12
M  V30 12 2 12 13
M  V30 13 1 3 14
M  V30 14 1 14 15
M  V30 15 2 15 16
M  V30 16 1 16 17
M  V30 17 2 17 18
M  V30 18 1 18 19
M  V30 19 2 19 20
M  V30 20 1 20 21
M  V30 21 1 21 22
M  V30 22 1 22 23
M  V30 23 2 23 24
M  V30 24 1 24 25
M  V30 25 2 25 26
M  V30 26 1 26 27
M  V30 27 2 27 28
M  V30 28 1 18 29
M  V30 29 1 29 30
M  V30 30 1 30 31
M  V30 31 1 21 2
M  V30 32 1 28 23
M  V30 33 1 13 4
M  V30 34 1 20 15
M  V30 35 1 13 8
M  V30 36 1 31 17
M  V30 37 1 3 32
M  V30 38 1 5 33
M  V30 39 1 6 34
M  V30 40 1 7 35
M  V30 41 1 9 36
M  V30 42 1 10 37
M  V30 43 1 11 38
M  V30 44 1 12 39
M  V30 45 1 16 40
M  V30 46 1 19 41
M  V30 47 1 22 42
M  V30 48 1 22 43
M  V30 49 1 24 44
M  V30 50 1 25 45
M  V30 51 1 26 46
M  V30 52 1 27 47
M  V30 53 1 28 48
M  V30 54 1 30 49
M  V30 55 1 30 50
M  V30 END BOND
M  V30 END CTAB
M  END
>  <Dataset>  (454) 
ChEMBL_Kinases

>  <Ligand_Instance>  (454) 
nan

>  <PDB_ID>  (454) 
nan

>  <Standardized_SMILES>  (454) 
O=C1C(c2cccc3ccccc23)Oc2cc3c(cc2N1Cc1ccccc1)OCO3

>  <Name>  (454) 
nan

>  <Pocket>  (454) 
nan

>  <ATP_Site>  (454) 
nan

>  <Peripheral>  (454) 
nan

>  <Num_H_Atoms_ProtBoundConf>  (454) 
nan

>  <Num_Resolved_Atoms>  (454) 
nan

>  <Num_Not_Resolved_Atoms>  (454) 
nan

$$$$
CHEMBL4778572
     RDKit          3D

  0  0  0  0  0  0  0  0  0  0999 V3000
M  V30 BEGIN CTAB
M  V30 COUNTS 57 60 0 0 0
M  V30 BEGIN ATOM
M  V30 1 C 2.151629 -5.323431 6.753615 0
M  V30 2 C 1.594772 -4.324483 6.043638 0
M  V30 3 C 2.827042 -3.592996 6.340422 0
M  V30 4 O 2.758938 -4.756794 6.815299 0
M  V30 5 N 2.826586 -2.293662 5.772230 0
M  V30 6 C 3.975156 -1.418553 5.945492 0
M  V30 7 C 4.745908 -1.308317 4.624875 0
M  V30 8 C 3.710329 -0.828505 3.633613 0
M  V30 9 C 2.413179 -1.007124 3.823716 0
M  V30 10 C 1.444267 -0.515923 2.824320 0
M  V30 11 C 1.817273 0.116265 1.648508 0
M  V30 12 C 0.883051 0.578760 0.748133 0
M  V30 13 C -0.472819 0.447760 0.950193 0
M  V30 14 C -1.547930 0.922993 0.049696 0
M  V30 15 C -1.615088 2.394610 -0.134664 0
M  V30 16 C -0.427706 3.063753 -0.716088 0
M  V30 17 C -1.546738 0.129221 -1.202709 0
M  V30 18 O -0.780006 -0.869079 -1.415734 0
M  V30 19 N -2.433721 0.459688 -2.263889 0
M  V30 20 C -2.529820 -0.220779 -3.514725 0
M  V30 21 C -3.362378 0.126888 -4.544739 0
M  V30 22 C -3.191016 -0.766267 -5.610666 0
M  V30 23 C -3.948697 -0.651649 -6.878471 0
M  V30 24 C -3.219414 -0.915425 -8.172666 0
M  V30 25 C -4.244496 -1.880367 -7.675409 0
M  V30 26 N -2.252093 -1.621776 -5.168689 0
M  V30 27 N -1.854769 -1.304329 -3.924653 0
M  V30 28 C -0.811180 -0.192688 2.140206 0
M  V30 29 N 0.118843 -0.633629 3.000253 0
M  V30 30 C 1.766542 -1.698055 4.998655 0
M  V30 31 H 1.395702 -6.128951 6.726751 0
M  V30 32 H 1.491706 -6.195524 6.803058 0
M  V30 33 H 0.628354 -4.209660 5.510924 0
M  V30 34 H 4.645388 -1.754282 6.756975 0
M  V30 35 H 3.581061 -0.394458 6.134708 0
M  V30 36 H 5.207952 -2.254430 4.324650 0
M  V30 37 H 5.461547 -0.474326 4.770133 0
M  V30 38 H 4.135299 -0.348599 2.793939 0
M  V30 39 H 2.840309 0.264080 1.411162 0
M  V30 40 H 1.214138 1.055296 -0.150851 0
M  V30 41 H -2.538876 0.644273 0.541425 0
M  V30 42 H -1.778367 2.824259 0.902301 0
M  V30 43 H -2.559068 2.668259 -0.679647 0
M  V30 44 H -0.718520 4.096247 -1.087703 0
M  V30 45 H 0.040062 2.546147 -1.572616 0
M  V30 46 H 0.370127 3.273688 0.022258 0
M  V30 47 H -3.055916 1.278866 -2.080133 0
M  V30 48 H -4.041108 0.975222 -4.507902 0
M  V30 49 H -4.661224 0.207255 -6.932645 0
M  V30 50 H -2.159629 -1.284289 -8.140376 0
M  V30 51 H -3.484062 -0.380237 -9.090943 0
M  V30 52 H -5.278034 -1.894424 -8.130584 0
M  V30 53 H -3.910311 -2.846610 -7.243931 0
M  V30 54 H -1.974530 -2.384199 -5.832049 0
M  V30 55 H -1.849544 -0.377219 2.450066 0
M  V30 56 H 1.155931 -2.518766 4.531521 0
M  V30 57 H 1.107980 -1.017475 5.570836 0
M  V30 END ATOM
M  V30 BEGIN BOND
M  V30 1 2 1 2
M  V30 2 1 2 3
M  V30 3 2 3 4
M  V30 4 1 3 5
M  V30 5 1 5 6
M  V30 6 1 6 7
M  V30 7 1 7 8
M  V30 8 2 8 9
M  V30 9 1 9 10
M  V30 10 2 10 11
M  V30 11 1 11 12
M  V30 12 2 12 13
M  V30 13 1 13 14
M  V30 14 1 14 15
M  V30 15 1 15 16
M  V30 16 1 14 17
M  V30 17 2 17 18
M  V30 18 1 17 19
M  V30 19 1 19 20
M  V30 20 1 20 21
M  V30 21 2 21 22
M  V30 22 1 22 23
M  V30 23 1 23 24
M  V30 24 1 24 25
M  V30 25 1 22 26
M  V30 26 1 26 27
M  V30 27 1 13 28
M  V30 28 2 28 29
M  V30 29 1 9 30
M  V30 30 1 30 5
M  V30 31 1 29 10
M  V30 32 2 27 20
M  V30 33 1 25 23
M  V30 34 1 1 31
M  V30 35 1 1 32
M  V30 36 1 2 33
M  V30 37 1 6 34
M  V30 38 1 6 35
M  V30 39 1 7 36
M  V30 40 1 7 37
M  V30 41 1 8 38
M  V30 42 1 11 39
M  V30 43 1 12 40
M  V30 44 1 14 41
M  V30 45 1 15 42
M  V30 46 1 15 43
M  V30 47 1 16 44
M  V30 48 1 16 45
M  V30 49 1 16 46
M  V30 50 1 19 47
M  V30 51 1 21 48
M  V30 52 1 23 49
M  V30 53 1 24 50
M  V30 54 1 24 51
M  V30 55 1 25 52
M  V30 56 1 25 53
M  V30 57 1 26 54
M  V30 58 1 28 55
M  V30 59 1 30 56
M  V30 60 1 30 57
M  V30 END BOND
M  V30 END CTAB
M  END
>  <Dataset>  (455) 
ChEMBL_Kinases

>  <Ligand_Instance>  (455) 
nan

>  <PDB_ID>  (455) 
nan

>  <Standardized_SMILES>  (455) 
C=CC(=O)N1CCC=C(c2ccc(C(CC)C(=O)Nc3cc(C4CC4)[nH]n3)cn2)C1

>  <Name>  (455) 
nan

>  <Pocket>  (455) 
nan

>  <ATP_Site>  (455) 
nan

>  <Peripheral>  (455) 
nan

>  <Num_H_Atoms_ProtBoundConf>  (455) 
nan

>  <Num_Resolved_Atoms>  (455) 
nan

>  <Num_Not_Resolved_Atoms>  (455) 
nan

$$$$
CHEMBL4216947
     RDKit          3D

  0  0  0  0  0  0  0  0  0  0999 V3000
M  V30 BEGIN CTAB
M  V30 COUNTS 41 44 0 0 0
M  V30 BEGIN ATOM
M  V30 1 O -0.052407 -2.371716 3.674927 0
M  V30 2 C 0.575292 -1.830776 2.699788 0
M  V30 3 N 1.597269 -2.442942 1.911930 0
M  V30 4 C 1.619768 -1.846460 0.585106 0
M  V30 5 C 2.872020 -2.297894 -0.105211 0
M  V30 6 C 2.805801 -3.699475 -0.610387 0
M  V30 7 C 1.848745 -3.780440 -1.755228 0
M  V30 8 C 0.535760 -4.353559 -1.289519 0
M  V30 9 C -0.086413 -3.550210 -0.177737 0
M  V30 10 C 0.355786 -2.111815 -0.176500 0
M  V30 11 N 1.714926 -0.388923 0.685700 0
M  V30 12 C 0.711349 0.320498 1.400212 0
M  V30 13 C 0.208295 1.586881 1.269014 0
M  V30 14 C -0.756967 2.025702 2.084733 0
M  V30 15 C -1.483329 3.247019 2.220642 0
M  V30 16 C -2.447659 3.379823 3.199419 0
M  V30 17 C -3.072405 4.631614 3.208373 0
M  V30 18 N -2.764056 5.632890 2.335685 0
M  V30 19 C -1.822332 5.462045 1.401925 0
M  V30 20 C -1.147443 4.239279 1.322808 0
M  V30 21 S -1.072525 0.613729 3.185627 0
M  V30 22 C 0.132471 -0.473426 2.456415 0
M  V30 23 H 2.127634 -3.186271 2.415396 0
M  V30 24 H 3.691264 -2.203543 0.657418 0
M  V30 25 H 3.081274 -1.634919 -0.977979 0
M  V30 26 H 2.566702 -4.433694 0.185260 0
M  V30 27 H 3.840691 -3.969088 -0.937726 0
M  V30 28 H 1.771397 -2.825323 -2.284292 0
M  V30 29 H 2.255625 -4.514688 -2.497368 0
M  V30 30 H 0.761242 -5.361674 -0.869172 0
M  V30 31 H -0.151825 -4.524167 -2.145721 0
M  V30 32 H -1.182622 -3.550074 -0.386450 0
M  V30 33 H 0.044764 -3.977340 0.826146 0
M  V30 34 H -0.455683 -1.530737 0.309598 0
M  V30 35 H 0.453435 -1.703781 -1.186291 0
M  V30 36 H 2.501714 0.179897 0.249556 0
M  V30 37 H 0.550214 2.287688 0.522665 0
M  V30 38 H -2.704272 2.612655 3.890214 0
M  V30 39 H -3.854667 4.826065 3.955847 0
M  V30 40 H -1.622559 6.297808 0.736222 0
M  V30 41 H -0.393442 4.123294 0.564036 0
M  V30 END ATOM
M  V30 BEGIN BOND
M  V30 1 2 1 2
M  V30 2 1 2 3
M  V30 3 1 3 4
M  V30 4 1 4 5
M  V30 5 1 5 6
M  V30 6 1 6 7
M  V30 7 1 7 8
M  V30 8 1 8 9
M  V30 9 1 9 10
M  V30 10 1 4 11
M  V30 11 1 11 12
M  V30 12 1 12 13
M  V30 13 2 13 14
M  V30 14 1 14 15
M  V30 15 2 15 16
M  V30 16 1 16 17
M  V30 17 2 17 18
M  V30 18 1 18 19
M  V30 19 2 19 20
M  V30 20 1 14 21
M  V30 21 1 21 22
M  V30 22 1 22 2
M  V30 23 1 10 4
M  V30 24 2 22 12
M  V30 25 1 20 15
M  V30 26 1 3 23
M  V30 27 1 5 24
M  V30 28 1 5 25
M  V30 29 1 6 26
M  V30 30 1 6 27
M  V30 31 1 7 28
M  V30 32 1 7 29
M  V30 33 1 8 30
M  V30 34 1 8 31
M  V30 35 1 9 32
M  V30 36 1 9 33
M  V30 37 1 10 34
M  V30 38 1 10 35
M  V30 39 1 11 36
M  V30 40 1 13 37
M  V30 41 1 16 38
M  V30 42 1 17 39
M  V30 43 1 19 40
M  V30 44 1 20 41
M  V30 END BOND
M  V30 END CTAB
M  END
>  <Dataset>  (456) 
ChEMBL_Kinases

>  <Ligand_Instance>  (456) 
nan

>  <PDB_ID>  (456) 
nan

>  <Standardized_SMILES>  (456) 
O=C1NC2(CCCCCC2)Nc2cc(-c3ccncc3)sc21

>  <Name>  (456) 
nan

>  <Pocket>  (456) 
nan

>  <ATP_Site>  (456) 
nan

>  <Peripheral>  (456) 
nan

>  <Num_H_Atoms_ProtBoundConf>  (456) 
nan

>  <Num_Resolved_Atoms>  (456) 
nan

>  <Num_Not_Resolved_Atoms>  (456) 
nan

$$$$
CHEMBL4217841
     RDKit          3D

  0  0  0  0  0  0  0  0  0  0999 V3000
M  V30 BEGIN CTAB
M  V30 COUNTS 55 59 0 0 0
M  V30 BEGIN ATOM
M  V30 1 O -0.154409 -2.518427 2.133790 0
M  V30 2 C -0.676590 -1.686431 1.306214 0
M  V30 3 N -0.228625 -0.336174 1.410342 0
M  V30 4 C -0.635047 0.795389 0.601216 0
M  V30 5 C 0.559207 1.415640 -0.056040 0
M  V30 6 N 1.701135 1.574876 0.822915 0
M  V30 7 C 3.068033 1.867199 0.620233 0
M  V30 8 N 3.299621 3.162022 0.995004 0
M  V30 9 C 4.545711 3.707107 0.863271 0
M  V30 10 N 5.558260 2.976341 0.363867 0
M  V30 11 C 5.388363 1.713439 -0.014804 0
M  V30 12 N 6.123525 0.696406 -0.530002 0
M  V30 13 C 5.364644 -0.424387 -0.705886 0
M  V30 14 C 4.065369 -0.135307 -0.287341 0
M  V30 15 Br 2.627321 -1.358984 -0.303739 0
M  V30 16 C 4.135351 1.160970 0.116442 0
M  V30 17 C 1.331569 1.381054 2.233185 0
M  V30 18 C 0.744793 0.015136 2.439262 0
M  V30 19 C -1.662846 -2.193129 0.354151 0
M  V30 20 C -2.957482 -1.463219 0.616168 0
M  V30 21 C -3.857231 -0.904448 -0.273076 0
M  V30 22 C -4.977330 -0.287244 0.239528 0
M  V30 23 C -5.260548 -0.189438 1.572032 0
M  V30 24 C -4.377578 -0.737901 2.446488 0
M  V30 25 C -3.240932 -1.367037 1.984702 0
M  V30 26 C -1.975508 -3.641101 0.714096 0
M  V30 27 C -1.146542 -4.622019 -0.035491 0
M  V30 28 N -1.209912 -4.475476 -1.471766 0
M  V30 29 C -2.009331 -3.305146 -1.766503 0
M  V30 30 C -1.263547 -2.145066 -1.087884 0
M  V30 31 H -1.402969 0.578099 -0.143172 0
M  V30 32 H -1.051589 1.540449 1.343037 0
M  V30 33 H 0.237136 2.497066 -0.260599 0
M  V30 34 H 0.836683 0.970543 -1.010391 0
M  V30 35 H 4.785553 4.723697 1.142697 0
M  V30 36 H 7.138979 0.785522 -0.754590 0
M  V30 37 H 5.700227 -1.373779 -1.099134 0
M  V30 38 H 2.140913 1.576769 2.931435 0
M  V30 39 H 0.556948 2.168384 2.428332 0
M  V30 40 H 1.483632 -0.767467 2.601341 0
M  V30 41 H 0.129754 0.068226 3.385667 0
M  V30 42 H -3.549849 -1.031989 -1.286193 0
M  V30 43 H -5.646239 0.132517 -0.510619 0
M  V30 44 H -6.170599 0.318206 1.861463 0
M  V30 45 H -4.594121 -0.665864 3.522261 0
M  V30 46 H -2.596385 -1.774729 2.774103 0
M  V30 47 H -3.051856 -3.878237 0.605895 0
M  V30 48 H -1.750535 -3.830516 1.803975 0
M  V30 49 H -0.097898 -4.651970 0.322132 0
M  V30 50 H -1.560693 -5.627348 0.188579 0
M  V30 51 H -1.664207 -5.286596 -1.956077 0
M  V30 52 H -2.043659 -3.178176 -2.856585 0
M  V30 53 H -3.021091 -3.370861 -1.369631 0
M  V30 54 H -1.562602 -1.264882 -1.649772 0
M  V30 55 H -0.179896 -2.272644 -1.207280 0
M  V30 END ATOM
M  V30 BEGIN BOND
M  V30 1 2 1 2
M  V30 2 1 2 3
M  V30 3 1 3 4
M  V30 4 1 4 5
M  V30 5 1 5 6
M  V30 6 1 6 7
M  V30 7 2 7 8
M  V30 8 1 8 9
M  V30 9 2 9 10
M  V30 10 1 10 11
M  V30 11 1 11 12
M  V30 12 1 12 13
M  V30 13 2 13 14
M  V30 14 1 14 15
M  V30 15 1 14 16
M  V30 16 1 6 17
M  V30 17 1 17 18
M  V30 18 1 2 19
M  V30 19 1 19 20
M  V30 20 2 20 21
M  V30 21 1 21 22
M  V30 22 2 22 23
M  V30 23 1 23 24
M  V30 24 2 24 25
M  V30 25 1 19 26
M  V30 26 1 26 27
M  V30 27 1 27 28
M  V30 28 1 28 29
M  V30 29 1 29 30
M  V30 30 1 18 3
M  V30 31 1 30 19
M  V30 32 1 16 7
M  V30 33 1 25 20
M  V30 34 2 16 11
M  V30 35 1 4 31
M  V30 36 1 4 32
M  V30 37 1 5 33
M  V30 38 1 5 34
M  V30 39 1 9 35
M  V30 40 1 12 36
M  V30 41 1 13 37
M  V30 42 1 17 38
M  V30 43 1 17 39
M  V30 44 1 18 40
M  V30 45 1 18 41
M  V30 46 1 21 42
M  V30 47 1 22 43
M  V30 48 1 23 44
M  V30 49 1 24 45
M  V30 50 1 25 46
M  V30 51 1 26 47
M  V30 52 1 26 48
M  V30 53 1 27 49
M  V30 54 1 27 50
M  V30 55 1 28 51
M  V30 56 1 29 52
M  V30 57 1 29 53
M  V30 58 1 30 54
M  V30 59 1 30 55
M  V30 END BOND
M  V30 END CTAB
M  END
>  <Dataset>  (457) 
ChEMBL_Kinases

>  <Ligand_Instance>  (457) 
nan

>  <PDB_ID>  (457) 
nan

>  <Standardized_SMILES>  (457) 
O=C(N1CCN(c2ncnc3[nH]cc(Br)c23)CC1)C1(c2ccccc2)CCNCC1

>  <Name>  (457) 
nan

>  <Pocket>  (457) 
nan

>  <ATP_Site>  (457) 
nan

>  <Peripheral>  (457) 
nan

>  <Num_H_Atoms_ProtBoundConf>  (457) 
nan

>  <Num_Resolved_Atoms>  (457) 
nan

>  <Num_Not_Resolved_Atoms>  (457) 
nan

$$$$
CHEMBL4217740
     RDKit          3D

  0  0  0  0  0  0  0  0  0  0999 V3000
M  V30 BEGIN CTAB
M  V30 COUNTS 51 54 0 0 0
M  V30 BEGIN ATOM
M  V30 1 C -0.563703 -3.916622 7.177415 0
M  V30 2 O 0.082301 -4.572153 6.118817 0
M  V30 3 C 0.509894 -3.599394 5.220257 0
M  V30 4 C 1.225745 -4.212773 4.031249 0
M  V30 5 N 1.683744 -3.232375 3.076780 0
M  V30 6 C 2.952669 -2.531474 3.018414 0
M  V30 7 C 2.775199 -1.682951 1.811913 0
M  V30 8 C 3.667009 -0.785970 1.251939 0
M  V30 9 C 3.388428 -0.037717 0.107106 0
M  V30 10 C 2.138332 -0.211115 -0.498919 0
M  V30 11 C 1.802762 0.554153 -1.703318 0
M  V30 12 N 0.555759 1.097096 -1.681980 0
M  V30 13 C 0.071677 1.827276 -2.688876 0
M  V30 14 N -1.242540 2.375902 -2.620373 0
M  V30 15 C -2.037849 2.112958 -1.416190 0
M  V30 16 C -3.399419 2.768067 -1.514919 0
M  V30 17 C -4.194138 1.908410 -2.495668 0
M  V30 18 O -4.576860 0.770135 -1.830847 0
M  V30 19 C -3.620516 0.186860 -1.040908 0
M  V30 20 C -2.217406 0.639112 -1.300544 0
M  V30 21 N 0.832528 2.044969 -3.774835 0
M  V30 22 C 2.081185 1.532195 -3.856574 0
M  V30 23 C 2.590501 0.773698 -2.816240 0
M  V30 24 Cl 4.173637 0.040679 -2.757856 0
M  V30 25 C 1.257102 -1.107381 0.067147 0
M  V30 26 C 1.545046 -1.841905 1.200567 0
M  V30 27 C 0.829532 -2.837459 2.003861 0
M  V30 28 O -0.335921 -3.214049 1.714674 0
M  V30 29 H 0.093831 -3.208540 7.707506 0
M  V30 30 H -0.906995 -4.707547 7.893425 0
M  V30 31 H -1.457095 -3.368310 6.847689 0
M  V30 32 H 1.194140 -2.933799 5.783619 0
M  V30 33 H -0.310274 -2.963505 4.828733 0
M  V30 34 H 0.649409 -5.042087 3.590612 0
M  V30 35 H 2.153357 -4.691969 4.459664 0
M  V30 36 H 3.714338 -3.305115 2.808628 0
M  V30 37 H 3.158183 -1.940661 3.929896 0
M  V30 38 H 4.652563 -0.625294 1.698954 0
M  V30 39 H 4.129931 0.647928 -0.281312 0
M  V30 40 H -1.612540 2.946309 -3.413973 0
M  V30 41 H -1.486863 2.543360 -0.532220 0
M  V30 42 H -3.875373 2.698813 -0.524514 0
M  V30 43 H -3.360278 3.822070 -1.836303 0
M  V30 44 H -5.097033 2.447460 -2.823497 0
M  V30 45 H -3.493676 1.642597 -3.309794 0
M  V30 46 H -3.893324 0.205673 0.052836 0
M  V30 47 H -3.636400 -0.913945 -1.291739 0
M  V30 48 H -1.601425 0.293719 -0.425550 0
M  V30 49 H -1.798724 0.089561 -2.168261 0
M  V30 50 H 2.776050 1.650067 -4.690160 0
M  V30 51 H 0.281202 -1.261666 -0.381673 0
M  V30 END ATOM
M  V30 BEGIN BOND
M  V30 1 1 1 2
M  V30 2 1 2 3
M  V30 3 1 3 4
M  V30 4 1 4 5
M  V30 5 1 5 6
M  V30 6 1 6 7
M  V30 7 2 7 8
M  V30 8 1 8 9
M  V30 9 2 9 10
M  V30 10 1 10 11
M  V30 11 2 11 12
M  V30 12 1 12 13
M  V30 13 1 13 14
M  V30 14 1 14 15
M  V30 15 1 15 16
M  V30 16 1 16 17
M  V30 17 1 17 18
M  V30 18 1 18 19
M  V30 19 1 19 20
M  V30 20 2 13 21
M  V30 21 1 21 22
M  V30 22 2 22 23
M  V30 23 1 23 24
M  V30 24 1 10 25
M  V30 25 2 25 26
M  V30 26 1 26 27
M  V30 27 2 27 28
M  V30 28 1 27 5
M  V30 29 1 26 7
M  V30 30 1 23 11
M  V30 31 1 20 15
M  V30 32 1 1 29
M  V30 33 1 1 30
M  V30 34 1 1 31
M  V30 35 1 3 32
M  V30 36 1 3 33
M  V30 37 1 4 34
M  V30 38 1 4 35
M  V30 39 1 6 36
M  V30 40 1 6 37
M  V30 41 1 8 38
M  V30 42 1 9 39
M  V30 43 1 14 40
M  V30 44 1 15 41
M  V30 45 1 16 42
M  V30 46 1 16 43
M  V30 47 1 17 44
M  V30 48 1 17 45
M  V30 49 1 19 46
M  V30 50 1 19 47
M  V30 51 1 20 48
M  V30 52 1 20 49
M  V30 53 1 22 50
M  V30 54 1 25 51
M  V30 END BOND
M  V30 END CTAB
M  END
>  <Dataset>  (458) 
ChEMBL_Kinases

>  <Ligand_Instance>  (458) 
nan

>  <PDB_ID>  (458) 
nan

>  <Standardized_SMILES>  (458) 
COCCN1Cc2ccc(-c3nc(NC4CCOCC4)ncc3Cl)cc2C1=O

>  <Name>  (458) 
nan

>  <Pocket>  (458) 
nan

>  <ATP_Site>  (458) 
nan

>  <Peripheral>  (458) 
nan

>  <Num_H_Atoms_ProtBoundConf>  (458) 
nan

>  <Num_Resolved_Atoms>  (458) 
nan

>  <Num_Not_Resolved_Atoms>  (458) 
nan

$$$$
CHEMBL4777896
     RDKit          3D

  0  0  0  0  0  0  0  0  0  0999 V3000
M  V30 BEGIN CTAB
M  V30 COUNTS 89 92 0 0 0
M  V30 BEGIN ATOM
M  V30 1 C -4.461075 -4.609750 7.047907 0
M  V30 2 C -3.455215 -4.371725 5.899794 0
M  V30 3 C -2.116855 -4.042274 6.406709 0
M  V30 4 C -0.955064 -3.889700 5.502289 0
M  V30 5 C -0.965725 -2.910350 4.392876 0
M  V30 6 C -1.903539 -3.189790 3.288466 0
M  V30 7 N -1.913143 -2.210161 2.205118 0
M  V30 8 C -2.272325 -0.861350 2.445450 0
M  V30 9 O -2.563586 -0.625593 3.660682 0
M  V30 10 C -2.441551 0.438166 1.772866 0 CFG=2
M  V30 11 C -3.923741 0.764083 1.939911 0
M  V30 12 C -4.421673 2.057254 1.463789 0
M  V30 13 C -3.935994 3.319000 2.062675 0
M  V30 14 C -4.697765 4.474579 1.367420 0
M  V30 15 C -4.048059 4.762178 0.045986 0
M  V30 16 C -2.673350 5.404773 0.252918 0
M  V30 17 C -2.288791 5.188017 1.694322 0
M  V30 18 C -2.519091 3.695178 2.040433 0
M  V30 19 N -2.080060 0.398243 0.387944 0
M  V30 20 C -1.727330 0.789137 -0.901852 0
M  V30 21 O -1.733886 2.074726 -0.882797 0
M  V30 22 C -1.391241 0.075893 -2.113562 0
M  V30 23 C -1.120822 -1.286220 -2.044194 0
M  V30 24 C -0.734914 -1.900028 -3.216469 0
M  V30 25 C -0.620811 -1.201243 -4.409043 0
M  V30 26 C -0.115829 -1.908874 -5.656988 0
M  V30 27 N 1.339013 -1.629084 -5.735698 0
M  V30 28 C 2.367484 -2.174514 -4.945052 0
M  V30 29 O 2.096234 -2.995125 -4.067751 0
M  V30 30 C 3.732582 -1.734866 -5.196740 0
M  V30 31 C 4.332100 -0.883429 -6.094289 0
M  V30 32 N 5.624863 -0.857079 -5.832143 0
M  V30 33 N 5.937419 -1.652109 -4.798290 0
M  V30 34 C 7.309925 -1.654433 -4.456705 0
M  V30 35 C 8.406134 -2.151818 -5.118053 0
M  V30 36 C 9.654568 -2.034664 -4.589066 0
M  V30 37 C 9.870533 -1.424523 -3.390294 0
M  V30 38 C 8.781049 -0.898971 -2.674764 0
M  V30 39 C 7.519496 -1.029742 -3.233238 0
M  V30 40 C 4.767235 -2.196034 -4.405488 0
M  V30 41 N 4.845763 -3.101586 -3.294175 0
M  V30 42 C -0.915283 0.158432 -4.388225 0
M  V30 43 C -1.305707 0.834062 -3.253094 0
M  V30 44 H -5.427664 -4.971079 6.588819 0
M  V30 45 H -4.577855 -3.723195 7.682038 0
M  V30 46 H -4.140704 -5.452141 7.690082 0
M  V30 47 H -3.894861 -3.415501 5.445676 0
M  V30 48 H -3.479820 -5.214816 5.217835 0
M  V30 49 H -1.803493 -4.785414 7.232598 0
M  V30 50 H -2.196631 -3.028280 6.952064 0
M  V30 51 H -0.034209 -3.621544 6.149721 0
M  V30 52 H -0.635360 -4.922407 5.133948 0
M  V30 53 H -1.112919 -1.903293 4.874985 0
M  V30 54 H 0.073579 -2.927638 3.939772 0
M  V30 55 H -1.461316 -4.116471 2.755368 0
M  V30 56 H -2.914953 -3.523337 3.522521 0
M  V30 57 H -1.688342 -2.297330 1.187044 0
M  V30 58 H -1.920052 1.233061 2.298740 0
M  V30 59 H -4.408433 -0.098214 1.354546 0
M  V30 60 H -4.196908 0.561274 2.976908 0
M  V30 61 H -4.454248 2.070930 0.336293 0
M  V30 62 H -5.546561 2.045837 1.705495 0
M  V30 63 H -4.348410 3.316060 3.134813 0
M  V30 64 H -5.724222 4.102859 1.177240 0
M  V30 65 H -4.701054 5.378280 2.011868 0
M  V30 66 H -3.861450 3.815441 -0.509030 0
M  V30 67 H -4.700531 5.369893 -0.619664 0
M  V30 68 H -1.899977 4.920933 -0.402840 0
M  V30 69 H -2.656465 6.468647 -0.028943 0
M  V30 70 H -2.721109 5.868541 2.412127 0
M  V30 71 H -1.170035 5.326851 1.719945 0
M  V30 72 H -2.130047 3.624491 3.100776 0
M  V30 73 H -1.819167 3.188911 1.396853 0
M  V30 74 H -2.102712 -0.663898 0.182697 0
M  V30 75 H -1.193452 -1.885254 -1.149756 0
M  V30 76 H -0.508532 -2.982142 -3.196344 0
M  V30 77 H -0.288861 -2.986362 -5.488812 0
M  V30 78 H -0.627753 -1.588847 -6.559351 0
M  V30 79 H 1.618131 -0.936639 -6.488516 0
M  V30 80 H 3.654616 -0.407843 -6.822580 0
M  V30 81 H 8.157036 -2.614457 -6.048962 0
M  V30 82 H 10.500911 -2.421867 -5.105431 0
M  V30 83 H 10.838584 -1.279639 -2.882850 0
M  V30 84 H 8.928294 -0.408594 -1.714980 0
M  V30 85 H 6.733729 -0.590101 -2.608946 0
M  V30 86 H 5.274190 -4.051984 -3.495356 0
M  V30 87 H 4.440932 -2.620400 -2.458679 0
M  V30 88 H -0.840311 0.725261 -5.304707 0
M  V30 89 H -1.532972 1.883366 -3.244068 0
M  V30 END ATOM
M  V30 BEGIN BOND
M  V30 1 1 1 2
M  V30 2 1 2 3
M  V30 3 1 3 4
M  V30 4 1 4 5
M  V30 5 1 5 6
M  V30 6 1 6 7
M  V30 7 1 7 8
M  V30 8 2 8 9
M  V30 9 1 8 10
M  V30 10 1 10 11
M  V30 11 1 11 12
M  V30 12 1 12 13
M  V30 13 1 13 14
M  V30 14 1 14 15
M  V30 15 1 15 16
M  V30 16 1 16 17
M  V30 17 1 17 18
M  V30 18 1 10 19
M  V30 19 1 19 20
M  V30 20 2 20 21
M  V30 21 1 20 22
M  V30 22 2 22 23
M  V30 23 1 23 24
M  V30 24 2 24 25
M  V30 25 1 25 26
M  V30 26 1 26 27
M  V30 27 1 27 28
M  V30 28 2 28 29
M  V30 29 1 28 30
M  V30 30 1 30 31
M  V30 31 2 31 32
M  V30 32 1 32 33
M  V30 33 1 33 34
M  V30 34 2 34 35
M  V30 35 1 35 36
M  V30 36 2 36 37
M  V30 37 1 37 38
M  V30 38 2 38 39
M  V30 39 1 33 40
M  V30 40 1 40 41
M  V30 41 1 25 42
M  V30 42 2 42 43
M  V30 43 1 18 13
M  V30 44 1 43 22
M  V30 45 2 40 30
M  V30 46 1 39 34
M  V30 47 1 1 44
M  V30 48 1 1 45
M  V30 49 1 1 46
M  V30 50 1 2 47
M  V30 51 1 2 48
M  V30 52 1 3 49
M  V30 53 1 3 50
M  V30 54 1 4 51
M  V30 55 1 4 52
M  V30 56 1 5 53
M  V30 57 1 5 54
M  V30 58 1 6 55
M  V30 59 1 6 56
M  V30 60 1 7 57
M  V30 61 1 10 58 CFG=1
M  V30 62 1 11 59
M  V30 63 1 11 60
M  V30 64 1 12 61
M  V30 65 1 12 62
M  V30 66 1 13 63
M  V30 67 1 14 64
M  V30 68 1 14 65
M  V30 69 1 15 66
M  V30 70 1 15 67
M  V30 71 1 16 68
M  V30 72 1 16 69
M  V30 73 1 17 70
M  V30 74 1 17 71
M  V30 75 1 18 72
M  V30 76 1 18 73
M  V30 77 1 19 74
M  V30 78 1 23 75
M  V30 79 1 24 76
M  V30 80 1 26 77
M  V30 81 1 26 78
M  V30 82 1 27 79
M  V30 83 1 31 80
M  V30 84 1 35 81
M  V30 85 1 36 82
M  V30 86 1 37 83
M  V30 87 1 38 84
M  V30 88 1 39 85
M  V30 89 1 41 86
M  V30 90 1 41 87
M  V30 91 1 42 88
M  V30 92 1 43 89
M  V30 END BOND
M  V30 END CTAB
M  END
>  <Dataset>  (459) 
ChEMBL_Kinases

>  <Ligand_Instance>  (459) 
nan

>  <PDB_ID>  (459) 
nan

>  <Standardized_SMILES>  (459) 
CCCCCCNC(=O)[C@H](CCC1CCCCC1)NC(=O)c1ccc(CNC(=O)c2cnn(-c3ccccc3)c2N)cc1

>  <Name>  (459) 
nan

>  <Pocket>  (459) 
nan

>  <ATP_Site>  (459) 
nan

>  <Peripheral>  (459) 
nan

>  <Num_H_Atoms_ProtBoundConf>  (459) 
nan

>  <Num_Resolved_Atoms>  (459) 
nan

>  <Num_Not_Resolved_Atoms>  (459) 
nan

$$$$
CHEMBL4777904
     RDKit          3D

  0  0  0  0  0  0  0  0  0  0999 V3000
M  V30 BEGIN CTAB
M  V30 COUNTS 49 52 0 0 0
M  V30 BEGIN ATOM
M  V30 1 C 3.468909 0.575559 5.600330 0
M  V30 2 S 2.032200 -0.208706 4.944264 0
M  V30 3 O 2.341051 -1.677358 4.746061 0
M  V30 4 O 0.918948 -0.170549 5.962923 0
M  V30 5 N 1.483495 0.501537 3.474500 0
M  V30 6 C 2.315754 0.508707 2.322773 0
M  V30 7 C 3.570254 -0.057600 2.384836 0
M  V30 8 C 4.373285 -0.049772 1.270290 0
M  V30 9 C 3.962169 0.514385 0.067036 0
M  V30 10 F 4.839450 0.464206 -0.966438 0
M  V30 11 C 2.711595 1.088437 -0.028142 0
M  V30 12 C 2.344112 1.688800 -1.278486 0
M  V30 13 O 3.378000 2.066476 -1.944452 0
M  V30 14 C 1.128010 1.985799 -1.994892 0
M  V30 15 N 1.041746 2.972244 -2.895729 0
M  V30 16 N -0.190273 2.987299 -3.421743 0
M  V30 17 C -0.973187 2.025514 -2.906269 0
M  V30 18 N -2.233318 1.629237 -3.103843 0
M  V30 19 C -2.753026 0.572544 -2.419653 0
M  V30 20 C -1.938430 -0.093063 -1.502239 0
M  V30 21 C -2.405195 -1.236319 -0.724364 0
M  V30 22 C -1.465125 -2.213200 -0.373027 0
M  V30 23 C -1.831304 -3.324214 0.361418 0
M  V30 24 C -3.160367 -3.491181 0.769055 0
M  V30 25 S -3.578656 -4.923806 1.703002 0
M  V30 26 N -4.029775 -6.178930 0.625969 0
M  V30 27 O -2.380633 -5.398585 2.486801 0
M  V30 28 O -4.649503 -4.620167 2.707390 0
M  V30 29 C -4.106034 -2.526845 0.426471 0
M  V30 30 C -3.706019 -1.429120 -0.308184 0
M  V30 31 C -0.641871 0.332324 -1.313050 0
M  V30 32 C -0.121273 1.403878 -2.007582 0
M  V30 33 C 1.945614 1.057802 1.113305 0
M  V30 34 F 0.721608 1.632877 1.149352 0
M  V30 35 H 3.759494 1.389173 4.891728 0
M  V30 36 H 3.240704 0.949926 6.604836 0
M  V30 37 H 4.333142 -0.120318 5.624667 0
M  V30 38 H 0.530646 0.936465 3.412270 0
M  V30 39 H 3.943267 -0.511080 3.290604 0
M  V30 40 H 5.361346 -0.500203 1.335570 0
M  V30 41 H -0.438555 3.696238 -4.144864 0
M  V30 42 H -3.771618 0.239107 -2.567876 0
M  V30 43 H -0.426033 -2.187674 -0.630248 0
M  V30 44 H -1.126052 -4.096919 0.648553 0
M  V30 45 H -4.329756 -5.854014 -0.302396 0
M  V30 46 H -3.339636 -6.961342 0.627520 0
M  V30 47 H -5.124351 -2.661147 0.742553 0
M  V30 48 H -4.418375 -0.648979 -0.597846 0
M  V30 49 H -0.013530 -0.184893 -0.617156 0
M  V30 END ATOM
M  V30 BEGIN BOND
M  V30 1 1 1 2
M  V30 2 2 2 3
M  V30 3 2 2 4
M  V30 4 1 2 5
M  V30 5 1 5 6
M  V30 6 2 6 7
M  V30 7 1 7 8
M  V30 8 2 8 9
M  V30 9 1 9 10
M  V30 10 1 9 11
M  V30 11 1 11 12
M  V30 12 2 12 13
M  V30 13 1 12 14
M  V30 14 2 14 15
M  V30 15 1 15 16
M  V30 16 1 16 17
M  V30 17 2 17 18
M  V30 18 1 18 19
M  V30 19 2 19 20
M  V30 20 1 20 21
M  V30 21 2 21 22
M  V30 22 1 22 23
M  V30 23 2 23 24
M  V30 24 1 24 25
M  V30 25 1 25 26
M  V30 26 2 25 27
M  V30 27 2 25 28
M  V30 28 1 24 29
M  V30 29 2 29 30
M  V30 30 1 20 31
M  V30 31 2 31 32
M  V30 32 2 11 33
M  V30 33 1 33 34
M  V30 34 1 33 6
M  V30 35 1 32 14
M  V30 36 1 32 17
M  V30 37 1 30 21
M  V30 38 1 1 35
M  V30 39 1 1 36
M  V30 40 1 1 37
M  V30 41 1 5 38
M  V30 42 1 7 39
M  V30 43 1 8 40
M  V30 44 1 16 41
M  V30 45 1 19 42
M  V30 46 1 22 43
M  V30 47 1 23 44
M  V30 48 1 26 45
M  V30 49 1 26 46
M  V30 50 1 29 47
M  V30 51 1 30 48
M  V30 52 1 31 49
M  V30 END BOND
M  V30 END CTAB
M  END
>  <Dataset>  (460) 
ChEMBL_Kinases

>  <Ligand_Instance>  (460) 
nan

>  <PDB_ID>  (460) 
nan

>  <Standardized_SMILES>  (460) 
CS(=O)(=O)Nc1ccc(F)c(C(=O)c2n[nH]c3ncc(-c4ccc(S(N)(=O)=O)cc4)cc23)c1F

>  <Name>  (460) 
nan

>  <Pocket>  (460) 
nan

>  <ATP_Site>  (460) 
nan

>  <Peripheral>  (460) 
nan

>  <Num_H_Atoms_ProtBoundConf>  (460) 
nan

>  <Num_Resolved_Atoms>  (460) 
nan

>  <Num_Not_Resolved_Atoms>  (460) 
nan

$$$$
CHEMBL4217734
     RDKit          3D

  0  0  0  0  0  0  0  0  0  0999 V3000
M  V30 BEGIN CTAB
M  V30 COUNTS 32 34 0 0 0
M  V30 BEGIN ATOM
M  V30 1 O 1.194045 -4.242009 -1.285757 0
M  V30 2 C 1.503286 -3.123310 -0.805458 0
M  V30 3 N 2.888686 -2.729315 -0.737659 0
M  V30 4 C 3.001419 -1.436362 -0.163118 0
M  V30 5 C 4.039418 -0.571346 0.144827 0
M  V30 6 C 3.770818 0.658463 0.721148 0
M  V30 7 C 2.474036 1.062963 1.006662 0
M  V30 8 C 1.418127 0.209612 0.705406 0
M  V30 9 C 1.726017 -1.005742 0.132487 0
M  V30 10 C 0.729472 -2.003816 -0.238799 0
M  V30 11 N -0.529910 -2.171035 -0.214251 0
M  V30 12 N -1.524997 -1.352684 0.234074 0
M  V30 13 C -2.143320 -1.759393 1.483347 0
M  V30 14 C -1.762595 -0.716404 2.479946 0
M  V30 15 C -2.236421 0.628524 2.098189 0
M  V30 16 C -2.449793 0.905845 0.670102 0
M  V30 17 C -2.097381 -0.118692 -0.326721 0
M  V30 18 H 3.745357 -3.243605 -1.037776 0
M  V30 19 H 5.053717 -0.865203 -0.068317 0
M  V30 20 H 4.647611 1.282755 0.933272 0
M  V30 21 H 2.361313 2.032550 1.453184 0
M  V30 22 H 0.414538 0.538658 0.933601 0
M  V30 23 H -3.265592 -1.744224 1.349402 0
M  V30 24 H -1.918468 -2.783014 1.796036 0
M  V30 25 H -0.656239 -0.764949 2.633624 0
M  V30 26 H -2.190077 -1.032892 3.459411 0
M  V30 27 H -3.135213 0.872048 2.714178 0
M  V30 28 H -1.463401 1.351646 2.497300 0
M  V30 29 H -3.536449 1.180849 0.517636 0
M  V30 30 H -1.927991 1.856106 0.349832 0
M  V30 31 H -3.002924 -0.501109 -0.885177 0
M  V30 32 H -1.429205 0.240785 -1.143257 0
M  V30 END ATOM
M  V30 BEGIN BOND
M  V30 1 2 1 2
M  V30 2 1 2 3
M  V30 3 1 3 4
M  V30 4 2 4 5
M  V30 5 1 5 6
M  V30 6 2 6 7
M  V30 7 1 7 8
M  V30 8 2 8 9
M  V30 9 1 9 10
M  V30 10 2 10 11 CFG=2
M  V30 11 1 11 12
M  V30 12 1 12 13
M  V30 13 1 13 14
M  V30 14 1 14 15
M  V30 15 1 15 16
M  V30 16 1 16 17
M  V30 17 1 10 2
M  V30 18 1 17 12
M  V30 19 1 9 4
M  V30 20 1 3 18
M  V30 21 1 5 19
M  V30 22 1 6 20
M  V30 23 1 7 21
M  V30 24 1 8 22
M  V30 25 1 13 23
M  V30 26 1 13 24
M  V30 27 1 14 25
M  V30 28 1 14 26
M  V30 29 1 15 27
M  V30 30 1 15 28
M  V30 31 1 16 29
M  V30 32 1 16 30
M  V30 33 1 17 31
M  V30 34 1 17 32
M  V30 END BOND
M  V30 END CTAB
M  END
>  <Dataset>  (461) 
ChEMBL_Kinases

>  <Ligand_Instance>  (461) 
nan

>  <PDB_ID>  (461) 
nan

>  <Standardized_SMILES>  (461) 
O=C1Nc2ccccc2C1=NN1CCCCC1

>  <Name>  (461) 
nan

>  <Pocket>  (461) 
nan

>  <ATP_Site>  (461) 
nan

>  <Peripheral>  (461) 
nan

>  <Num_H_Atoms_ProtBoundConf>  (461) 
nan

>  <Num_Resolved_Atoms>  (461) 
nan

>  <Num_Not_Resolved_Atoms>  (461) 
nan

$$$$
CHEMBL477791
     RDKit          3D

  0  0  0  0  0  0  0  0  0  0999 V3000
M  V30 BEGIN CTAB
M  V30 COUNTS 50 53 0 0 0
M  V30 BEGIN ATOM
M  V30 1 C 0.315623 0.948883 4.577198 0
M  V30 2 C 1.109705 1.408613 3.431883 0
M  V30 3 C 1.949908 2.485479 3.623827 0
M  V30 4 C 2.711300 2.948794 2.578657 0
M  V30 5 C 2.606413 2.308353 1.351124 0
M  V30 6 N 3.354611 2.701695 0.176739 0
M  V30 7 C 2.830865 3.656772 -0.730238 0
M  V30 8 O 1.726256 4.250449 -0.646750 0
M  V30 9 C 3.677523 3.942127 -1.834671 0
M  V30 10 C 4.884329 3.590975 -2.343887 0
M  V30 11 C 5.404403 4.101574 -3.493488 0
M  V30 12 C 4.558971 5.109466 -4.207381 0
M  V30 13 S 3.036549 5.211270 -3.085556 0
M  V30 14 C 1.753999 1.226201 1.181059 0
M  V30 15 C 0.980831 0.749227 2.226956 0
M  V30 16 C 0.101443 -0.389177 1.999653 0
M  V30 17 C -0.622047 -0.278267 0.806476 0
M  V30 18 C -1.517692 -1.284317 0.427431 0
M  V30 19 C -1.681658 -2.387185 1.240332 0
M  V30 20 C -2.626090 -3.412067 0.806110 0
M  V30 21 O -3.236529 -3.239806 -0.276052 0
M  V30 22 N -2.890923 -4.591243 1.540657 0
M  V30 23 C -3.850216 -5.533697 1.004937 0
M  V30 24 C -3.456942 -6.062141 -0.339740 0
M  V30 25 C -4.459257 -7.057001 -0.916794 0
M  V30 26 C -4.148287 -5.742799 -1.586415 0
M  V30 27 C -0.967491 -2.487908 2.409720 0
M  V30 28 C -0.090324 -1.488363 2.767251 0
M  V30 29 H 0.948790 0.276372 5.192693 0
M  V30 30 H -0.650201 0.486362 4.332702 0
M  V30 31 H 0.046770 1.812978 5.253542 0
M  V30 32 H 2.024658 2.980448 4.590334 0
M  V30 33 H 3.396337 3.785011 2.635787 0
M  V30 34 H 4.281548 2.240883 0.054156 0
M  V30 35 H 5.359780 2.862520 -1.715296 0
M  V30 36 H 6.364740 3.801561 -3.869794 0
M  V30 37 H 4.977010 5.529626 -5.145123 0
M  V30 38 H 1.665898 0.721258 0.228481 0
M  V30 39 H -0.540006 0.570189 0.114849 0
M  V30 40 H -2.069546 -1.171283 -0.509998 0
M  V30 41 H -2.405929 -4.763995 2.434906 0
M  V30 42 H -4.031160 -6.344051 1.741639 0
M  V30 43 H -4.829597 -5.003341 0.853992 0
M  V30 44 H -2.372834 -6.342508 -0.431279 0
M  V30 45 H -5.466196 -7.108924 -0.485812 0
M  V30 46 H -4.098594 -8.008471 -1.332609 0
M  V30 47 H -4.958289 -4.965980 -1.653237 0
M  V30 48 H -3.603807 -5.827867 -2.531409 0
M  V30 49 H -1.082791 -3.340781 3.055632 0
M  V30 50 H 0.489670 -1.517351 3.666068 0
M  V30 END ATOM
M  V30 BEGIN BOND
M  V30 1 1 1 2
M  V30 2 2 2 3
M  V30 3 1 3 4
M  V30 4 2 4 5
M  V30 5 1 5 6
M  V30 6 1 6 7
M  V30 7 2 7 8
M  V30 8 1 7 9
M  V30 9 2 9 10
M  V30 10 1 10 11
M  V30 11 2 11 12
M  V30 12 1 12 13
M  V30 13 1 5 14
M  V30 14 2 14 15
M  V30 15 1 15 16
M  V30 16 2 16 17
M  V30 17 1 17 18
M  V30 18 2 18 19
M  V30 19 1 19 20
M  V30 20 2 20 21
M  V30 21 1 20 22
M  V30 22 1 22 23
M  V30 23 1 23 24
M  V30 24 1 24 25
M  V30 25 1 25 26
M  V30 26 1 19 27
M  V30 27 2 27 28
M  V30 28 1 15 2
M  V30 29 1 28 16
M  V30 30 1 13 9
M  V30 31 1 26 24
M  V30 32 1 1 29
M  V30 33 1 1 30
M  V30 34 1 1 31
M  V30 35 1 3 32
M  V30 36 1 4 33
M  V30 37 1 6 34
M  V30 38 1 10 35
M  V30 39 1 11 36
M  V30 40 1 12 37
M  V30 41 1 14 38
M  V30 42 1 17 39
M  V30 43 1 18 40
M  V30 44 1 22 41
M  V30 45 1 23 42
M  V30 46 1 23 43
M  V30 47 1 24 44
M  V30 48 1 25 45
M  V30 49 1 25 46
M  V30 50 1 26 47
M  V30 51 1 26 48
M  V30 52 1 27 49
M  V30 53 1 28 50
M  V30 END BOND
M  V30 END CTAB
M  END
>  <Dataset>  (462) 
ChEMBL_Kinases

>  <Ligand_Instance>  (462) 
nan

>  <PDB_ID>  (462) 
nan

>  <Standardized_SMILES>  (462) 
Cc1ccc(NC(=O)c2cccs2)cc1-c1ccc(C(=O)NCC2CC2)cc1

>  <Name>  (462) 
nan

>  <Pocket>  (462) 
nan

>  <ATP_Site>  (462) 
nan

>  <Peripheral>  (462) 
nan

>  <Num_H_Atoms_ProtBoundConf>  (462) 
nan

>  <Num_Resolved_Atoms>  (462) 
nan

>  <Num_Not_Resolved_Atoms>  (462) 
nan

$$$$
CHEMBL4777926
     RDKit          3D

  0  0  0  0  0  0  0  0  0  0999 V3000
M  V30 BEGIN CTAB
M  V30 COUNTS 77 83 0 0 0
M  V30 BEGIN ATOM
M  V30 1 C -1.752468 -4.008953 7.385167 0
M  V30 2 N -1.266546 -2.779604 6.730796 0
M  V30 3 C -1.647351 -2.641668 5.344133 0
M  V30 4 O -2.302084 -3.732978 5.246314 0
M  V30 5 C -0.981591 -1.287109 5.018344 0
M  V30 6 S -0.201680 0.302928 4.631098 0
M  V30 7 C -0.711441 0.470621 2.924875 0
M  V30 8 C -0.170877 1.776237 2.350338 0
M  V30 9 C 0.697525 2.637160 2.942238 0
M  V30 10 C 1.066323 3.789987 2.280882 0
M  V30 11 N 0.588569 4.087386 1.062200 0
M  V30 12 C -0.285495 3.263774 0.419915 0
M  V30 13 N -0.796571 3.559369 -0.893762 0
M  V30 14 C -1.869347 4.322936 -1.370601 0
M  V30 15 O -2.644646 4.952613 -0.616629 0
M  V30 16 C -1.989252 4.306993 -2.864841 0
M  V30 17 C -0.858690 3.972895 -3.729247 0
M  V30 18 C -2.000671 2.973883 -3.538236 0
M  V30 19 C -0.637566 2.122287 1.098644 0
M  V30 20 N -1.344872 -0.504102 2.715424 0
M  V30 21 C -1.544974 -1.450355 3.683292 0
M  V30 22 O -2.277692 -2.288709 2.956369 0
M  V30 23 C -2.958979 -2.927846 2.047025 0
M  V30 24 C -4.128403 -2.104499 1.514697 0
M  V30 25 O -3.740263 -0.969292 0.928047 0
M  V30 26 C -3.170782 -0.940284 -0.263764 0
M  V30 27 C -1.954797 -1.618829 -0.648562 0
M  V30 28 C -0.613501 -1.322101 -0.570909 0
M  V30 29 N 0.158271 -2.266040 -1.163659 0
M  V30 30 C 1.588812 -2.082423 -1.193214 0
M  V30 31 C 2.018184 -1.743659 -2.472711 0
M  V30 32 C 3.369124 -1.498128 -2.751525 0
M  V30 33 N 4.212835 -1.607848 -1.730276 0
M  V30 34 C 3.840312 -1.932351 -0.483522 0
M  V30 35 C 4.730256 -2.039955 0.566901 0
M  V30 36 C 4.276063 -2.377856 1.833402 0
M  V30 37 C 2.934305 -2.608075 2.050548 0
M  V30 38 C 1.984878 -2.514415 1.027343 0
M  V30 39 C 2.521279 -2.176553 -0.187638 0
M  V30 40 C 3.777695 -1.133104 -4.152079 0
M  V30 41 C 3.138596 -2.106795 -5.098527 0
M  V30 42 C 1.756805 -2.528370 -4.728586 0
M  V30 43 C 1.135006 -1.603302 -3.687427 0
M  V30 44 N -0.691977 -3.162796 -1.615432 0
M  V30 45 N -1.922409 -2.806509 -1.326816 0
M  V30 46 H -2.850611 -4.092750 7.324759 0
M  V30 47 H -1.427469 -4.058464 8.425029 0
M  V30 48 H -1.335546 -4.898230 6.842218 0
M  V30 49 H -0.692752 -2.167070 7.402618 0
M  V30 50 H 1.076807 2.395557 3.917353 0
M  V30 51 H 1.759092 4.421559 2.814321 0
M  V30 52 H -0.076304 2.994455 -1.392171 0
M  V30 53 H -2.788682 4.977420 -3.210351 0
M  V30 54 H -0.733911 4.441901 -4.740278 0
M  V30 55 H 0.128406 3.623207 -3.319134 0
M  V30 56 H -2.654954 2.816209 -4.408136 0
M  V30 57 H -1.801005 2.038826 -2.981200 0
M  V30 58 H -1.329144 1.508183 0.571494 0
M  V30 59 H -3.479599 -3.854367 2.531773 0
M  V30 60 H -2.368948 -3.386543 1.191402 0
M  V30 61 H -4.766731 -1.867970 2.423271 0
M  V30 62 H -4.783803 -2.752377 0.870206 0
M  V30 63 H -3.065147 0.192921 -0.527851 0
M  V30 64 H -4.019631 -1.214460 -1.015396 0
M  V30 65 H -0.236693 -0.443657 -0.092027 0
M  V30 66 H 5.770364 -1.835906 0.279661 0
M  V30 67 H 5.038181 -2.437202 2.588491 0
M  V30 68 H 2.609507 -2.874191 3.052544 0
M  V30 69 H 0.923590 -2.691795 1.183209 0
M  V30 70 H 4.894658 -1.249816 -4.188700 0
M  V30 71 H 3.545833 -0.078710 -4.377118 0
M  V30 72 H 3.173293 -1.668268 -6.136503 0
M  V30 73 H 3.813976 -2.999343 -5.141304 0
M  V30 74 H 1.716116 -3.556136 -4.288903 0
M  V30 75 H 1.144678 -2.530112 -5.644968 0
M  V30 76 H 0.102886 -1.895630 -3.505339 0
M  V30 77 H 1.245366 -0.544786 -4.013326 0
M  V30 END ATOM
M  V30 BEGIN BOND
M  V30 1 1 1 2
M  V30 2 1 2 3
M  V30 3 2 3 4
M  V30 4 1 3 5
M  V30 5 1 5 6
M  V30 6 1 6 7
M  V30 7 1 7 8
M  V30 8 2 8 9
M  V30 9 1 9 10
M  V30 10 2 10 11
M  V30 11 1 11 12
M  V30 12 1 12 13
M  V30 13 1 13 14
M  V30 14 2 14 15
M  V30 15 1 14 16
M  V30 16 1 16 17
M  V30 17 1 17 18
M  V30 18 2 12 19
M  V30 19 2 7 20
M  V30 20 1 20 21
M  V30 21 1 21 22
M  V30 22 1 22 23
M  V30 23 1 23 24
M  V30 24 1 24 25
M  V30 25 1 25 26
M  V30 26 1 26 27
M  V30 27 2 27 28
M  V30 28 1 28 29
M  V30 29 1 29 30
M  V30 30 2 30 31
M  V30 31 1 31 32
M  V30 32 2 32 33
M  V30 33 1 33 34
M  V30 34 2 34 35
M  V30 35 1 35 36
M  V30 36 2 36 37
M  V30 37 1 37 38
M  V30 38 2 38 39
M  V30 39 1 32 40
M  V30 40 1 40 41
M  V30 41 1 41 42
M  V30 42 1 42 43
M  V30 43 1 29 44
M  V30 44 2 44 45
M  V30 45 2 21 5
M  V30 46 1 45 27
M  V30 47 1 19 8
M  V30 48 1 39 30
M  V30 49 1 18 16
M  V30 50 1 43 31
M  V30 51 1 39 34
M  V30 52 1 1 46
M  V30 53 1 1 47
M  V30 54 1 1 48
M  V30 55 1 2 49
M  V30 56 1 9 50
M  V30 57 1 10 51
M  V30 58 1 13 52
M  V30 59 1 16 53
M  V30 60 1 17 54
M  V30 61 1 17 55
M  V30 62 1 18 56
M  V30 63 1 18 57
M  V30 64 1 19 58
M  V30 65 1 23 59
M  V30 66 1 23 60
M  V30 67 1 24 61
M  V30 68 1 24 62
M  V30 69 1 26 63
M  V30 70 1 26 64
M  V30 71 1 28 65
M  V30 72 1 35 66
M  V30 73 1 36 67
M  V30 74 1 37 68
M  V30 75 1 38 69
M  V30 76 1 40 70
M  V30 77 1 40 71
M  V30 78 1 41 72
M  V30 79 1 41 73
M  V30 80 1 42 74
M  V30 81 1 42 75
M  V30 82 1 43 76
M  V30 83 1 43 77
M  V30 END BOND
M  V30 END CTAB
M  END
>  <Dataset>  (463) 
ChEMBL_Kinases

>  <Ligand_Instance>  (463) 
nan

>  <PDB_ID>  (463) 
nan

>  <Standardized_SMILES>  (463) 
CNC(=O)c1sc(-c2ccnc(NC(=O)C3CC3)c2)nc1OCCOCc1cn(-c2c3c(nc4ccccc24)CCCC3)nn1

>  <Name>  (463) 
nan

>  <Pocket>  (463) 
nan

>  <ATP_Site>  (463) 
nan

>  <Peripheral>  (463) 
nan

>  <Num_H_Atoms_ProtBoundConf>  (463) 
nan

>  <Num_Resolved_Atoms>  (463) 
nan

>  <Num_Not_Resolved_Atoms>  (463) 
nan

$$$$
CHEMBL4777980
     RDKit          3D

  0  0  0  0  0  0  0  0  0  0999 V3000
M  V30 BEGIN CTAB
M  V30 COUNTS 54 58 0 0 0
M  V30 BEGIN ATOM
M  V30 1 O 0.432505 1.664352 1.212443 0
M  V30 2 C 0.901665 0.888178 0.341220 0
M  V30 3 C 2.318451 0.458982 0.313345 0
M  V30 4 C 3.154996 1.059592 1.392417 0
M  V30 5 N 4.499281 0.572928 1.270284 0
M  V30 6 C 4.670426 -0.813189 1.564003 0
M  V30 7 C 4.532318 -1.011108 3.056957 0
M  V30 8 O 4.884000 0.076874 3.811979 0
M  V30 9 C 5.913877 0.839220 3.269702 0
M  V30 10 C 5.505376 1.352684 1.910504 0
M  V30 11 N 0.135404 0.333784 -0.713582 0
M  V30 12 C -1.223985 0.550472 -0.949989 0
M  V30 13 C -1.472971 1.664868 -1.768815 0
M  V30 14 C -2.750867 2.042560 -2.118147 0
M  V30 15 C -3.840100 1.328107 -1.668771 0
M  V30 16 C -3.564558 0.246706 -0.874049 0
M  V30 17 C -2.323121 -0.150239 -0.511219 0
M  V30 18 C -4.853640 -0.317558 -0.525618 0
M  V30 19 C -5.028698 -1.411368 0.168412 0
M  V30 20 C -4.119815 -2.359832 0.766662 0
M  V30 21 N -4.124502 -2.589920 2.113905 0
M  V30 22 N -3.272465 -3.537713 2.435072 0
M  V30 23 C -2.632639 -4.020398 1.360206 0
M  V30 24 C -1.684422 -4.959757 1.015636 0
M  V30 25 C -1.292633 -5.150242 -0.286312 0
M  V30 26 C -1.838987 -4.396530 -1.331992 0
M  V30 27 C -2.788420 -3.453643 -0.999022 0
M  V30 28 C -3.161384 -3.286577 0.325254 0
M  V30 29 C -5.904521 0.478216 -1.144246 0
M  V30 30 O -7.139681 0.281927 -1.054690 0
M  V30 31 N -5.233559 1.505806 -1.857352 0
M  V30 32 H 2.279209 -0.654394 0.495261 0
M  V30 33 H 2.818573 0.575083 -0.655010 0
M  V30 34 H 2.699590 0.811579 2.380251 0
M  V30 35 H 3.182462 2.172037 1.266704 0
M  V30 36 H 4.053218 -1.513604 0.995584 0
M  V30 37 H 5.732100 -1.060877 1.267670 0
M  V30 38 H 5.072170 -1.939201 3.349315 0
M  V30 39 H 3.443804 -1.231551 3.246186 0
M  V30 40 H 6.097188 1.686778 3.953603 0
M  V30 41 H 6.852478 0.234938 3.206579 0
M  V30 42 H 6.413626 1.321382 1.239376 0
M  V30 43 H 5.182050 2.421400 1.952131 0
M  V30 44 H 0.494949 -0.311226 -1.452203 0
M  V30 45 H -0.702725 2.298557 -2.180703 0
M  V30 46 H -2.956027 2.894715 -2.744799 0
M  V30 47 H -1.973702 -0.924174 0.096358 0
M  V30 48 H -6.076603 -1.704691 0.354295 0
M  V30 49 H -3.071070 -3.917139 3.403548 0
M  V30 50 H -1.273018 -5.533791 1.840890 0
M  V30 51 H -0.537586 -5.901147 -0.543860 0
M  V30 52 H -1.563048 -4.509638 -2.371183 0
M  V30 53 H -3.224969 -2.855258 -1.813270 0
M  V30 54 H -5.749040 2.229590 -2.402220 0
M  V30 END ATOM
M  V30 BEGIN BOND
M  V30 1 2 1 2
M  V30 2 1 2 3
M  V30 3 1 3 4
M  V30 4 1 4 5
M  V30 5 1 5 6
M  V30 6 1 6 7
M  V30 7 1 7 8
M  V30 8 1 8 9
M  V30 9 1 9 10
M  V30 10 1 2 11
M  V30 11 1 11 12
M  V30 12 2 12 13
M  V30 13 1 13 14
M  V30 14 2 14 15
M  V30 15 1 15 16
M  V30 16 2 16 17
M  V30 17 1 16 18
M  V30 18 2 18 19
M  V30 19 1 19 20
M  V30 20 2 20 21
M  V30 21 1 21 22
M  V30 22 1 22 23
M  V30 23 2 23 24
M  V30 24 1 24 25
M  V30 25 2 25 26
M  V30 26 1 26 27
M  V30 27 2 27 28
M  V30 28 1 18 29
M  V30 29 2 29 30
M  V30 30 1 29 31
M  V30 31 1 10 5
M  V30 32 1 17 12
M  V30 33 1 28 20
M  V30 34 1 31 15
M  V30 35 1 28 23
M  V30 36 1 3 32
M  V30 37 1 3 33
M  V30 38 1 4 34
M  V30 39 1 4 35
M  V30 40 1 6 36
M  V30 41 1 6 37
M  V30 42 1 7 38
M  V30 43 1 7 39
M  V30 44 1 9 40
M  V30 45 1 9 41
M  V30 46 1 10 42
M  V30 47 1 10 43
M  V30 48 1 11 44
M  V30 49 1 13 45
M  V30 50 1 14 46
M  V30 51 1 17 47
M  V30 52 1 19 48
M  V30 53 1 22 49
M  V30 54 1 24 50
M  V30 55 1 25 51
M  V30 56 1 26 52
M  V30 57 1 27 53
M  V30 58 1 31 54
M  V30 END BOND
M  V30 END CTAB
M  END
>  <Dataset>  (464) 
ChEMBL_Kinases

>  <Ligand_Instance>  (464) 
nan

>  <PDB_ID>  (464) 
nan

>  <Standardized_SMILES>  (464) 
O=C(CCN1CCOCC1)Nc1ccc2c(c1)/C(=C\c1n[nH]c3ccccc13)C(=O)N2

>  <Name>  (464) 
nan

>  <Pocket>  (464) 
nan

>  <ATP_Site>  (464) 
nan

>  <Peripheral>  (464) 
nan

>  <Num_H_Atoms_ProtBoundConf>  (464) 
nan

>  <Num_Resolved_Atoms>  (464) 
nan

>  <Num_Not_Resolved_Atoms>  (464) 
nan

$$$$
CHEMBL4778005
     RDKit          3D

  0  0  0  0  0  0  0  0  0  0999 V3000
M  V30 BEGIN CTAB
M  V30 COUNTS 58 63 0 0 0
M  V30 BEGIN ATOM
M  V30 1 C 4.233374 -2.455575 5.189499 0
M  V30 2 N 5.184719 -2.033927 4.184751 0
M  V30 3 C 5.252396 -2.901878 3.050040 0
M  V30 4 C 5.278231 -2.143422 1.735977 0
M  V30 5 N 4.025695 -1.439294 1.551987 0
M  V30 6 C 4.025875 -0.609703 0.400590 0
M  V30 7 C 2.812200 0.151905 0.125850 0
M  V30 8 C 2.458711 1.428617 0.517338 0
M  V30 9 C 1.248274 1.989322 0.161243 0
M  V30 10 C 0.331835 1.295315 -0.606377 0
M  V30 11 C -0.953729 1.877843 -0.990561 0
M  V30 12 C -1.182209 3.222777 -1.227145 0
M  V30 13 N -2.409834 3.666569 -1.576372 0
M  V30 14 C -3.457648 2.828801 -1.709070 0
M  V30 15 N -4.760350 2.974925 -2.035091 0
M  V30 16 C -5.375856 1.777168 -2.016785 0
M  V30 17 C -4.498856 0.790409 -1.676440 0
M  V30 18 C -4.782829 -0.633144 -1.548894 0
M  V30 19 C -5.536042 -1.249941 -2.537572 0
M  V30 20 C -5.814441 -2.612115 -2.425932 0
M  V30 21 C -5.354741 -3.348787 -1.354179 0
M  V30 22 N -5.474102 -4.649529 -1.004927 0
M  V30 23 C -4.822122 -4.859426 0.163933 0
M  V30 24 N -4.281845 -3.691910 0.568187 0
M  V30 25 C -4.598849 -2.756776 -0.350544 0
M  V30 26 C -4.336504 -1.394492 -0.488889 0
M  V30 27 C -3.294639 1.477156 -1.486946 0
M  V30 28 C -2.044796 1.011245 -1.129495 0
M  V30 29 C 0.649402 0.015253 -1.017529 0
M  V30 30 C 1.865748 -0.529070 -0.651164 0
M  V30 31 C 3.647734 -0.848891 2.787116 0
M  V30 32 C 4.808962 -0.708338 3.746827 0
M  V30 33 H 4.638259 -3.196828 5.906907 0
M  V30 34 H 3.954385 -1.552720 5.774826 0
M  V30 35 H 3.267366 -2.830678 4.740397 0
M  V30 36 H 6.212674 -3.482130 3.132391 0
M  V30 37 H 4.445753 -3.680843 3.044750 0
M  V30 38 H 5.430276 -2.911517 0.948742 0
M  V30 39 H 6.164638 -1.470444 1.772878 0
M  V30 40 H 4.853412 0.130669 0.512075 0
M  V30 41 H 4.307826 -1.235396 -0.475833 0
M  V30 42 H 3.214494 1.922527 1.113280 0
M  V30 43 H 1.023365 2.989065 0.493913 0
M  V30 44 H -0.323395 3.874473 -1.113654 0
M  V30 45 H -5.239817 3.873413 -2.270006 0
M  V30 46 H -6.432722 1.598367 -2.240752 0
M  V30 47 H -5.921731 -0.711379 -3.403067 0
M  V30 48 H -6.392951 -3.174676 -3.148090 0
M  V30 49 H -5.977371 -5.411400 -1.518539 0
M  V30 50 H -4.677520 -5.734165 0.771654 0
M  V30 51 H -3.758664 -0.957920 0.285925 0
M  V30 52 H -1.921130 -0.049133 -0.956184 0
M  V30 53 H -0.058621 -0.538127 -1.618819 0
M  V30 54 H 2.032140 -1.549112 -1.022225 0
M  V30 55 H 3.180367 0.150818 2.715018 0
M  V30 56 H 2.847974 -1.482045 3.272334 0
M  V30 57 H 5.608887 -0.155851 3.225038 0
M  V30 58 H 4.422947 -0.093909 4.594878 0
M  V30 END ATOM
M  V30 BEGIN BOND
M  V30 1 1 1 2
M  V30 2 1 2 3
M  V30 3 1 3 4
M  V30 4 1 4 5
M  V30 5 1 5 6
M  V30 6 1 6 7
M  V30 7 2 7 8
M  V30 8 1 8 9
M  V30 9 2 9 10
M  V30 10 1 10 11
M  V30 11 2 11 12
M  V30 12 1 12 13
M  V30 13 2 13 14
M  V30 14 1 14 15
M  V30 15 1 15 16
M  V30 16 2 16 17
M  V30 17 1 17 18
M  V30 18 2 18 19
M  V30 19 1 19 20
M  V30 20 2 20 21
M  V30 21 1 21 22
M  V30 22 1 22 23
M  V30 23 2 23 24
M  V30 24 1 24 25
M  V30 25 2 25 26
M  V30 26 1 17 27
M  V30 27 2 27 28
M  V30 28 1 10 29
M  V30 29 2 29 30
M  V30 30 1 5 31
M  V30 31 1 31 32
M  V30 32 1 32 2
M  V30 33 1 30 7
M  V30 34 1 28 11
M  V30 35 1 27 14
M  V30 36 1 26 18
M  V30 37 1 25 21
M  V30 38 1 1 33
M  V30 39 1 1 34
M  V30 40 1 1 35
M  V30 41 1 3 36
M  V30 42 1 3 37
M  V30 43 1 4 38
M  V30 44 1 4 39
M  V30 45 1 6 40
M  V30 46 1 6 41
M  V30 47 1 8 42
M  V30 48 1 9 43
M  V30 49 1 12 44
M  V30 50 1 15 45
M  V30 51 1 16 46
M  V30 52 1 19 47
M  V30 53 1 20 48
M  V30 54 1 22 49
M  V30 55 1 23 50
M  V30 56 1 26 51
M  V30 57 1 28 52
M  V30 58 1 29 53
M  V30 59 1 30 54
M  V30 60 1 31 55
M  V30 61 1 31 56
M  V30 62 1 32 57
M  V30 63 1 32 58
M  V30 END BOND
M  V30 END CTAB
M  END
>  <Dataset>  (465) 
ChEMBL_Kinases

>  <Ligand_Instance>  (465) 
nan

>  <PDB_ID>  (465) 
nan

>  <Standardized_SMILES>  (465) 
CN1CCN(Cc2ccc(-c3cnc4[nH]cc(-c5ccc6[nH]cnc6c5)c4c3)cc2)CC1

>  <Name>  (465) 
nan

>  <Pocket>  (465) 
nan

>  <ATP_Site>  (465) 
nan

>  <Peripheral>  (465) 
nan

>  <Num_H_Atoms_ProtBoundConf>  (465) 
nan

>  <Num_Resolved_Atoms>  (465) 
nan

>  <Num_Not_Resolved_Atoms>  (465) 
nan

$$$$
CHEMBL4778039
     RDKit          3D

  0  0  0  0  0  0  0  0  0  0999 V3000
M  V30 BEGIN CTAB
M  V30 COUNTS 45 48 0 0 0
M  V30 BEGIN ATOM
M  V30 1 C 3.333708 -3.633214 0.718681 0
M  V30 2 N 2.071611 -4.014990 0.082616 0
M  V30 3 C 1.852628 -5.413125 -0.235819 0
M  V30 4 C 1.075777 -3.049550 -0.221434 0
M  V30 5 C -0.102152 -3.445888 -0.821887 0
M  V30 6 C -1.052142 -2.486396 -1.105815 0
M  V30 7 C -0.778965 -1.183993 -0.776985 0
M  V30 8 C 0.381596 -0.749648 -0.178514 0
M  V30 9 C 1.338912 -1.714906 0.107864 0
M  V30 10 C 0.606913 0.574579 0.131847 0
M  V30 11 O 1.708095 0.856335 0.678675 0
M  V30 12 N -0.344591 1.510619 -0.156323 0
M  V30 13 C -0.094255 2.896999 0.179473 0
M  V30 14 C -0.608809 3.190636 1.569682 0
M  V30 15 C 0.026128 2.358202 2.618383 0
M  V30 16 C 1.185370 2.701792 3.301873 0
M  V30 17 C 1.689976 1.845722 4.270025 0
M  V30 18 C 1.096881 0.646116 4.603101 0
M  V30 19 C -0.057827 0.267819 3.946329 0
M  V30 20 C -0.541168 1.133873 2.988262 0
M  V30 21 C -1.466634 1.055504 -0.740534 0
M  V30 22 N -2.526645 1.806807 -1.107425 0
M  V30 23 N -3.407161 0.958127 -1.642887 0
M  V30 24 C -2.895409 -0.282990 -1.603352 0
M  V30 25 S -3.784340 -1.476342 -2.196656 0
M  V30 26 N -1.681525 -0.236269 -1.041115 0
M  V30 27 H 4.101405 -4.414146 0.586006 0
M  V30 28 H 3.754164 -2.725313 0.215992 0
M  V30 29 H 3.210175 -3.457767 1.803279 0
M  V30 30 H 0.967794 -5.724321 0.382386 0
M  V30 31 H 1.540275 -5.462222 -1.300212 0
M  V30 32 H 2.715274 -6.034054 -0.002825 0
M  V30 33 H -0.242829 -4.502325 -1.051640 0
M  V30 34 H -1.929947 -2.873093 -1.567586 0
M  V30 35 H 2.257014 -1.389874 0.578508 0
M  V30 36 H -0.657480 3.570593 -0.498513 0
M  V30 37 H 0.994501 3.074073 0.087616 0
M  V30 38 H -0.552330 4.269906 1.798051 0
M  V30 39 H -1.696114 2.885106 1.539442 0
M  V30 40 H 1.635103 3.636447 3.032613 0
M  V30 41 H 2.602369 2.125784 4.801531 0
M  V30 42 H 1.476996 -0.025400 5.350154 0
M  V30 43 H -0.597676 -0.653080 4.135463 0
M  V30 44 H -1.454447 0.848867 2.459366 0
M  V30 45 H -4.321385 1.361995 -1.997551 0
M  V30 END ATOM
M  V30 BEGIN BOND
M  V30 1 1 1 2
M  V30 2 1 2 3
M  V30 3 1 2 4
M  V30 4 2 4 5
M  V30 5 1 5 6
M  V30 6 2 6 7
M  V30 7 1 7 8
M  V30 8 2 8 9
M  V30 9 1 8 10
M  V30 10 2 10 11
M  V30 11 1 10 12
M  V30 12 1 12 13
M  V30 13 1 13 14
M  V30 14 1 14 15
M  V30 15 2 15 16
M  V30 16 1 16 17
M  V30 17 2 17 18
M  V30 18 1 18 19
M  V30 19 2 19 20
M  V30 20 1 12 21
M  V30 21 2 21 22
M  V30 22 1 22 23
M  V30 23 1 23 24
M  V30 24 2 24 25
M  V30 25 1 24 26
M  V30 26 1 9 4
M  V30 27 1 20 15
M  V30 28 1 26 21
M  V30 29 1 26 7
M  V30 30 1 1 27
M  V30 31 1 1 28
M  V30 32 1 1 29
M  V30 33 1 3 30
M  V30 34 1 3 31
M  V30 35 1 3 32
M  V30 36 1 5 33
M  V30 37 1 6 34
M  V30 38 1 9 35
M  V30 39 1 13 36
M  V30 40 1 13 37
M  V30 41 1 14 38
M  V30 42 1 14 39
M  V30 43 1 16 40
M  V30 44 1 17 41
M  V30 45 1 18 42
M  V30 46 1 19 43
M  V30 47 1 20 44
M  V30 48 1 23 45
M  V30 END BOND
M  V30 END CTAB
M  END
>  <Dataset>  (466) 
ChEMBL_Kinases

>  <Ligand_Instance>  (466) 
nan

>  <PDB_ID>  (466) 
nan

>  <Standardized_SMILES>  (466) 
CN(C)c1ccc2c(c1)c(=O)n(CCc1ccccc1)c1n[nH]c(=S)n21

>  <Name>  (466) 
nan

>  <Pocket>  (466) 
nan

>  <ATP_Site>  (466) 
nan

>  <Peripheral>  (466) 
nan

>  <Num_H_Atoms_ProtBoundConf>  (466) 
nan

>  <Num_Resolved_Atoms>  (466) 
nan

>  <Num_Not_Resolved_Atoms>  (466) 
nan

$$$$
CHEMBL4778069
     RDKit          3D

  0  0  0  0  0  0  0  0  0  0999 V3000
M  V30 BEGIN CTAB
M  V30 COUNTS 85 87 0 0 0
M  V30 BEGIN ATOM
M  V30 1 C 5.286807 -0.763501 4.125160 0
M  V30 2 C 5.159508 -1.580615 2.863727 0
M  V30 3 C 5.881565 -2.892632 3.018253 0
M  V30 4 C 3.682798 -1.904790 2.672091 0
M  V30 5 O 5.539641 -0.838415 1.729483 0
M  V30 6 C 5.513848 -1.333961 0.438034 0
M  V30 7 O 5.128481 -2.531459 0.246855 0
M  V30 8 N 5.878596 -0.644191 -0.763049 0
M  V30 9 C 5.687515 -1.539499 -1.865487 0
M  V30 10 C 5.998880 -0.960936 -3.218625 0
M  V30 11 O 5.233564 0.137688 -3.519994 0
M  V30 12 C 5.445565 0.609898 -4.813727 0
M  V30 13 C 4.531386 1.850914 -4.970428 0
M  V30 14 O 3.259380 1.392559 -4.738792 0
M  V30 15 C 2.254574 2.347563 -4.828626 0
M  V30 16 C 0.983682 1.673122 -4.423984 0
M  V30 17 O -0.144642 2.483532 -4.448955 0
M  V30 18 C -1.174549 1.640257 -3.944020 0
M  V30 19 C -2.496753 2.318908 -3.866948 0
M  V30 20 O -3.443774 1.462548 -3.351032 0
M  V30 21 C -3.712610 0.317992 -4.059494 0
M  V30 22 C -4.745831 -0.558106 -3.344051 0
M  V30 23 C -4.220839 -0.984950 -2.026304 0
M  V30 24 O -3.194238 -0.365288 -2.359745 0
M  V30 25 N -4.561001 -1.713530 -0.870741 0
M  V30 26 C -3.449757 -1.690922 0.068508 0
M  V30 27 C -3.088472 -0.336094 0.565790 0
M  V30 28 C -4.166294 0.362518 1.361608 0
M  V30 29 N -4.477948 -0.394258 2.582720 0
M  V30 30 C -5.409650 -1.336065 2.774249 0
M  V30 31 O -6.143381 -1.597449 1.791243 0
M  V30 32 C -5.541604 -1.972101 3.992699 0
M  V30 33 C -6.535673 -2.949474 4.119640 0
M  V30 34 C -6.611721 -3.544207 5.356696 0
M  V30 35 F -7.578328 -4.499001 5.502788 0
M  V30 36 C -5.816473 -3.271194 6.453025 0
M  V30 37 C -4.856285 -2.301934 6.269513 0
M  V30 38 C -4.715892 -1.657104 5.057873 0
M  V30 39 N -3.793775 -0.715574 4.850843 0
M  V30 40 C -2.867660 -0.193407 5.663442 0
M  V30 41 S -2.479104 -0.485704 7.216920 0
M  V30 42 N -2.167204 0.737454 5.000689 0
M  V30 43 N -2.685501 0.762729 3.790086 0
M  V30 44 C -3.678805 -0.104054 3.651830 0
M  V30 45 H 4.549578 -1.127778 4.889464 0
M  V30 46 H 4.934982 0.283246 3.894755 0
M  V30 47 H 6.301677 -0.735997 4.551981 0
M  V30 48 H 6.973037 -2.784186 3.036218 0
M  V30 49 H 5.472509 -3.606501 2.297831 0
M  V30 50 H 5.587511 -3.273592 4.039309 0
M  V30 51 H 3.172595 -2.168636 3.609878 0
M  V30 52 H 3.574709 -2.783098 1.970813 0
M  V30 53 H 3.124706 -1.036019 2.229695 0
M  V30 54 H 6.202462 0.346859 -0.617101 0
M  V30 55 H 6.405723 -2.385133 -1.699012 0
M  V30 56 H 4.676701 -1.978390 -1.884005 0
M  V30 57 H 7.103561 -0.789407 -3.348791 0
M  V30 58 H 5.726415 -1.745645 -3.958979 0
M  V30 59 H 6.497941 0.880457 -4.999189 0
M  V30 60 H 5.045972 -0.155513 -5.506633 0
M  V30 61 H 4.666893 2.327145 -5.948486 0
M  V30 62 H 4.881223 2.536873 -4.163569 0
M  V30 63 H 2.496019 3.131042 -4.072192 0
M  V30 64 H 2.227522 2.739155 -5.850659 0
M  V30 65 H 0.803729 0.862098 -5.158574 0
M  V30 66 H 1.071483 1.302441 -3.380754 0
M  V30 67 H -0.885971 1.198447 -2.983761 0
M  V30 68 H -1.224111 0.833046 -4.729505 0
M  V30 69 H -2.381671 3.155862 -3.121928 0
M  V30 70 H -2.810277 2.785550 -4.825214 0
M  V30 71 H -4.107536 0.628615 -5.046547 0
M  V30 72 H -2.783979 -0.259998 -4.228844 0
M  V30 73 H -5.718618 -0.069857 -3.300583 0
M  V30 74 H -4.861709 -1.477564 -3.966205 0
M  V30 75 H -5.549445 -2.037737 -1.097264 0
M  V30 76 H -2.554305 -2.107757 -0.480088 0
M  V30 77 H -3.653252 -2.357217 0.936981 0
M  V30 78 H -2.746728 0.333412 -0.242610 0
M  V30 79 H -2.193692 -0.418916 1.247054 0
M  V30 80 H -5.062053 0.482269 0.730099 0
M  V30 81 H -3.796863 1.349026 1.663638 0
M  V30 82 H -7.208416 -3.236442 3.322437 0
M  V30 83 H -5.985565 -3.821516 7.375407 0
M  V30 84 H -4.246259 -2.096618 7.123589 0
M  V30 85 H -1.378124 1.387356 5.204322 0
M  V30 END ATOM
M  V30 BEGIN BOND
M  V30 1 1 1 2
M  V30 2 1 2 3
M  V30 3 1 2 4
M  V30 4 1 2 5
M  V30 5 1 5 6
M  V30 6 2 6 7
M  V30 7 1 6 8
M  V30 8 1 8 9
M  V30 9 1 9 10
M  V30 10 1 10 11
M  V30 11 1 11 12
M  V30 12 1 12 13
M  V30 13 1 13 14
M  V30 14 1 14 15
M  V30 15 1 15 16
M  V30 16 1 16 17
M  V30 17 1 17 18
M  V30 18 1 18 19
M  V30 19 1 19 20
M  V30 20 1 20 21
M  V30 21 1 21 22
M  V30 22 1 22 23
M  V30 23 2 23 24
M  V30 24 1 23 25
M  V30 25 1 25 26
M  V30 26 1 26 27
M  V30 27 1 27 28
M  V30 28 1 28 29
M  V30 29 1 29 30
M  V30 30 2 30 31
M  V30 31 1 30 32
M  V30 32 2 32 33
M  V30 33 1 33 34
M  V30 34 1 34 35
M  V30 35 2 34 36
M  V30 36 1 36 37
M  V30 37 2 37 38
M  V30 38 1 38 39
M  V30 39 1 39 40
M  V30 40 2 40 41
M  V30 41 1 40 42
M  V30 42 1 42 43
M  V30 43 2 43 44
M  V30 44 1 44 29
M  V30 45 1 38 32
M  V30 46 1 44 39
M  V30 47 1 1 45
M  V30 48 1 1 46
M  V30 49 1 1 47
M  V30 50 1 3 48
M  V30 51 1 3 49
M  V30 52 1 3 50
M  V30 53 1 4 51
M  V30 54 1 4 52
M  V30 55 1 4 53
M  V30 56 1 8 54
M  V30 57 1 9 55
M  V30 58 1 9 56
M  V30 59 1 10 57
M  V30 60 1 10 58
M  V30 61 1 12 59
M  V30 62 1 12 60
M  V30 63 1 13 61
M  V30 64 1 13 62
M  V30 65 1 15 63
M  V30 66 1 15 64
M  V30 67 1 16 65
M  V30 68 1 16 66
M  V30 69 1 18 67
M  V30 70 1 18 68
M  V30 71 1 19 69
M  V30 72 1 19 70
M  V30 73 1 21 71
M  V30 74 1 21 72
M  V30 75 1 22 73
M  V30 76 1 22 74
M  V30 77 1 25 75
M  V30 78 1 26 76
M  V30 79 1 26 77
M  V30 80 1 27 78
M  V30 81 1 27 79
M  V30 82 1 28 80
M  V30 83 1 28 81
M  V30 84 1 33 82
M  V30 85 1 36 83
M  V30 86 1 37 84
M  V30 87 1 42 85
M  V30 END BOND
M  V30 END CTAB
M  END
>  <Dataset>  (467) 
ChEMBL_Kinases

>  <Ligand_Instance>  (467) 
nan

>  <PDB_ID>  (467) 
nan

>  <Standardized_SMILES>  (467) 
CC(C)(C)OC(=O)NCCOCCOCCOCCOCCC(=O)NCCCn1c(=O)c2cc(F)ccc2n2c(=S)[nH]nc12

>  <Name>  (467) 
nan

>  <Pocket>  (467) 
nan

>  <ATP_Site>  (467) 
nan

>  <Peripheral>  (467) 
nan

>  <Num_H_Atoms_ProtBoundConf>  (467) 
nan

>  <Num_Resolved_Atoms>  (467) 
nan

>  <Num_Not_Resolved_Atoms>  (467) 
nan

$$$$
CHEMBL4217407
     RDKit          3D

  0  0  0  0  0  0  0  0  0  0999 V3000
M  V30 BEGIN CTAB
M  V30 COUNTS 46 49 0 0 0
M  V30 BEGIN ATOM
M  V30 1 C 1.985394 -4.978715 0.704548 0
M  V30 2 N 2.884832 -4.249530 -0.168921 0
M  V30 3 C 2.479030 -4.351471 -1.572867 0
M  V30 4 C 3.522538 -3.500522 -2.249365 0
M  V30 5 C 4.056630 -2.561771 -1.187898 0 CFG=1
M  V30 6 O 5.308209 -2.069583 -1.508284 0
M  V30 7 C 3.181079 -1.401521 -1.009557 0
M  V30 8 C 2.442888 -0.457868 -0.859486 0
M  V30 9 C 1.546722 0.655339 -0.687790 0
M  V30 10 C 1.609460 1.774275 -1.492615 0
M  V30 11 C 0.712256 2.800336 -1.262097 0
M  V30 12 C -0.227755 2.716472 -0.252940 0
M  V30 13 C -0.294774 1.585295 0.564334 0
M  V30 14 C -1.255578 1.410059 1.655190 0
M  V30 15 N -0.932829 0.936937 2.895329 0
M  V30 16 C -2.060202 0.903377 3.655741 0
M  V30 17 C -2.208349 0.469621 5.052233 0
M  V30 18 N -1.031525 0.016463 5.732750 0
M  V30 19 O -3.295102 0.480429 5.654907 0
M  V30 20 N -3.067000 1.356978 2.874458 0
M  V30 21 C -4.389648 1.523470 3.144928 0
M  V30 22 C -5.254408 2.009606 2.182392 0
M  V30 23 C -4.806806 2.340446 0.921587 0
M  V30 24 C -3.463485 2.165991 0.663083 0
M  V30 25 C -2.609803 1.679743 1.632438 0
M  V30 26 C 0.622611 0.566581 0.308479 0
M  V30 27 C 4.071910 -3.455100 0.008334 0
M  V30 28 O 4.724163 -3.737139 1.055208 0
M  V30 29 H 2.295185 -4.952879 1.771686 0
M  V30 30 H 1.899157 -6.035056 0.425402 0
M  V30 31 H 0.956759 -4.538362 0.675316 0
M  V30 32 H 1.495541 -3.900272 -1.730667 0
M  V30 33 H 2.500828 -5.402760 -1.906513 0
M  V30 34 H 3.029191 -2.878524 -3.028566 0
M  V30 35 H 4.339110 -4.114683 -2.686784 0
M  V30 36 H 6.017325 -2.705412 -1.274054 0
M  V30 37 H 2.370620 1.786507 -2.272881 0
M  V30 38 H 0.759113 3.675893 -1.889600 0
M  V30 39 H -0.940764 3.508908 -0.054538 0
M  V30 40 H -0.043143 0.386058 5.716285 0
M  V30 41 H -0.864171 -0.770906 6.396167 0
M  V30 42 H -4.846698 1.303299 4.077049 0
M  V30 43 H -6.321943 2.150787 2.380121 0
M  V30 44 H -5.496387 2.714776 0.194278 0
M  V30 45 H -3.081369 2.412574 -0.304991 0
M  V30 46 H 0.569481 -0.314613 0.946070 0
M  V30 END ATOM
M  V30 BEGIN BOND
M  V30 1 1 1 2
M  V30 2 1 2 3
M  V30 3 1 3 4
M  V30 4 1 4 5
M  V30 5 1 5 6
M  V30 6 1 5 7 CFG=1
M  V30 7 3 7 8
M  V30 8 1 8 9
M  V30 9 2 9 10
M  V30 10 1 10 11
M  V30 11 2 11 12
M  V30 12 1 12 13
M  V30 13 1 13 14
M  V30 14 1 14 15
M  V30 15 2 15 16
M  V30 16 1 16 17
M  V30 17 1 17 18
M  V30 18 2 17 19
M  V30 19 1 16 20
M  V30 20 1 20 21
M  V30 21 2 21 22
M  V30 22 1 22 23
M  V30 23 2 23 24
M  V30 24 1 24 25
M  V30 25 2 13 26
M  V30 26 1 5 27
M  V30 27 2 27 28
M  V30 28 1 27 2
M  V30 29 1 26 9
M  V30 30 2 25 14
M  V30 31 1 25 20
M  V30 32 1 1 29
M  V30 33 1 1 30
M  V30 34 1 1 31
M  V30 35 1 3 32
M  V30 36 1 3 33
M  V30 37 1 4 34
M  V30 38 1 4 35
M  V30 39 1 6 36
M  V30 40 1 10 37
M  V30 41 1 11 38
M  V30 42 1 12 39
M  V30 43 1 18 40
M  V30 44 1 18 41
M  V30 45 1 21 42
M  V30 46 1 22 43
M  V30 47 1 23 44
M  V30 48 1 24 45
M  V30 49 1 26 46
M  V30 END BOND
M  V30 END CTAB
M  END
>  <Dataset>  (468) 
ChEMBL_Kinases

>  <Ligand_Instance>  (468) 
nan

>  <PDB_ID>  (468) 
nan

>  <Standardized_SMILES>  (468) 
CN1CC[C@@](O)(C#Cc2cccc(-c3nc(C(N)=O)n4ccccc34)c2)C1=O

>  <Name>  (468) 
nan

>  <Pocket>  (468) 
nan

>  <ATP_Site>  (468) 
nan

>  <Peripheral>  (468) 
nan

>  <Num_H_Atoms_ProtBoundConf>  (468) 
nan

>  <Num_Resolved_Atoms>  (468) 
nan

>  <Num_Not_Resolved_Atoms>  (468) 
nan

$$$$
CHEMBL4778098
     RDKit          3D

  0  0  0  0  0  0  0  0  0  0999 V3000
M  V30 BEGIN CTAB
M  V30 COUNTS 93 98 0 0 0
M  V30 BEGIN ATOM
M  V30 1 N -1.815360 -6.456611 1.023929 0
M  V30 2 C -1.780643 -6.879696 -0.338638 0
M  V30 3 C -0.844447 -6.637720 -1.352061 0
M  V30 4 C 0.331090 -5.823260 -1.083167 0
M  V30 5 O 0.474174 -5.346935 0.059689 0
M  V30 6 N 1.359636 -5.505548 -2.010766 0
M  V30 7 C 2.518711 -4.687886 -1.721329 0
M  V30 8 C 2.159019 -3.249601 -1.739306 0
M  V30 9 C 2.294385 -2.600250 -2.970703 0
M  V30 10 C 2.012166 -1.249014 -3.214128 0
M  V30 11 C 1.563556 -0.504734 -2.145130 0
M  V30 12 C 1.295577 0.880507 -2.408454 0
M  V30 13 O 1.647505 1.386283 -3.504953 0
M  V30 14 N 0.642033 1.718228 -1.476436 0
M  V30 15 C 0.181735 3.047468 -1.258453 0 CFG=1
M  V30 16 C -1.336226 3.132769 -1.384978 0
M  V30 17 C -2.054306 2.262599 -0.409106 0
M  V30 18 C -3.551289 2.344915 -0.521754 0
M  V30 19 C -4.119246 1.944469 -1.842887 0
M  V30 20 C -4.239733 0.455763 -2.017290 0
M  V30 21 C -4.914338 -0.217884 -0.853918 0
M  V30 22 C -5.327881 0.723845 0.241240 0
M  V30 23 C -4.161848 1.577533 0.630438 0
M  V30 24 C 0.631183 3.669399 0.007242 0
M  V30 25 O 0.150090 4.828765 0.091167 0
M  V30 26 N 1.402561 3.444438 1.163636 0
M  V30 27 C 1.359285 4.620882 2.047762 0
M  V30 28 C 2.622171 4.620712 2.902045 0
M  V30 29 N 3.756305 4.172744 2.091758 0
M  V30 30 C 4.834193 4.967935 1.571496 0
M  V30 31 C 5.881414 4.481727 0.841327 0
M  V30 32 C 6.865424 5.330343 0.382417 0
M  V30 33 C 6.839454 6.684447 0.634277 0
M  V30 34 Cl 8.125433 7.719052 0.020288 0
M  V30 35 C 5.781928 7.168736 1.370691 0
M  V30 36 C 4.781791 6.316242 1.838591 0
M  V30 37 C 3.580503 2.765195 1.905928 0
M  V30 38 C 2.177387 2.316312 1.605766 0
M  V30 39 C 1.416673 -1.106999 -0.914778 0
M  V30 40 C 1.708158 -2.434942 -0.730882 0
M  V30 41 C -1.331104 -7.297368 -2.453817 0
M  V30 42 N -2.496478 -7.921881 -2.179309 0
M  V30 43 N -2.752686 -7.656841 -0.892139 0
M  V30 44 C -3.910005 -8.130574 -0.180082 0
M  V30 45 C -3.744363 -9.037947 0.847417 0
M  V30 46 C -4.767779 -9.563079 1.604690 0
M  V30 47 C -6.049218 -9.152290 1.314399 0
M  V30 48 C -6.247162 -8.256203 0.304252 0
M  V30 49 C -5.210175 -7.731830 -0.454001 0
M  V30 50 H -1.336273 -6.832526 1.888332 0
M  V30 51 H -2.437845 -5.631763 1.114268 0
M  V30 52 H 1.235412 -5.917910 -2.984881 0
M  V30 53 H 3.289849 -4.897470 -2.497758 0
M  V30 54 H 2.919547 -4.933514 -0.704479 0
M  V30 55 H 2.649676 -3.164584 -3.847310 0
M  V30 56 H 2.147016 -0.842960 -4.192134 0
M  V30 57 H 0.345588 1.261457 -0.590762 0
M  V30 58 H 0.550260 3.654284 -2.140525 0
M  V30 59 H -1.577491 4.210877 -1.254613 0
M  V30 60 H -1.599455 2.872379 -2.424271 0
M  V30 61 H -1.816954 2.684214 0.613816 0
M  V30 62 H -1.680788 1.223708 -0.383018 0
M  V30 63 H -3.831219 3.416387 -0.379099 0
M  V30 64 H -3.490613 2.337393 -2.651857 0
M  V30 65 H -5.120817 2.418436 -1.990181 0
M  V30 66 H -3.249648 -0.001780 -2.211865 0
M  V30 67 H -4.863420 0.275847 -2.914951 0
M  V30 68 H -5.844728 -0.776316 -1.168813 0
M  V30 69 H -4.235161 -0.983446 -0.415473 0
M  V30 70 H -6.200298 1.328953 0.008446 0
M  V30 71 H -5.532898 0.061587 1.134810 0
M  V30 72 H -4.529122 2.270983 1.423072 0
M  V30 73 H -3.383910 0.970840 1.114898 0
M  V30 74 H 0.483613 4.513357 2.716993 0
M  V30 75 H 1.292569 5.551358 1.483250 0
M  V30 76 H 2.738572 5.654836 3.277121 0
M  V30 77 H 2.441294 3.989808 3.784230 0
M  V30 78 H 5.928026 3.441308 0.631985 0
M  V30 79 H 7.670959 4.848865 -0.197916 0
M  V30 80 H 5.818635 8.252365 1.537553 0
M  V30 81 H 4.046096 6.881745 2.389920 0
M  V30 82 H 4.198970 2.493572 0.998421 0
M  V30 83 H 4.022704 2.170481 2.755325 0
M  V30 84 H 2.220328 1.509793 0.835537 0
M  V30 85 H 1.684210 1.917932 2.546515 0
M  V30 86 H 1.067288 -0.546438 -0.062109 0
M  V30 87 H 1.600889 -2.903889 0.229318 0
M  V30 88 H -0.745144 -7.240357 -3.380001 0
M  V30 89 H -2.749204 -9.405731 1.130843 0
M  V30 90 H -4.596666 -10.269886 2.401069 0
M  V30 91 H -6.912018 -9.519672 1.866580 0
M  V30 92 H -7.270313 -7.947229 0.095298 0
M  V30 93 H -5.368337 -7.028653 -1.247744 0
M  V30 END ATOM
M  V30 BEGIN BOND
M  V30 1 1 1 2
M  V30 2 2 2 3
M  V30 3 1 3 4
M  V30 4 2 4 5
M  V30 5 1 4 6
M  V30 6 1 6 7
M  V30 7 1 7 8
M  V30 8 2 8 9
M  V30 9 1 9 10
M  V30 10 2 10 11
M  V30 11 1 11 12
M  V30 12 2 12 13
M  V30 13 1 12 14
M  V30 14 1 14 15
M  V30 15 1 15 16
M  V30 16 1 16 17
M  V30 17 1 17 18
M  V30 18 1 18 19
M  V30 19 1 19 20
M  V30 20 1 20 21
M  V30 21 1 21 22
M  V30 22 1 22 23
M  V30 23 1 15 24
M  V30 24 2 24 25
M  V30 25 1 24 26
M  V30 26 1 26 27
M  V30 27 1 27 28
M  V30 28 1 28 29
M  V30 29 1 29 30
M  V30 30 2 30 31
M  V30 31 1 31 32
M  V30 32 2 32 33
M  V30 33 1 33 34
M  V30 34 1 33 35
M  V30 35 2 35 36
M  V30 36 1 29 37
M  V30 37 1 37 38
M  V30 38 1 11 39
M  V30 39 2 39 40
M  V30 40 1 3 41
M  V30 41 2 41 42
M  V30 42 1 42 43
M  V30 43 1 43 44
M  V30 44 2 44 45
M  V30 45 1 45 46
M  V30 46 2 46 47
M  V30 47 1 47 48
M  V30 48 2 48 49
M  V30 49 1 43 2
M  V30 50 1 49 44
M  V30 51 1 40 8
M  V30 52 1 23 18
M  V30 53 1 38 26
M  V30 54 1 36 30
M  V30 55 1 1 50
M  V30 56 1 1 51
M  V30 57 1 6 52
M  V30 58 1 7 53
M  V30 59 1 7 54
M  V30 60 1 9 55
M  V30 61 1 10 56
M  V30 62 1 14 57
M  V30 63 1 15 58 CFG=3
M  V30 64 1 16 59
M  V30 65 1 16 60
M  V30 66 1 17 61
M  V30 67 1 17 62
M  V30 68 1 18 63
M  V30 69 1 19 64
M  V30 70 1 19 65
M  V30 71 1 20 66
M  V30 72 1 20 67
M  V30 73 1 21 68
M  V30 74 1 21 69
M  V30 75 1 22 70
M  V30 76 1 22 71
M  V30 77 1 23 72
M  V30 78 1 23 73
M  V30 79 1 27 74
M  V30 80 1 27 75
M  V30 81 1 28 76
M  V30 82 1 28 77
M  V30 83 1 31 78
M  V30 84 1 32 79
M  V30 85 1 35 80
M  V30 86 1 36 81
M  V30 87 1 37 82
M  V30 88 1 37 83
M  V30 89 1 38 84
M  V30 90 1 38 85
M  V30 91 1 39 86
M  V30 92 1 40 87
M  V30 93 1 41 88
M  V30 94 1 45 89
M  V30 95 1 46 90
M  V30 96 1 47 91
M  V30 97 1 48 92
M  V30 98 1 49 93
M  V30 END BOND
M  V30 END CTAB
M  END
>  <Dataset>  (469) 
ChEMBL_Kinases

>  <Ligand_Instance>  (469) 
nan

>  <PDB_ID>  (469) 
nan

>  <Standardized_SMILES>  (469) 
Nc1c(C(=O)NCc2ccc(C(=O)N[C@@H](CCC3CCCCC3)C(=O)N3CCN(c4ccc(Cl)cc4)CC3)cc2)cnn1-c1ccccc1

>  <Name>  (469) 
nan

>  <Pocket>  (469) 
nan

>  <ATP_Site>  (469) 
nan

>  <Peripheral>  (469) 
nan

>  <Num_H_Atoms_ProtBoundConf>  (469) 
nan

>  <Num_Resolved_Atoms>  (469) 
nan

>  <Num_Not_Resolved_Atoms>  (469) 
nan

$$$$
CHEMBL4778120
     RDKit          3D

  0  0  0  0  0  0  0  0  0  0999 V3000
M  V30 BEGIN CTAB
M  V30 COUNTS 43 44 0 0 0
M  V30 BEGIN ATOM
M  V30 1 C -7.005083 2.584036 -1.151490 0
M  V30 2 O -7.338422 1.248685 -1.016324 0
M  V30 3 C -6.519782 0.189539 -0.721543 0
M  V30 4 C -5.151849 0.297455 -0.508725 0
M  V30 5 C -4.342769 -0.806650 -0.211989 0
M  V30 6 C -2.911872 -0.604914 -0.001455 0
M  V30 7 C -2.076206 -1.463245 -0.612242 0
M  V30 8 C -2.496382 -2.547913 -1.445922 0
M  V30 9 N -2.855034 -3.422594 -2.133513 0
M  V30 10 C -0.641505 -1.264875 -0.413694 0
M  V30 11 O 0.030695 -0.432800 0.240892 0
M  V30 12 N 0.278306 -2.152687 -1.064714 0
M  V30 13 C 1.689749 -1.764533 -0.735121 0
M  V30 14 N 2.410067 -2.053337 0.107310 0
M  V30 15 N 3.623077 -1.646687 0.287345 0
M  V30 16 C 4.203349 -0.893645 -0.400593 0
M  V30 17 C 5.383499 -0.036677 -0.847828 0
M  V30 18 C 6.434603 -0.210231 0.227876 0
M  V30 19 C 4.987775 1.395493 -0.951409 0
M  V30 20 C 5.880719 -0.539271 -2.188043 0
M  V30 21 S 2.848986 -0.559675 -1.695452 0
M  V30 22 C -4.974948 -2.032814 -0.136033 0
M  V30 23 C -6.349724 -2.197332 -0.340940 0
M  V30 24 C -7.111033 -1.071878 -0.634033 0
M  V30 25 O -8.499471 -1.187604 -0.849406 0
M  V30 26 H -7.342281 3.213600 -0.277055 0
M  V30 27 H -7.488474 3.065414 -2.051290 0
M  V30 28 H -5.913005 2.788763 -1.256019 0
M  V30 29 H -4.728988 1.288695 -0.584926 0
M  V30 30 H -2.569155 0.207623 0.623236 0
M  V30 31 H 0.010858 -2.939062 -1.695008 0
M  V30 32 H 7.117974 0.664568 0.268907 0
M  V30 33 H 5.890416 -0.289678 1.203573 0
M  V30 34 H 6.979213 -1.182799 0.100362 0
M  V30 35 H 5.000770 1.684904 -2.037672 0
M  V30 36 H 3.909893 1.474667 -0.656059 0
M  V30 37 H 5.630298 1.999215 -0.311703 0
M  V30 38 H 5.013007 -0.443583 -2.884912 0
M  V30 39 H 6.620225 0.207209 -2.548378 0
M  V30 40 H 6.315396 -1.546771 -2.153099 0
M  V30 41 H -4.388034 -2.908398 0.100850 0
M  V30 42 H -6.825808 -3.154112 -0.281393 0
M  V30 43 H -8.816539 -2.104715 -1.203784 0
M  V30 END ATOM
M  V30 BEGIN BOND
M  V30 1 1 1 2
M  V30 2 1 2 3
M  V30 3 2 3 4
M  V30 4 1 4 5
M  V30 5 1 5 6
M  V30 6 2 6 7
M  V30 7 1 7 8
M  V30 8 3 8 9
M  V30 9 1 7 10
M  V30 10 2 10 11
M  V30 11 1 10 12
M  V30 12 1 12 13
M  V30 13 2 13 14
M  V30 14 1 14 15
M  V30 15 2 15 16
M  V30 16 1 16 17
M  V30 17 1 17 18
M  V30 18 1 17 19
M  V30 19 1 17 20
M  V30 20 1 16 21
M  V30 21 2 5 22
M  V30 22 1 22 23
M  V30 23 2 23 24
M  V30 24 1 24 25
M  V30 25 1 24 3
M  V30 26 1 21 13
M  V30 27 1 1 26
M  V30 28 1 1 27
M  V30 29 1 1 28
M  V30 30 1 4 29
M  V30 31 1 6 30
M  V30 32 1 12 31
M  V30 33 1 18 32
M  V30 34 1 18 33
M  V30 35 1 18 34
M  V30 36 1 19 35
M  V30 37 1 19 36
M  V30 38 1 19 37
M  V30 39 1 20 38
M  V30 40 1 20 39
M  V30 41 1 20 40
M  V30 42 1 22 41
M  V30 43 1 23 42
M  V30 44 1 25 43
M  V30 END BOND
M  V30 END CTAB
M  END
>  <Dataset>  (470) 
ChEMBL_Kinases

>  <Ligand_Instance>  (470) 
nan

>  <PDB_ID>  (470) 
nan

>  <Standardized_SMILES>  (470) 
COc1cc(/C=C(\C#N)C(=O)Nc2nnc(C(C)(C)C)s2)ccc1O

>  <Name>  (470) 
nan

>  <Pocket>  (470) 
nan

>  <ATP_Site>  (470) 
nan

>  <Peripheral>  (470) 
nan

>  <Num_H_Atoms_ProtBoundConf>  (470) 
nan

>  <Num_Resolved_Atoms>  (470) 
nan

>  <Num_Not_Resolved_Atoms>  (470) 
nan

$$$$
CHEMBL4217723
     RDKit          3D

  0  0  0  0  0  0  0  0  0  0999 V3000
M  V30 BEGIN CTAB
M  V30 COUNTS 55 59 0 0 0
M  V30 BEGIN ATOM
M  V30 1 O 0.718999 -3.006950 0.765383 0
M  V30 2 C -0.121539 -2.065265 1.012912 0
M  V30 3 N 0.382506 -1.092605 1.963971 0
M  V30 4 C -0.020080 0.143695 2.615322 0
M  V30 5 C 0.928174 1.281155 2.459480 0
M  V30 6 N 1.940767 0.872874 1.500084 0
M  V30 7 C 2.345884 1.236413 0.185619 0
M  V30 8 N 2.179637 0.223372 -0.665224 0
M  V30 9 C 2.510676 0.401451 -1.979170 0
M  V30 10 N 2.999983 1.560967 -2.455092 0
M  V30 11 C 3.176008 2.595759 -1.614650 0
M  V30 12 N 3.617560 3.850091 -1.690168 0
M  V30 13 C 3.580422 4.472790 -0.480508 0
M  V30 14 C 3.081837 3.560524 0.437572 0
M  V30 15 Cl 2.831818 3.842011 2.146448 0
M  V30 16 C 2.841832 2.414980 -0.289554 0
M  V30 17 C 2.678299 -0.206671 2.187561 0
M  V30 18 C 1.683978 -1.268645 2.548647 0
M  V30 19 C -1.410819 -2.168689 0.281508 0
M  V30 20 C -2.534694 -2.647817 1.113350 0
M  V30 21 C -2.901045 -2.220477 2.362786 0
M  V30 22 C -3.944081 -2.685594 3.128624 0
M  V30 23 C -4.730502 -3.679532 2.638188 0
M  V30 24 C -4.450268 -4.185145 1.385945 0
M  V30 25 Br -5.583630 -5.571685 0.755078 0
M  V30 26 C -3.377554 -3.670499 0.658911 0
M  V30 27 C -1.212931 -3.087374 -0.896253 0
M  V30 28 C -0.200486 -2.428441 -1.830801 0
M  V30 29 N -0.898514 -1.399050 -2.548827 0
M  V30 30 C -2.010806 -0.886665 -1.813413 0
M  V30 31 C -1.782587 -0.805476 -0.314797 0
M  V30 32 H -0.986340 0.427932 2.142133 0
M  V30 33 H -0.217036 -0.021724 3.695652 0
M  V30 34 H 1.390654 1.586876 3.441981 0
M  V30 35 H 0.361481 2.168259 2.120650 0
M  V30 36 H 2.401793 -0.386139 -2.739815 0
M  V30 37 H 3.959712 4.318869 -2.579915 0
M  V30 38 H 3.872569 5.485860 -0.227491 0
M  V30 39 H 3.490225 -0.557147 1.537552 0
M  V30 40 H 3.162407 0.242638 3.103771 0
M  V30 41 H 1.684362 -1.407735 3.646228 0
M  V30 42 H 2.124232 -2.234323 2.155852 0
M  V30 43 H -2.326650 -1.434561 2.817360 0
M  V30 44 H -4.153223 -2.282765 4.105836 0
M  V30 45 H -5.543723 -4.049113 3.223708 0
M  V30 46 H -3.290485 -4.165908 -0.278334 0
M  V30 47 H -0.956351 -4.113129 -0.627149 0
M  V30 48 H -2.178956 -3.091464 -1.462343 0
M  V30 49 H 0.189148 -3.194762 -2.548239 0
M  V30 50 H 0.677838 -2.034560 -1.312937 0
M  V30 51 H -1.288912 -1.842047 -3.426110 0
M  V30 52 H -2.109222 0.195011 -2.130598 0
M  V30 53 H -2.993441 -1.330475 -2.065440 0
M  V30 54 H -0.913164 -0.163734 -0.177753 0
M  V30 55 H -2.730684 -0.436295 0.123716 0
M  V30 END ATOM
M  V30 BEGIN BOND
M  V30 1 2 1 2
M  V30 2 1 2 3
M  V30 3 1 3 4
M  V30 4 1 4 5
M  V30 5 1 5 6
M  V30 6 1 6 7
M  V30 7 2 7 8
M  V30 8 1 8 9
M  V30 9 2 9 10
M  V30 10 1 10 11
M  V30 11 1 11 12
M  V30 12 1 12 13
M  V30 13 2 13 14
M  V30 14 1 14 15
M  V30 15 1 14 16
M  V30 16 1 6 17
M  V30 17 1 17 18
M  V30 18 1 2 19
M  V30 19 1 19 20
M  V30 20 2 20 21
M  V30 21 1 21 22
M  V30 22 2 22 23
M  V30 23 1 23 24
M  V30 24 1 24 25
M  V30 25 2 24 26
M  V30 26 1 19 27
M  V30 27 1 27 28
M  V30 28 1 28 29
M  V30 29 1 29 30
M  V30 30 1 30 31
M  V30 31 1 18 3
M  V30 32 1 31 19
M  V30 33 1 16 7
M  V30 34 1 26 20
M  V30 35 2 16 11
M  V30 36 1 4 32
M  V30 37 1 4 33
M  V30 38 1 5 34
M  V30 39 1 5 35
M  V30 40 1 9 36
M  V30 41 1 12 37
M  V30 42 1 13 38
M  V30 43 1 17 39
M  V30 44 1 17 40
M  V30 45 1 18 41
M  V30 46 1 18 42
M  V30 47 1 21 43
M  V30 48 1 22 44
M  V30 49 1 23 45
M  V30 50 1 26 46
M  V30 51 1 27 47
M  V30 52 1 27 48
M  V30 53 1 28 49
M  V30 54 1 28 50
M  V30 55 1 29 51
M  V30 56 1 30 52
M  V30 57 1 30 53
M  V30 58 1 31 54
M  V30 59 1 31 55
M  V30 END BOND
M  V30 END CTAB
M  END
>  <Dataset>  (471) 
ChEMBL_Kinases

>  <Ligand_Instance>  (471) 
nan

>  <PDB_ID>  (471) 
nan

>  <Standardized_SMILES>  (471) 
O=C(N1CCN(c2ncnc3[nH]cc(Cl)c23)CC1)C1(c2cccc(Br)c2)CCNCC1

>  <Name>  (471) 
nan

>  <Pocket>  (471) 
nan

>  <ATP_Site>  (471) 
nan

>  <Peripheral>  (471) 
nan

>  <Num_H_Atoms_ProtBoundConf>  (471) 
nan

>  <Num_Resolved_Atoms>  (471) 
nan

>  <Num_Not_Resolved_Atoms>  (471) 
nan

$$$$
CHEMBL4217699
     RDKit          3D

  0  0  0  0  0  0  0  0  0  0999 V3000
M  V30 BEGIN CTAB
M  V30 COUNTS 37 40 0 0 0
M  V30 BEGIN ATOM
M  V30 1 F -0.504711 -4.826782 2.985181 0
M  V30 2 C 0.415609 -3.857988 3.130913 0
M  V30 3 C 1.063670 -3.783381 4.344366 0
M  V30 4 N 1.991713 -2.834741 4.542770 0
M  V30 5 C 2.291345 -1.969462 3.583654 0
M  V30 6 C 1.636911 -2.048657 2.365090 0
M  V30 7 C 0.667282 -2.989074 2.065678 0
M  V30 8 N -0.010655 -3.076001 0.816539 0
M  V30 9 C 0.448743 -2.075037 -0.086476 0
M  V30 10 N -0.151397 -0.870462 0.088453 0
M  V30 11 C 0.151899 0.196375 -0.660466 0
M  V30 12 C -0.545134 1.469004 -0.415453 0
M  V30 13 C -0.243532 2.616640 -1.090681 0
M  V30 14 C -0.973091 3.753581 -0.751633 0
M  V30 15 C -1.955142 3.735613 0.216354 0
M  V30 16 C -2.217927 2.530005 0.872113 0
M  V30 17 C -3.251103 2.415465 1.910257 0
M  V30 18 F -3.772201 1.119029 1.932090 0
M  V30 19 F -2.767668 2.666951 3.187619 0
M  V30 20 F -4.299735 3.325345 1.712984 0
M  V30 21 N -1.499624 1.436309 0.530416 0
M  V30 22 N 1.100808 0.044868 -1.628015 0
M  V30 23 C 1.717099 -1.127951 -1.832920 0
M  V30 24 N 2.661771 -1.580392 -2.684472 0
M  V30 25 C 2.919507 -2.875758 -2.457078 0
M  V30 26 C 2.129605 -3.345711 -1.411564 0
M  V30 27 C 1.408530 -2.227059 -1.065620 0
M  V30 28 H 0.852697 -4.465542 5.153164 0
M  V30 29 H 3.050625 -1.185062 3.731746 0
M  V30 30 H 1.910374 -1.329576 1.617193 0
M  V30 31 H -0.722569 -3.835245 0.741529 0
M  V30 32 H 0.530159 2.572960 -1.833797 0
M  V30 33 H -0.733197 4.657419 -1.282348 0
M  V30 34 H -2.525922 4.611046 0.485745 0
M  V30 35 H 3.122912 -0.974114 -3.425402 0
M  V30 36 H 3.640109 -3.502292 -2.996278 0
M  V30 37 H 2.059886 -4.326745 -0.948679 0
M  V30 END ATOM
M  V30 BEGIN BOND
M  V30 1 1 1 2
M  V30 2 2 2 3
M  V30 3 1 3 4
M  V30 4 2 4 5
M  V30 5 1 5 6
M  V30 6 2 6 7
M  V30 7 1 7 8
M  V30 8 1 8 9
M  V30 9 2 9 10
M  V30 10 1 10 11
M  V30 11 1 11 12
M  V30 12 2 12 13
M  V30 13 1 13 14
M  V30 14 2 14 15
M  V30 15 1 15 16
M  V30 16 1 16 17
M  V30 17 1 17 18
M  V30 18 1 17 19
M  V30 19 1 17 20
M  V30 20 2 16 21
M  V30 21 2 11 22
M  V30 22 1 22 23
M  V30 23 1 23 24
M  V30 24 1 24 25
M  V30 25 2 25 26
M  V30 26 1 26 27
M  V30 27 1 7 2
M  V30 28 1 27 9
M  V30 29 1 21 12
M  V30 30 2 27 23
M  V30 31 1 3 28
M  V30 32 1 5 29
M  V30 33 1 6 30
M  V30 34 1 8 31
M  V30 35 1 13 32
M  V30 36 1 14 33
M  V30 37 1 15 34
M  V30 38 1 24 35
M  V30 39 1 25 36
M  V30 40 1 26 37
M  V30 END BOND
M  V30 END CTAB
M  END
>  <Dataset>  (472) 
ChEMBL_Kinases

>  <Ligand_Instance>  (472) 
nan

>  <PDB_ID>  (472) 
nan

>  <Standardized_SMILES>  (472) 
Fc1cnccc1Nc1nc(-c2cccc(C(F)(F)F)n2)nc2[nH]ccc12

>  <Name>  (472) 
nan

>  <Pocket>  (472) 
nan

>  <ATP_Site>  (472) 
nan

>  <Peripheral>  (472) 
nan

>  <Num_H_Atoms_ProtBoundConf>  (472) 
nan

>  <Num_Resolved_Atoms>  (472) 
nan

>  <Num_Not_Resolved_Atoms>  (472) 
nan

$$$$
CHEMBL4778236
     RDKit          3D

  0  0  0  0  0  0  0  0  0  0999 V3000
M  V30 BEGIN CTAB
M  V30 COUNTS 51 54 0 0 0
M  V30 BEGIN ATOM
M  V30 1 C 2.177644 -2.711991 3.641259 0
M  V30 2 C 3.272690 -3.223879 2.717626 0
M  V30 3 C 2.934178 -2.973872 1.274995 0
M  V30 4 N 2.760089 -1.574202 0.978262 0
M  V30 5 C 3.897845 -0.931338 0.605405 0
M  V30 6 O 5.023166 -1.532331 0.529399 0
M  V30 7 C 3.845567 0.411948 0.297632 0
M  V30 8 C 5.032621 1.036523 -0.081316 0
M  V30 9 C 4.924291 2.377761 -0.378021 0
M  V30 10 C 3.726716 3.068305 -0.308593 0
M  V30 11 C 2.592634 2.380287 0.074860 0
M  V30 12 C 2.624723 1.042863 0.385859 0
M  V30 13 N 1.502923 0.417154 0.751930 0
M  V30 14 C 0.235375 0.827178 0.899494 0
M  V30 15 S -0.447064 2.268990 0.691741 0
M  V30 16 N -0.468267 -0.277685 1.295902 0
M  V30 17 C -1.831684 -0.303118 1.594882 0
M  V30 18 N -2.792655 -0.528978 0.534083 0
M  V30 19 C -2.659281 -1.776515 -0.109813 0
M  V30 20 C -1.413858 -1.899357 -1.001256 0
M  V30 21 C -4.101831 -0.216958 1.017104 0
M  V30 22 C -5.254901 -0.085428 0.130713 0
M  V30 23 C -5.913665 -1.024792 -0.774080 0
M  V30 24 C -5.118088 0.144135 -1.339471 0
M  V30 25 N 0.398495 -1.304520 1.371439 0
M  V30 26 C 1.606438 -0.889682 1.040754 0
M  V30 27 H 2.337700 -3.020053 4.681968 0
M  V30 28 H 2.179562 -1.603869 3.530066 0
M  V30 29 H 1.219756 -3.182401 3.334301 0
M  V30 30 H 3.328243 -4.322573 2.859319 0
M  V30 31 H 4.254528 -2.808565 3.007846 0
M  V30 32 H 3.734794 -3.440301 0.661634 0
M  V30 33 H 2.012468 -3.555840 1.049704 0
M  V30 34 H 5.971370 0.505145 -0.139622 0
M  V30 35 H 5.841552 2.902049 -0.682057 0
M  V30 36 H 3.757398 4.121682 -0.563711 0
M  V30 37 H 1.732410 3.017856 0.090583 0
M  V30 38 H -2.163571 0.631665 2.099125 0
M  V30 39 H -2.021971 -1.121251 2.350994 0
M  V30 40 H -3.512412 -1.981103 -0.753184 0
M  V30 41 H -2.663865 -2.647340 0.617467 0
M  V30 42 H -0.769202 -2.740062 -0.675343 0
M  V30 43 H -1.795524 -2.118625 -2.031376 0
M  V30 44 H -0.821344 -0.992367 -1.052687 0
M  V30 45 H -4.381081 -0.940839 1.868955 0
M  V30 46 H -3.972601 0.744686 1.645144 0
M  V30 47 H -6.028206 0.680806 0.564176 0
M  V30 48 H -5.617197 -2.017718 -1.075556 0
M  V30 49 H -7.060053 -0.927242 -0.904878 0
M  V30 50 H -4.132592 0.013537 -1.771474 0
M  V30 51 H -5.736559 0.955516 -1.827522 0
M  V30 END ATOM
M  V30 BEGIN BOND
M  V30 1 1 1 2
M  V30 2 1 2 3
M  V30 3 1 3 4
M  V30 4 1 4 5
M  V30 5 2 5 6
M  V30 6 1 5 7
M  V30 7 2 7 8
M  V30 8 1 8 9
M  V30 9 2 9 10
M  V30 10 1 10 11
M  V30 11 2 11 12
M  V30 12 1 12 13
M  V30 13 1 13 14
M  V30 14 2 14 15
M  V30 15 1 14 16
M  V30 16 1 16 17
M  V30 17 1 17 18
M  V30 18 1 18 19
M  V30 19 1 19 20
M  V30 20 1 18 21
M  V30 21 1 21 22
M  V30 22 1 22 23
M  V30 23 1 23 24
M  V30 24 1 16 25
M  V30 25 2 25 26
M  V30 26 1 26 4
M  V30 27 1 12 7
M  V30 28 1 26 13
M  V30 29 1 24 22
M  V30 30 1 1 27
M  V30 31 1 1 28
M  V30 32 1 1 29
M  V30 33 1 2 30
M  V30 34 1 2 31
M  V30 35 1 3 32
M  V30 36 1 3 33
M  V30 37 1 8 34
M  V30 38 1 9 35
M  V30 39 1 10 36
M  V30 40 1 11 37
M  V30 41 1 17 38
M  V30 42 1 17 39
M  V30 43 1 19 40
M  V30 44 1 19 41
M  V30 45 1 20 42
M  V30 46 1 20 43
M  V30 47 1 20 44
M  V30 48 1 21 45
M  V30 49 1 21 46
M  V30 50 1 22 47
M  V30 51 1 23 48
M  V30 52 1 23 49
M  V30 53 1 24 50
M  V30 54 1 24 51
M  V30 END BOND
M  V30 END CTAB
M  END
>  <Dataset>  (473) 
ChEMBL_Kinases

>  <Ligand_Instance>  (473) 
nan

>  <PDB_ID>  (473) 
nan

>  <Standardized_SMILES>  (473) 
CCCn1c(=O)c2ccccc2n2c(=S)n(CN(CC)CC3CC3)nc12

>  <Name>  (473) 
nan

>  <Pocket>  (473) 
nan

>  <ATP_Site>  (473) 
nan

>  <Peripheral>  (473) 
nan

>  <Num_H_Atoms_ProtBoundConf>  (473) 
nan

>  <Num_Resolved_Atoms>  (473) 
nan

>  <Num_Not_Resolved_Atoms>  (473) 
nan

$$$$
CHEMBL4778240
     RDKit          3D

  0  0  0  0  0  0  0  0  0  0999 V3000
M  V30 BEGIN CTAB
M  V30 COUNTS 51 54 0 0 0
M  V30 BEGIN ATOM
M  V30 1 C -1.477381 -3.362607 4.145370 0
M  V30 2 N -0.151834 -2.862165 3.818371 0
M  V30 3 C 0.554925 -2.596879 5.081465 0
M  V30 4 C 0.601721 -3.875145 3.104513 0
M  V30 5 C 1.994779 -3.371237 2.732801 0
M  V30 6 C 1.960549 -2.195310 1.870694 0
M  V30 7 S 2.306176 -0.485098 2.435346 0
M  V30 8 C 2.008859 0.207773 0.689228 0
M  V30 9 N 2.101816 1.623062 0.284085 0
M  V30 10 C 0.857764 2.248998 0.426536 0
M  V30 11 O -0.080632 1.501681 0.862281 0
M  V30 12 C 0.554781 3.672989 0.118832 0
M  V30 13 C 0.824135 4.049806 -1.308854 0
M  V30 14 O -0.323983 4.468992 -2.018698 0
M  V30 15 C -1.515889 3.803926 -1.787471 0
M  V30 16 C -2.433877 3.478073 -2.790250 0
M  V30 17 C -3.609404 2.805207 -2.455348 0
M  V30 18 C -3.865207 2.463181 -1.143467 0
M  V30 19 C -2.985164 2.767495 -0.130836 0
M  V30 20 C -1.828261 3.434679 -0.491625 0
M  V30 21 O -0.844003 3.809997 0.420352 0
M  V30 22 N 1.756562 -0.754127 0.109692 0
M  V30 23 C 1.692087 -1.994950 0.540656 0
M  V30 24 C 1.331812 -3.085986 -0.391938 0
M  V30 25 C 0.235704 -2.984568 -1.257739 0
M  V30 26 C -0.141853 -3.949061 -2.145096 0
M  V30 27 N 0.566759 -5.074202 -2.210034 0
M  V30 28 C 1.631178 -5.247693 -1.413777 0
M  V30 29 C 2.006726 -4.270079 -0.520522 0
M  V30 30 H -1.474153 -4.469350 4.254995 0
M  V30 31 H -1.803782 -2.948214 5.123046 0
M  V30 32 H -2.244635 -3.127490 3.408469 0
M  V30 33 H -0.196498 -2.121855 5.772077 0
M  V30 34 H 0.967673 -3.534874 5.496700 0
M  V30 35 H 1.335755 -1.836443 4.922660 0
M  V30 36 H 0.078196 -4.137300 2.168921 0
M  V30 37 H 0.765826 -4.781596 3.715127 0
M  V30 38 H 2.452661 -3.036949 3.714873 0
M  V30 39 H 2.595984 -4.215533 2.416009 0
M  V30 40 H 2.896943 2.190689 -0.068526 0
M  V30 41 H 1.071712 4.369878 0.781879 0
M  V30 42 H 1.526710 4.904770 -1.319804 0
M  V30 43 H 1.287088 3.166186 -1.801152 0
M  V30 44 H -2.208543 3.759448 -3.816382 0
M  V30 45 H -4.319290 2.557836 -3.259674 0
M  V30 46 H -4.786624 1.934095 -0.869605 0
M  V30 47 H -3.145668 2.516547 0.921676 0
M  V30 48 H -0.368547 -2.089147 -1.240395 0
M  V30 49 H -0.991758 -3.830966 -2.792809 0
M  V30 50 H 2.217413 -6.172315 -1.464213 0
M  V30 51 H 2.862400 -4.450877 0.086220 0
M  V30 END ATOM
M  V30 BEGIN BOND
M  V30 1 1 1 2
M  V30 2 1 2 3
M  V30 3 1 2 4
M  V30 4 1 4 5
M  V30 5 1 5 6
M  V30 6 1 6 7
M  V30 7 1 7 8
M  V30 8 1 8 9
M  V30 9 1 9 10
M  V30 10 2 10 11
M  V30 11 1 10 12
M  V30 12 1 12 13
M  V30 13 1 13 14
M  V30 14 1 14 15
M  V30 15 2 15 16
M  V30 16 1 16 17
M  V30 17 2 17 18
M  V30 18 1 18 19
M  V30 19 2 19 20
M  V30 20 1 20 21
M  V30 21 2 8 22
M  V30 22 1 22 23
M  V30 23 1 23 24
M  V30 24 2 24 25
M  V30 25 1 25 26
M  V30 26 2 26 27
M  V30 27 1 27 28
M  V30 28 2 28 29
M  V30 29 2 23 6
M  V30 30 1 29 24
M  V30 31 1 21 12
M  V30 32 1 20 15
M  V30 33 1 1 30
M  V30 34 1 1 31
M  V30 35 1 1 32
M  V30 36 1 3 33
M  V30 37 1 3 34
M  V30 38 1 3 35
M  V30 39 1 4 36
M  V30 40 1 4 37
M  V30 41 1 5 38
M  V30 42 1 5 39
M  V30 43 1 9 40
M  V30 44 1 12 41
M  V30 45 1 13 42
M  V30 46 1 13 43
M  V30 47 1 16 44
M  V30 48 1 17 45
M  V30 49 1 18 46
M  V30 50 1 19 47
M  V30 51 1 25 48
M  V30 52 1 26 49
M  V30 53 1 28 50
M  V30 54 1 29 51
M  V30 END BOND
M  V30 END CTAB
M  END
>  <Dataset>  (474) 
ChEMBL_Kinases

>  <Ligand_Instance>  (474) 
nan

>  <PDB_ID>  (474) 
nan

>  <Standardized_SMILES>  (474) 
CN(C)CCc1sc(NC(=O)C2COc3ccccc3O2)nc1-c1ccncc1

>  <Name>  (474) 
nan

>  <Pocket>  (474) 
nan

>  <ATP_Site>  (474) 
nan

>  <Peripheral>  (474) 
nan

>  <Num_H_Atoms_ProtBoundConf>  (474) 
nan

>  <Num_Resolved_Atoms>  (474) 
nan

>  <Num_Not_Resolved_Atoms>  (474) 
nan

$$$$
CHEMBL4778276
     RDKit          3D

  0  0  0  0  0  0  0  0  0  0999 V3000
M  V30 BEGIN CTAB
M  V30 COUNTS 56 60 0 0 0
M  V30 BEGIN ATOM
M  V30 1 C 4.844382 -6.900804 -0.783607 0
M  V30 2 O 3.506983 -7.352884 -0.611964 0
M  V30 3 C 2.579293 -6.395362 -0.220428 0
M  V30 4 C 2.806664 -5.053560 0.021739 0
M  V30 5 C 1.752768 -4.250754 0.405471 0
M  V30 6 C 2.030740 -2.834370 0.653542 0
M  V30 7 C 0.994477 -1.967613 0.377510 0
M  V30 8 N 1.212276 -0.658875 0.592880 0
M  V30 9 C 2.353962 -0.129208 1.053725 0
M  V30 10 C 2.641891 1.178561 1.294438 0
M  V30 11 C 1.771413 2.370558 1.113562 0
M  V30 12 C 2.272298 3.616175 1.429129 0
M  V30 13 C 1.508706 4.773431 1.283225 0
M  V30 14 C 0.215612 4.697715 0.812888 0
M  V30 15 C -0.294597 3.458019 0.494582 0
M  V30 16 N -1.639374 3.299849 -0.002781 0
M  V30 17 C -2.696331 3.094995 0.903108 0
M  V30 18 O -2.924620 2.987120 2.123370 0
M  V30 19 N -4.030589 2.936958 0.429257 0
M  V30 20 C -5.139789 2.724146 1.340130 0
M  V30 21 C -5.592235 1.282518 1.073702 0
M  V30 22 O -5.817495 1.083643 -0.264265 0
M  V30 23 C -5.783808 2.205996 -1.055322 0
M  V30 24 C -4.476382 2.961500 -0.967516 0
M  V30 25 C 0.475256 2.345831 0.647683 0
M  V30 26 S 4.218592 1.326192 1.869608 0
M  V30 27 N 4.592760 -0.511431 1.807841 0
M  V30 28 C 3.399673 -0.978281 1.334967 0
M  V30 29 C 3.222905 -2.331036 1.129461 0
M  V30 30 C 0.468813 -4.749768 0.556164 0
M  V30 31 C 0.228692 -6.106988 0.313295 0
M  V30 32 C 1.299319 -6.889843 -0.069525 0
M  V30 33 N 0.915876 -8.256738 -0.285830 0
M  V30 34 H 4.895110 -5.987802 -1.405954 0
M  V30 35 H 5.480865 -7.715281 -1.180110 0
M  V30 36 H 5.282549 -6.614561 0.210291 0
M  V30 37 H 3.829491 -4.732893 -0.114664 0
M  V30 38 H -0.004657 -2.224275 -0.003681 0
M  V30 39 H 3.273698 3.784415 1.805884 0
M  V30 40 H 1.913697 5.745211 1.534706 0
M  V30 41 H -0.397792 5.585708 0.690980 0
M  V30 42 H -1.890527 3.327382 -1.014332 0
M  V30 43 H -4.900933 2.869428 2.392806 0
M  V30 44 H -6.024431 3.358735 1.044290 0
M  V30 45 H -6.477652 1.014320 1.662439 0
M  V30 46 H -4.739897 0.628818 1.371329 0
M  V30 47 H -6.660527 2.853507 -0.883639 0
M  V30 48 H -5.854812 1.837437 -2.115079 0
M  V30 49 H -3.732074 2.412260 -1.598682 0
M  V30 50 H -4.651532 3.996651 -1.274009 0
M  V30 51 H 0.054651 1.385256 0.391833 0
M  V30 52 H 3.948828 -3.105725 1.305174 0
M  V30 53 H -0.337632 -4.080718 0.861542 0
M  V30 54 H -0.785626 -6.449253 0.443449 0
M  V30 55 H 0.427885 -8.609714 -1.147354 0
M  V30 56 H 1.056692 -9.060458 0.345592 0
M  V30 END ATOM
M  V30 BEGIN BOND
M  V30 1 1 1 2
M  V30 2 1 2 3
M  V30 3 2 3 4
M  V30 4 1 4 5
M  V30 5 1 5 6
M  V30 6 1 6 7
M  V30 7 2 7 8
M  V30 8 1 8 9
M  V30 9 2 9 10
M  V30 10 1 10 11
M  V30 11 2 11 12
M  V30 12 1 12 13
M  V30 13 2 13 14
M  V30 14 1 14 15
M  V30 15 1 15 16
M  V30 16 1 16 17
M  V30 17 2 17 18
M  V30 18 1 17 19
M  V30 19 1 19 20
M  V30 20 1 20 21
M  V30 21 1 21 22
M  V30 22 1 22 23
M  V30 23 1 23 24
M  V30 24 2 15 25
M  V30 25 1 10 26
M  V30 26 1 26 27
M  V30 27 2 27 28
M  V30 28 1 28 29
M  V30 29 2 5 30
M  V30 30 1 30 31
M  V30 31 2 31 32
M  V30 32 1 32 33
M  V30 33 1 32 3
M  V30 34 2 29 6
M  V30 35 1 28 9
M  V30 36 1 25 11
M  V30 37 1 24 19
M  V30 38 1 1 34
M  V30 39 1 1 35
M  V30 40 1 1 36
M  V30 41 1 4 37
M  V30 42 1 7 38
M  V30 43 1 12 39
M  V30 44 1 13 40
M  V30 45 1 14 41
M  V30 46 1 16 42
M  V30 47 1 20 43
M  V30 48 1 20 44
M  V30 49 1 21 45
M  V30 50 1 21 46
M  V30 51 1 23 47
M  V30 52 1 23 48
M  V30 53 1 24 49
M  V30 54 1 24 50
M  V30 55 1 25 51
M  V30 56 1 29 52
M  V30 57 1 30 53
M  V30 58 1 31 54
M  V30 59 1 33 55
M  V30 60 1 33 56
M  V30 END BOND
M  V30 END CTAB
M  END
>  <Dataset>  (475) 
ChEMBL_Kinases

>  <Ligand_Instance>  (475) 
nan

>  <PDB_ID>  (475) 
nan

>  <Standardized_SMILES>  (475) 
COc1cc(-c2cnc3c(-c4cccc(NC(=O)N5CCOCC5)c4)snc3c2)ccc1N

>  <Name>  (475) 
nan

>  <Pocket>  (475) 
nan

>  <ATP_Site>  (475) 
nan

>  <Peripheral>  (475) 
nan

>  <Num_H_Atoms_ProtBoundConf>  (475) 
nan

>  <Num_Resolved_Atoms>  (475) 
nan

>  <Num_Not_Resolved_Atoms>  (475) 
nan

$$$$
CHEMBL4778314
     RDKit          3D

  0  0  0  0  0  0  0  0  0  0999 V3000
M  V30 BEGIN CTAB
M  V30 COUNTS 51 55 0 0 0
M  V30 BEGIN ATOM
M  V30 1 C 0.177640 0.185755 4.805398 0
M  V30 2 O 0.899696 0.661371 3.704052 0
M  V30 3 C 2.251142 0.439340 3.474099 0
M  V30 4 C 3.182941 -0.259389 4.214009 0
M  V30 5 C 4.463143 -0.331725 3.768958 0
M  V30 6 C 4.917480 0.245606 2.618103 0
M  V30 7 C 3.991497 0.948249 1.869183 0
M  V30 8 F 4.447040 1.524378 0.719799 0
M  V30 9 C 2.659949 1.050465 2.287663 0
M  V30 10 C 1.816153 1.831935 1.372758 0
M  V30 11 C 1.167718 1.172431 0.349612 0
M  V30 12 C 0.355853 1.877626 -0.542533 0
M  V30 13 C 0.213818 3.237061 -0.384632 0
M  V30 14 C 0.882369 3.874613 0.659485 0
M  V30 15 N 1.669284 3.165389 1.517682 0
M  V30 16 C -0.632674 3.717260 -1.379616 0
M  V30 17 N -0.968162 2.629561 -2.098591 0
M  V30 18 N -0.403530 1.549804 -1.627828 0
M  V30 19 C -0.453482 0.186484 -2.040037 0
M  V30 20 C 0.167757 -0.239692 -3.201983 0
M  V30 21 C 0.058697 -1.580022 -3.509997 0
M  V30 22 C -0.625523 -2.488516 -2.728759 0
M  V30 23 C -1.229182 -2.014139 -1.577897 0
M  V30 24 N -1.974765 -2.796155 -0.651325 0
M  V30 25 C -2.598410 -2.248637 0.557478 0
M  V30 26 C -3.802434 -3.101486 0.875522 0
M  V30 27 N -3.286997 -4.365111 1.390380 0
M  V30 28 C -2.294783 -4.933570 0.529826 0
M  V30 29 C -2.198205 -4.217202 -0.801960 0
M  V30 30 N -1.118848 -0.705571 -1.283443 0
M  V30 31 H -0.137606 1.043482 5.437177 0
M  V30 32 H -0.758079 -0.320436 4.492809 0
M  V30 33 H 0.751747 -0.504492 5.451283 0
M  V30 34 H 2.754150 -0.686517 5.106282 0
M  V30 35 H 5.158824 -0.901846 4.401139 0
M  V30 36 H 5.960347 0.143376 2.326874 0
M  V30 37 H 1.268141 0.105792 0.211183 0
M  V30 38 H 0.794660 4.948342 0.816483 0
M  V30 39 H -0.948536 4.740809 -1.536410 0
M  V30 40 H 0.711448 0.447586 -3.835303 0
M  V30 41 H 0.524399 -1.997998 -4.416678 0
M  V30 42 H -0.730867 -3.536870 -2.937154 0
M  V30 43 H -1.874441 -2.319677 1.397169 0
M  V30 44 H -2.922078 -1.194801 0.402022 0
M  V30 45 H -4.394794 -2.631317 1.686211 0
M  V30 46 H -4.375439 -3.242404 -0.053337 0
M  V30 47 H -2.916578 -4.181056 2.355680 0
M  V30 48 H -1.306024 -4.962840 1.030290 0
M  V30 49 H -2.610463 -5.978685 0.282096 0
M  V30 50 H -1.345584 -4.674907 -1.359608 0
M  V30 51 H -3.090707 -4.438358 -1.418954 0
M  V30 END ATOM
M  V30 BEGIN BOND
M  V30 1 1 1 2
M  V30 2 1 2 3
M  V30 3 2 3 4
M  V30 4 1 4 5
M  V30 5 2 5 6
M  V30 6 1 6 7
M  V30 7 1 7 8
M  V30 8 2 7 9
M  V30 9 1 9 10
M  V30 10 2 10 11
M  V30 11 1 11 12
M  V30 12 2 12 13
M  V30 13 1 13 14
M  V30 14 2 14 15
M  V30 15 1 13 16
M  V30 16 2 16 17
M  V30 17 1 17 18
M  V30 18 1 18 19
M  V30 19 2 19 20
M  V30 20 1 20 21
M  V30 21 2 21 22
M  V30 22 1 22 23
M  V30 23 1 23 24
M  V30 24 1 24 25
M  V30 25 1 25 26
M  V30 26 1 26 27
M  V30 27 1 27 28
M  V30 28 1 28 29
M  V30 29 2 23 30
M  V30 30 1 9 3
M  V30 31 1 15 10
M  V30 32 1 30 19
M  V30 33 1 18 12
M  V30 34 1 29 24
M  V30 35 1 1 31
M  V30 36 1 1 32
M  V30 37 1 1 33
M  V30 38 1 4 34
M  V30 39 1 5 35
M  V30 40 1 6 36
M  V30 41 1 11 37
M  V30 42 1 14 38
M  V30 43 1 16 39
M  V30 44 1 20 40
M  V30 45 1 21 41
M  V30 46 1 22 42
M  V30 47 1 25 43
M  V30 48 1 25 44
M  V30 49 1 26 45
M  V30 50 1 26 46
M  V30 51 1 27 47
M  V30 52 1 28 48
M  V30 53 1 28 49
M  V30 54 1 29 50
M  V30 55 1 29 51
M  V30 END BOND
M  V30 END CTAB
M  END
>  <Dataset>  (476) 
ChEMBL_Kinases

>  <Ligand_Instance>  (476) 
nan

>  <PDB_ID>  (476) 
nan

>  <Standardized_SMILES>  (476) 
COc1cccc(F)c1-c1cc2c(cn1)cnn2-c1cccc(N2CCNCC2)n1

>  <Name>  (476) 
nan

>  <Pocket>  (476) 
nan

>  <ATP_Site>  (476) 
nan

>  <Peripheral>  (476) 
nan

>  <Num_H_Atoms_ProtBoundConf>  (476) 
nan

>  <Num_Resolved_Atoms>  (476) 
nan

>  <Num_Not_Resolved_Atoms>  (476) 
nan

$$$$
CHEMBL4217652
     RDKit          3D

  0  0  0  0  0  0  0  0  0  0999 V3000
M  V30 BEGIN CTAB
M  V30 COUNTS 37 40 0 0 0
M  V30 BEGIN ATOM
M  V30 1 N -0.622994 -5.566431 1.638673 0
M  V30 2 C 0.721099 -5.299521 1.204793 0
M  V30 3 C 1.609204 -6.327598 1.112493 0
M  V30 4 C 2.892181 -6.056363 0.695663 0
M  V30 5 C 3.265137 -4.772167 0.379992 0
M  V30 6 C 2.405995 -3.701544 0.456923 0
M  V30 7 N 2.832793 -2.390461 0.121305 0
M  V30 8 C 2.097463 -1.175665 0.122778 0
M  V30 9 N 2.718401 -0.038729 -0.236450 0
M  V30 10 C 2.103851 1.152339 -0.266054 0
M  V30 11 C 0.772438 1.232856 0.085621 0
M  V30 12 C 0.117825 2.450341 0.062582 0
M  V30 13 C -1.221955 2.499823 0.421520 0
M  V30 14 C -2.007735 3.737349 0.431082 0
M  V30 15 C -3.307588 4.092898 0.222168 0
M  V30 16 N -3.428289 5.438746 0.376915 0
M  V30 17 N -2.245580 5.952911 0.678108 0
M  V30 18 C -1.354117 4.940021 0.719419 0
M  V30 19 C -1.884428 1.341360 0.795699 0
M  V30 20 C -1.241680 0.112363 0.823939 0
M  V30 21 C 0.103284 0.085903 0.459789 0
M  V30 22 N 0.804456 -1.057423 0.457629 0
M  V30 23 C 1.140401 -4.042446 0.879946 0
M  V30 24 H -0.657718 -6.103864 2.551203 0
M  V30 25 H -1.598267 -5.360654 1.275098 0
M  V30 26 H 1.376786 -7.356562 1.346318 0
M  V30 27 H 3.614514 -6.856912 0.614890 0
M  V30 28 H 4.288353 -4.622927 0.058358 0
M  V30 29 H 3.854255 -2.324165 -0.171595 0
M  V30 30 H 2.654133 2.030694 -0.562991 0
M  V30 31 H 0.611280 3.361573 -0.224331 0
M  V30 32 H -4.022681 3.307205 -0.023132 0
M  V30 33 H -2.236419 6.975890 0.815529 0
M  V30 34 H -0.310522 5.153541 0.953701 0
M  V30 35 H -2.927214 1.331298 1.083021 0
M  V30 36 H -1.704203 -0.820607 1.105926 0
M  V30 37 H 0.385189 -3.279493 0.976442 0
M  V30 END ATOM
M  V30 BEGIN BOND
M  V30 1 1 1 2
M  V30 2 2 2 3
M  V30 3 1 3 4
M  V30 4 2 4 5
M  V30 5 1 5 6
M  V30 6 1 6 7
M  V30 7 1 7 8
M  V30 8 2 8 9
M  V30 9 1 9 10
M  V30 10 2 10 11
M  V30 11 1 11 12
M  V30 12 2 12 13
M  V30 13 1 13 14
M  V30 14 1 14 15
M  V30 15 2 15 16
M  V30 16 1 16 17
M  V30 17 1 17 18
M  V30 18 1 13 19
M  V30 19 2 19 20
M  V30 20 1 20 21
M  V30 21 2 21 22
M  V30 22 2 6 23
M  V30 23 1 23 2
M  V30 24 1 22 8
M  V30 25 1 21 11
M  V30 26 2 18 14
M  V30 27 1 1 24
M  V30 28 1 1 25
M  V30 29 1 3 26
M  V30 30 1 4 27
M  V30 31 1 5 28
M  V30 32 1 7 29
M  V30 33 1 10 30
M  V30 34 1 12 31
M  V30 35 1 15 32
M  V30 36 1 17 33
M  V30 37 1 18 34
M  V30 38 1 19 35
M  V30 39 1 20 36
M  V30 40 1 23 37
M  V30 END BOND
M  V30 END CTAB
M  END
>  <Dataset>  (477) 
ChEMBL_Kinases

>  <Ligand_Instance>  (477) 
nan

>  <PDB_ID>  (477) 
nan

>  <Standardized_SMILES>  (477) 
Nc1cccc(Nc2ncc3cc(-c4cn[nH]c4)ccc3n2)c1

>  <Name>  (477) 
nan

>  <Pocket>  (477) 
nan

>  <ATP_Site>  (477) 
nan

>  <Peripheral>  (477) 
nan

>  <Num_H_Atoms_ProtBoundConf>  (477) 
nan

>  <Num_Resolved_Atoms>  (477) 
nan

>  <Num_Not_Resolved_Atoms>  (477) 
nan

$$$$
CHEMBL4217649
     RDKit          3D

  0  0  0  0  0  0  0  0  0  0999 V3000
M  V30 BEGIN CTAB
M  V30 COUNTS 69 74 0 0 0
M  V30 BEGIN ATOM
M  V30 1 C 6.289583 -2.157034 7.142977 0
M  V30 2 C 5.330091 -2.459114 6.035690 0
M  V30 3 N 5.362991 -1.588775 4.924535 0
M  V30 4 C 4.923761 -0.263851 5.106617 0
M  V30 5 C 4.835586 0.573846 3.882411 0
M  V30 6 N 4.396030 -0.156358 2.710354 0
M  V30 7 C 3.236849 0.090143 1.918142 0
M  V30 8 C 2.850073 -0.646706 0.815624 0
M  V30 9 C 1.678221 -0.235833 0.175639 0
M  V30 10 C 0.941800 0.847841 0.616864 0
M  V30 11 C -0.271938 1.203731 -0.121533 0
M  V30 12 N -1.438878 1.499583 0.521251 0
M  V30 13 N -2.378220 1.786876 -0.370594 0
M  V30 14 C -3.771679 2.160988 -0.196470 0
M  V30 15 C -4.560039 0.901573 -0.193900 0
M  V30 16 C -5.131428 0.261767 -1.295741 0
M  V30 17 N -5.765118 -0.853671 -0.883655 0
M  V30 18 C -6.513256 -1.871699 -1.606604 0
M  V30 19 C -5.604574 -2.964011 -2.043706 0
M  V30 20 C -4.945957 -2.965676 -3.266430 0
M  V30 21 C -4.107389 -4.028313 -3.603278 0
M  V30 22 C -3.979700 -5.039553 -2.677598 0
M  V30 23 C -4.611466 -5.095487 -1.438803 0
M  V30 24 C -5.433696 -4.009652 -1.158859 0
M  V30 25 N -5.585333 -0.896241 0.444605 0
M  V30 26 N -4.879222 0.130290 0.857612 0
M  V30 27 C -1.817241 1.676556 -1.596258 0
M  V30 28 N -2.265743 1.843470 -2.872663 0
M  V30 29 C -1.435612 1.653880 -3.922424 0
M  V30 30 N -1.999514 1.852543 -5.218311 0
M  V30 31 C -3.386938 2.234597 -5.338688 0
M  V30 32 N -0.146029 1.297249 -3.779414 0
M  V30 33 C 0.367220 1.113566 -2.533084 0
M  V30 34 C -0.490706 1.310894 -1.487474 0
M  V30 35 C 1.390197 1.549506 1.739375 0
M  V30 36 N 2.531390 1.148280 2.361534 0
M  V30 37 C 5.382021 -1.182889 2.515875 0
M  V30 38 C 5.253195 -2.172465 3.640078 0
M  V30 39 H 5.726477 -1.903134 8.058342 0
M  V30 40 H 7.062346 -1.412292 6.869742 0
M  V30 41 H 6.884229 -3.078739 7.413271 0
M  V30 42 H 4.276922 -2.493122 6.442080 0
M  V30 43 H 5.510247 -3.494596 5.676301 0
M  V30 44 H 5.603529 0.241603 5.835559 0
M  V30 45 H 3.923251 -0.312585 5.628871 0
M  V30 46 H 4.086481 1.374148 4.057588 0
M  V30 47 H 5.788144 1.129314 3.646025 0
M  V30 48 H 3.466376 -1.470360 0.531635 0
M  V30 49 H 1.425592 -0.859911 -0.689394 0
M  V30 50 H -4.094611 2.869093 -0.965244 0
M  V30 51 H -3.840663 2.583740 0.836778 0
M  V30 52 H -5.099695 0.566322 -2.319606 0
M  V30 53 H -7.307904 -2.279979 -0.969669 0
M  V30 54 H -7.019762 -1.460966 -2.503721 0
M  V30 55 H -5.104727 -2.127733 -3.934754 0
M  V30 56 H -3.593842 -4.047695 -4.535245 0
M  V30 57 H -3.319221 -5.854604 -2.967286 0
M  V30 58 H -4.461846 -5.918817 -0.770259 0
M  V30 59 H -5.941032 -4.031927 -0.190354 0
M  V30 60 H -1.479515 1.741957 -6.114233 0
M  V30 61 H -3.928402 2.183716 -4.362964 0
M  V30 62 H -3.876228 1.449400 -5.986050 0
M  V30 63 H -3.511775 3.203820 -5.819885 0
M  V30 64 H 1.397164 0.828045 -2.388563 0
M  V30 65 H 0.776559 2.389308 2.041837 0
M  V30 66 H 6.417645 -0.799451 2.417203 0
M  V30 67 H 5.192192 -1.771947 1.572127 0
M  V30 68 H 4.290460 -2.714668 3.474937 0
M  V30 69 H 6.111114 -2.883566 3.515565 0
M  V30 END ATOM
M  V30 BEGIN BOND
M  V30 1 1 1 2
M  V30 2 1 2 3
M  V30 3 1 3 4
M  V30 4 1 4 5
M  V30 5 1 5 6
M  V30 6 1 6 7
M  V30 7 2 7 8
M  V30 8 1 8 9
M  V30 9 2 9 10
M  V30 10 1 10 11
M  V30 11 2 11 12
M  V30 12 1 12 13
M  V30 13 1 13 14
M  V30 14 1 14 15
M  V30 15 2 15 16
M  V30 16 1 16 17
M  V30 17 1 17 18
M  V30 18 1 18 19
M  V30 19 2 19 20
M  V30 20 1 20 21
M  V30 21 2 21 22
M  V30 22 1 22 23
M  V30 23 2 23 24
M  V30 24 1 17 25
M  V30 25 2 25 26
M  V30 26 1 13 27
M  V30 27 2 27 28
M  V30 28 1 28 29
M  V30 29 1 29 30
M  V30 30 1 30 31
M  V30 31 2 29 32
M  V30 32 1 32 33
M  V30 33 2 33 34
M  V30 34 1 10 35
M  V30 35 2 35 36
M  V30 36 1 6 37
M  V30 37 1 37 38
M  V30 38 1 38 3
M  V30 39 1 36 7
M  V30 40 1 34 11
M  V30 41 1 26 15
M  V30 42 1 34 27
M  V30 43 1 24 19
M  V30 44 1 1 39
M  V30 45 1 1 40
M  V30 46 1 1 41
M  V30 47 1 2 42
M  V30 48 1 2 43
M  V30 49 1 4 44
M  V30 50 1 4 45
M  V30 51 1 5 46
M  V30 52 1 5 47
M  V30 53 1 8 48
M  V30 54 1 9 49
M  V30 55 1 14 50
M  V30 56 1 14 51
M  V30 57 1 16 52
M  V30 58 1 18 53
M  V30 59 1 18 54
M  V30 60 1 20 55
M  V30 61 1 21 56
M  V30 62 1 22 57
M  V30 63 1 23 58
M  V30 64 1 24 59
M  V30 65 1 30 60
M  V30 66 1 31 61
M  V30 67 1 31 62
M  V30 68 1 31 63
M  V30 69 1 33 64
M  V30 70 1 35 65
M  V30 71 1 37 66
M  V30 72 1 37 67
M  V30 73 1 38 68
M  V30 74 1 38 69
M  V30 END BOND
M  V30 END CTAB
M  END
>  <Dataset>  (478) 
ChEMBL_Kinases

>  <Ligand_Instance>  (478) 
nan

>  <PDB_ID>  (478) 
nan

>  <Standardized_SMILES>  (478) 
CCN1CCN(c2ccc(-c3nn(Cc4cn(Cc5ccccc5)nn4)c4nc(NC)ncc34)cn2)CC1

>  <Name>  (478) 
nan

>  <Pocket>  (478) 
nan

>  <ATP_Site>  (478) 
nan

>  <Peripheral>  (478) 
nan

>  <Num_H_Atoms_ProtBoundConf>  (478) 
nan

>  <Num_Resolved_Atoms>  (478) 
nan

>  <Num_Not_Resolved_Atoms>  (478) 
nan

$$$$
CHEMBL4217489
     RDKit          3D

  0  0  0  0  0  0  0  0  0  0999 V3000
M  V30 BEGIN CTAB
M  V30 COUNTS 59 63 0 0 0
M  V30 BEGIN ATOM
M  V30 1 C 3.691374 -4.540262 4.883390 0
M  V30 2 O 4.077329 -4.012873 3.618123 0
M  V30 3 C 3.102783 -3.626345 2.714768 0
M  V30 4 C 3.478442 -3.113759 1.484278 0
M  V30 5 C 2.517319 -2.733099 0.594519 0
M  V30 6 C 1.148598 -2.812803 0.812285 0
M  V30 7 C 0.133509 -2.391704 -0.146311 0
M  V30 8 C 0.278885 -1.100583 -0.770147 0
M  V30 9 O 1.321393 -0.718660 -0.188496 0
M  V30 10 N 0.790225 0.184508 -1.110578 0
M  V30 11 C 1.883448 1.031856 -0.756070 0
M  V30 12 C 1.473932 2.347672 -0.143060 0
M  V30 13 N 0.018156 2.452889 -0.395262 0
M  V30 14 C -0.824079 2.638737 0.725508 0
M  V30 15 N -0.251331 3.033120 1.871176 0
M  V30 16 C -0.952719 3.275179 2.989080 0
M  V30 17 N -2.288083 3.127807 3.003636 0
M  V30 18 C -2.950150 2.735114 1.902174 0
M  V30 19 N -4.243595 2.499995 1.629355 0
M  V30 20 C -4.348178 2.104699 0.325605 0
M  V30 21 C -3.066043 2.111093 -0.177574 0
M  V30 22 C -2.171081 2.504014 0.791945 0
M  V30 23 C -0.139719 2.348695 -1.828548 0
M  V30 24 C -0.026035 0.868550 -2.126572 0
M  V30 25 C -1.240639 -2.618205 0.484976 0
M  V30 26 C -2.352620 -2.389075 -0.515341 0
M  V30 27 N -1.853854 -2.154166 -1.856414 0
M  V30 28 C -0.911816 -3.157152 -2.287878 0
M  V30 29 C 0.166941 -3.445861 -1.270742 0
M  V30 30 C 0.848977 -3.332706 2.058330 0
M  V30 31 C 1.762419 -3.738618 3.008651 0
M  V30 32 H 3.025062 -5.427213 4.730268 0
M  V30 33 H 4.546661 -4.906826 5.458106 0
M  V30 34 H 3.077393 -3.791696 5.440229 0
M  V30 35 H 4.538423 -3.040048 1.288403 0
M  V30 36 H 2.906337 -2.356368 -0.333167 0
M  V30 37 H 2.629830 0.608754 -0.063584 0
M  V30 38 H 2.459619 1.237867 -1.707145 0
M  V30 39 H 1.701714 2.409569 0.936300 0
M  V30 40 H 2.030961 3.155875 -0.638498 0
M  V30 41 H -0.348944 3.592467 3.855018 0
M  V30 42 H -5.032703 2.609716 2.325866 0
M  V30 43 H -5.261364 1.839598 -0.204753 0
M  V30 44 H -2.858724 1.828532 -1.194596 0
M  V30 45 H 0.680729 2.905190 -2.387846 0
M  V30 46 H -1.054405 2.771238 -2.238063 0
M  V30 47 H -1.076815 0.515708 -2.119763 0
M  V30 48 H 0.460060 0.769768 -3.101140 0
M  V30 49 H -1.377925 -2.109675 1.436437 0
M  V30 50 H -1.267011 -3.710867 0.688982 0
M  V30 51 H -2.998933 -1.538897 -0.242642 0
M  V30 52 H -3.044566 -3.255901 -0.613961 0
M  V30 53 H -2.691020 -2.237059 -2.496182 0
M  V30 54 H -1.470759 -4.077810 -2.589387 0
M  V30 55 H -0.464433 -2.764206 -3.232079 0
M  V30 56 H 1.149251 -3.372469 -1.782984 0
M  V30 57 H 0.036863 -4.453307 -0.873380 0
M  V30 58 H -0.177735 -3.456589 2.376468 0
M  V30 59 H 1.477516 -4.138344 3.967838 0
M  V30 END ATOM
M  V30 BEGIN BOND
M  V30 1 1 1 2
M  V30 2 1 2 3
M  V30 3 2 3 4
M  V30 4 1 4 5
M  V30 5 2 5 6
M  V30 6 1 6 7
M  V30 7 1 7 8
M  V30 8 2 8 9
M  V30 9 1 8 10
M  V30 10 1 10 11
M  V30 11 1 11 12
M  V30 12 1 12 13
M  V30 13 1 13 14
M  V30 14 2 14 15
M  V30 15 1 15 16
M  V30 16 2 16 17
M  V30 17 1 17 18
M  V30 18 1 18 19
M  V30 19 1 19 20
M  V30 20 2 20 21
M  V30 21 1 21 22
M  V30 22 1 13 23
M  V30 23 1 23 24
M  V30 24 1 7 25
M  V30 25 1 25 26
M  V30 26 1 26 27
M  V30 27 1 27 28
M  V30 28 1 28 29
M  V30 29 1 6 30
M  V30 30 2 30 31
M  V30 31 1 31 3
M  V30 32 1 29 7
M  V30 33 1 24 10
M  V30 34 1 22 14
M  V30 35 2 22 18
M  V30 36 1 1 32
M  V30 37 1 1 33
M  V30 38 1 1 34
M  V30 39 1 4 35
M  V30 40 1 5 36
M  V30 41 1 11 37
M  V30 42 1 11 38
M  V30 43 1 12 39
M  V30 44 1 12 40
M  V30 45 1 16 41
M  V30 46 1 19 42
M  V30 47 1 20 43
M  V30 48 1 21 44
M  V30 49 1 23 45
M  V30 50 1 23 46
M  V30 51 1 24 47
M  V30 52 1 24 48
M  V30 53 1 25 49
M  V30 54 1 25 50
M  V30 55 1 26 51
M  V30 56 1 26 52
M  V30 57 1 27 53
M  V30 58 1 28 54
M  V30 59 1 28 55
M  V30 60 1 29 56
M  V30 61 1 29 57
M  V30 62 1 30 58
M  V30 63 1 31 59
M  V30 END BOND
M  V30 END CTAB
M  END
>  <Dataset>  (479) 
ChEMBL_Kinases

>  <Ligand_Instance>  (479) 
nan

>  <PDB_ID>  (479) 
nan

>  <Standardized_SMILES>  (479) 
COc1ccc(C2(C(=O)N3CCN(c4ncnc5[nH]ccc45)CC3)CCNCC2)cc1

>  <Name>  (479) 
nan

>  <Pocket>  (479) 
nan

>  <ATP_Site>  (479) 
nan

>  <Peripheral>  (479) 
nan

>  <Num_H_Atoms_ProtBoundConf>  (479) 
nan

>  <Num_Resolved_Atoms>  (479) 
nan

>  <Num_Not_Resolved_Atoms>  (479) 
nan

$$$$
CHEMBL4217421
     RDKit          3D

  0  0  0  0  0  0  0  0  0  0999 V3000
M  V30 BEGIN CTAB
M  V30 COUNTS 62 66 0 0 0
M  V30 BEGIN ATOM
M  V30 1 C 1.644002 -1.949044 4.641108 0
M  V30 2 C 2.125851 -0.928350 3.710269 0
M  V30 3 C 3.142118 -0.014363 3.922017 0
M  V30 4 C 3.522062 0.914105 2.970597 0
M  V30 5 C 2.862537 0.933907 1.756690 0
M  V30 6 N 3.247327 1.897558 0.753921 0
M  V30 7 C 2.585695 3.156626 0.758236 0
M  V30 8 O 1.727952 3.249667 1.671781 0
M  V30 9 C 2.905859 4.201271 -0.219606 0
M  V30 10 C 3.852318 4.104110 -1.221860 0
M  V30 11 C 4.066389 5.156392 -2.087734 0
M  V30 12 C 3.339628 6.322014 -1.967171 0
M  V30 13 C 2.397045 6.412637 -0.965339 0
M  V30 14 C 1.606526 7.673126 -0.829984 0
M  V30 15 F 0.248326 7.381240 -1.014956 0
M  V30 16 F 1.766521 8.260613 0.391146 0
M  V30 17 F 1.971720 8.571483 -1.796670 0
M  V30 18 C 2.157647 5.377197 -0.081167 0
M  V30 19 C 1.838298 0.022643 1.526049 0
M  V30 20 C 1.468481 -0.902918 2.490562 0
M  V30 21 N 0.401661 -1.759920 2.091177 0
M  V30 22 C 0.741482 -2.975261 1.438940 0
M  V30 23 C -0.511064 -3.695685 1.127883 0
M  V30 24 C -0.305459 -4.898810 0.493771 0
M  V30 25 N -1.339819 -5.685717 0.135610 0
M  V30 26 C -2.625659 -5.336095 0.379254 0
M  V30 27 N -3.760614 -6.118693 0.027358 0
M  V30 28 C -4.276138 -5.817110 -1.282365 0
M  V30 29 C -3.790232 -4.882877 -2.173807 0
M  V30 30 N -4.550852 -4.896947 -3.305054 0
M  V30 31 N -5.503413 -5.826235 -3.131535 0
M  V30 32 C -6.470364 -6.064165 -4.185470 0
M  V30 33 C -5.358014 -6.393490 -1.920971 0
M  V30 34 N -2.823027 -4.156121 1.001036 0
M  V30 35 C -1.822987 -3.344540 1.373708 0
M  V30 36 N -2.000606 -2.094532 2.032138 0
M  V30 37 C -3.340685 -1.657932 2.323517 0
M  V30 38 C -0.905381 -1.256620 2.415308 0
M  V30 39 O -1.080175 -0.154316 2.996692 0
M  V30 40 H 0.624149 -1.828718 5.005586 0
M  V30 41 H 1.955489 -2.989160 4.395692 0
M  V30 42 H 2.251239 -1.799847 5.589874 0
M  V30 43 H 3.605327 -0.104230 4.907889 0
M  V30 44 H 4.322700 1.595510 3.205321 0
M  V30 45 H 3.986772 1.678471 0.048173 0
M  V30 46 H 4.397502 3.172502 -1.278133 0
M  V30 47 H 4.840928 4.979458 -2.849746 0
M  V30 48 H 3.542014 7.130847 -2.674972 0
M  V30 49 H 1.400586 5.529332 0.676327 0
M  V30 50 H 1.380205 0.109691 0.554451 0
M  V30 51 H 1.469692 -2.949468 0.641983 0
M  V30 52 H 1.249766 -3.646338 2.186346 0
M  V30 53 H 0.635243 -5.380378 0.198530 0
M  V30 54 H -4.260987 -6.862729 0.570335 0
M  V30 55 H -2.948918 -4.223297 -2.045780 0
M  V30 56 H -6.201510 -6.879436 -4.865591 0
M  V30 57 H -6.701217 -5.132226 -4.743496 0
M  V30 58 H -7.430460 -6.372916 -3.682513 0
M  V30 59 H -5.997059 -7.169554 -1.538031 0
M  V30 60 H -4.054954 -2.000842 1.557703 0
M  V30 61 H -3.691184 -1.969342 3.337673 0
M  V30 62 H -3.331460 -0.534417 2.241005 0
M  V30 END ATOM
M  V30 BEGIN BOND
M  V30 1 1 1 2
M  V30 2 2 2 3
M  V30 3 1 3 4
M  V30 4 2 4 5
M  V30 5 1 5 6
M  V30 6 1 6 7
M  V30 7 2 7 8
M  V30 8 1 7 9
M  V30 9 2 9 10
M  V30 10 1 10 11
M  V30 11 2 11 12
M  V30 12 1 12 13
M  V30 13 1 13 14
M  V30 14 1 14 15
M  V30 15 1 14 16
M  V30 16 1 14 17
M  V30 17 2 13 18
M  V30 18 1 5 19
M  V30 19 2 19 20
M  V30 20 1 20 21
M  V30 21 1 21 22
M  V30 22 1 22 23
M  V30 23 2 23 24
M  V30 24 1 24 25
M  V30 25 2 25 26
M  V30 26 1 26 27
M  V30 27 1 27 28
M  V30 28 1 28 29
M  V30 29 2 29 30
M  V30 30 1 30 31
M  V30 31 1 31 32
M  V30 32 1 31 33
M  V30 33 1 26 34
M  V30 34 2 34 35
M  V30 35 1 35 36
M  V30 36 1 36 37
M  V30 37 1 36 38
M  V30 38 2 38 39
M  V30 39 1 20 2
M  V30 40 1 38 21
M  V30 41 1 18 9
M  V30 42 1 35 23
M  V30 43 2 33 28
M  V30 44 1 1 40
M  V30 45 1 1 41
M  V30 46 1 1 42
M  V30 47 1 3 43
M  V30 48 1 4 44
M  V30 49 1 6 45
M  V30 50 1 10 46
M  V30 51 1 11 47
M  V30 52 1 12 48
M  V30 53 1 18 49
M  V30 54 1 19 50
M  V30 55 1 22 51
M  V30 56 1 22 52
M  V30 57 1 24 53
M  V30 58 1 27 54
M  V30 59 1 29 55
M  V30 60 1 32 56
M  V30 61 1 32 57
M  V30 62 1 32 58
M  V30 63 1 33 59
M  V30 64 1 37 60
M  V30 65 1 37 61
M  V30 66 1 37 62
M  V30 END BOND
M  V30 END CTAB
M  END
>  <Dataset>  (480) 
ChEMBL_Kinases

>  <Ligand_Instance>  (480) 
nan

>  <PDB_ID>  (480) 
nan

>  <Standardized_SMILES>  (480) 
Cc1ccc(NC(=O)c2cccc(C(F)(F)F)c2)cc1N1Cc2cnc(Nc3cnn(C)c3)nc2N(C)C1=O

>  <Name>  (480) 
nan

>  <Pocket>  (480) 
nan

>  <ATP_Site>  (480) 
nan

>  <Peripheral>  (480) 
nan

>  <Num_H_Atoms_ProtBoundConf>  (480) 
nan

>  <Num_Resolved_Atoms>  (480) 
nan

>  <Num_Not_Resolved_Atoms>  (480) 
nan

$$$$
CHEMBL4778070
     RDKit          3D

  0  0  0  0  0  0  0  0  0  0999 V3000
M  V30 BEGIN CTAB
M  V30 COUNTS 49 52 0 0 0
M  V30 BEGIN ATOM
M  V30 1 N -1.149752 -3.340494 4.831114 0
M  V30 2 C -0.879570 -2.543280 3.653612 0
M  V30 3 N 0.404137 -2.070133 3.804023 0
M  V30 4 C 0.921864 -1.276853 2.820624 0
M  V30 5 C 0.209385 -0.937083 1.693316 0
M  V30 6 C 0.720816 -0.093144 0.618951 0
M  V30 7 C 0.497617 -0.043752 -0.732939 0
M  V30 8 N 1.245821 0.947596 -1.245627 0
M  V30 9 N 1.941851 1.541768 -0.292571 0
M  V30 10 C 2.805838 2.639046 -0.675845 0
M  V30 11 C 4.062453 2.208918 -1.365040 0
M  V30 12 C 4.778176 3.492634 -1.743019 0
M  V30 13 N 4.060023 4.682514 -1.394936 0
M  V30 14 C 3.687539 4.805657 -0.023321 0
M  V30 15 C 3.231494 3.464586 0.512642 0
M  V30 16 C 1.633114 0.916759 0.860162 0
M  V30 17 C -1.066822 -1.448065 1.614159 0
M  V30 18 C -1.675773 -2.239752 2.525781 0
M  V30 19 O -2.793327 -2.854372 2.746575 0
M  V30 20 C -4.027576 -3.256281 2.510360 0
M  V30 21 C -4.158306 -4.058855 1.254754 0
M  V30 22 C -4.147328 -5.456786 1.340834 0
M  V30 23 C -4.229343 -6.340668 0.285604 0
M  V30 24 C -4.331705 -5.792810 -0.973721 0
M  V30 25 C -4.349089 -4.417144 -1.134498 0
M  V30 26 C -4.263946 -3.598932 -0.035559 0
M  V30 27 Cl -4.329288 -1.888705 -0.274206 0
M  V30 28 H -1.583835 -2.935087 5.685980 0
M  V30 29 H -0.934937 -4.370133 4.916563 0
M  V30 30 H 1.916826 -0.867618 2.862805 0
M  V30 31 H -0.187862 -0.732681 -1.220837 0
M  V30 32 H 2.279445 3.332295 -1.369852 0
M  V30 33 H 4.700893 1.686574 -0.604823 0
M  V30 34 H 3.792183 1.573211 -2.204441 0
M  V30 35 H 4.831544 3.486744 -2.864699 0
M  V30 36 H 5.794457 3.555935 -1.304319 0
M  V30 37 H 3.316898 4.960763 -2.067089 0
M  V30 38 H 4.445103 5.304317 0.609976 0
M  V30 39 H 2.767940 5.456777 0.009480 0
M  V30 40 H 2.445233 3.558506 1.282210 0
M  V30 41 H 4.121325 2.976101 0.999699 0
M  V30 42 H 2.098717 1.250689 1.773850 0
M  V30 43 H -1.690521 -1.240710 0.784200 0
M  V30 44 H -4.831313 -2.463965 2.498699 0
M  V30 45 H -4.387572 -3.943672 3.349106 0
M  V30 46 H -4.064902 -5.879354 2.353389 0
M  V30 47 H -4.209145 -7.404930 0.505385 0
M  V30 48 H -4.396808 -6.469776 -1.813874 0
M  V30 49 H -4.429072 -3.983807 -2.117038 0
M  V30 END ATOM
M  V30 BEGIN BOND
M  V30 1 1 1 2
M  V30 2 2 2 3
M  V30 3 1 3 4
M  V30 4 2 4 5
M  V30 5 1 5 6
M  V30 6 1 6 7
M  V30 7 2 7 8
M  V30 8 1 8 9
M  V30 9 1 9 10
M  V30 10 1 10 11
M  V30 11 1 11 12
M  V30 12 1 12 13
M  V30 13 1 13 14
M  V30 14 1 14 15
M  V30 15 1 9 16
M  V30 16 1 5 17
M  V30 17 2 17 18
M  V30 18 1 18 19
M  V30 19 1 19 20
M  V30 20 1 20 21
M  V30 21 2 21 22
M  V30 22 1 22 23
M  V30 23 2 23 24
M  V30 24 1 24 25
M  V30 25 2 25 26
M  V30 26 1 26 27
M  V30 27 1 18 2
M  V30 28 1 26 21
M  V30 29 2 16 6
M  V30 30 1 15 10
M  V30 31 1 1 28
M  V30 32 1 1 29
M  V30 33 1 4 30
M  V30 34 1 7 31
M  V30 35 1 10 32
M  V30 36 1 11 33
M  V30 37 1 11 34
M  V30 38 1 12 35
M  V30 39 1 12 36
M  V30 40 1 13 37
M  V30 41 1 14 38
M  V30 42 1 14 39
M  V30 43 1 15 40
M  V30 44 1 15 41
M  V30 45 1 16 42
M  V30 46 1 17 43
M  V30 47 1 20 44
M  V30 48 1 20 45
M  V30 49 1 22 46
M  V30 50 1 23 47
M  V30 51 1 24 48
M  V30 52 1 25 49
M  V30 END BOND
M  V30 END CTAB
M  END
>  <Dataset>  (481) 
ChEMBL_Kinases

>  <Ligand_Instance>  (481) 
nan

>  <PDB_ID>  (481) 
nan

>  <Standardized_SMILES>  (481) 
Nc1ncc(-c2cnn(C3CCNCC3)c2)cc1OCc1ccccc1Cl

>  <Name>  (481) 
nan

>  <Pocket>  (481) 
nan

>  <ATP_Site>  (481) 
nan

>  <Peripheral>  (481) 
nan

>  <Num_H_Atoms_ProtBoundConf>  (481) 
nan

>  <Num_Resolved_Atoms>  (481) 
nan

>  <Num_Not_Resolved_Atoms>  (481) 
nan

$$$$
CHEMBL4215541
     RDKit          3D

  0  0  0  0  0  0  0  0  0  0999 V3000
M  V30 BEGIN CTAB
M  V30 COUNTS 49 52 0 0 0
M  V30 BEGIN ATOM
M  V30 1 C -1.142608 -2.063570 4.890974 0
M  V30 2 N 0.152799 -1.848579 4.238801 0
M  V30 3 C 1.110920 -1.579592 5.294885 0
M  V30 4 C 0.566582 -3.031690 3.525769 0
M  V30 5 C 1.922738 -2.801751 2.844908 0
M  V30 6 N 1.732528 -1.682430 1.918989 0
M  V30 7 C 2.833908 -1.258524 1.155754 0
M  V30 8 O 3.928950 -1.860607 1.304766 0
M  V30 9 C 2.797483 -0.160276 0.194459 0
M  V30 10 C 3.963237 0.138014 -0.479937 0
M  V30 11 C 3.999162 1.177703 -1.414719 0
M  V30 12 C 2.851073 1.930225 -1.678548 0
M  V30 13 C 1.700395 1.599725 -0.980887 0
M  V30 14 C 0.444404 2.340509 -1.196328 0
M  V30 15 C 0.221884 3.701738 -1.289276 0
M  V30 16 N -1.097460 3.869535 -1.488400 0
M  V30 17 C -1.692617 2.683637 -1.522037 0
M  V30 18 C -3.030470 2.337011 -1.700948 0
M  V30 19 C -3.395546 1.006864 -1.694746 0
M  V30 20 C -2.393631 0.071860 -1.507566 0
M  V30 21 C -2.591386 -1.342923 -1.473315 0
M  V30 22 C -3.863185 -2.039934 -1.626971 0
M  V30 23 C -3.892584 -3.386903 -1.571296 0
M  V30 24 C -2.556945 -4.113216 -1.345034 0
M  V30 25 S -1.374698 -2.642029 -1.238833 0
M  V30 26 N -1.116798 0.456448 -1.339211 0
M  V30 27 N -0.754874 1.725838 -1.343161 0
M  V30 28 C 1.654785 0.571010 -0.052438 0
M  V30 29 H -1.806840 -1.186131 4.762816 0
M  V30 30 H -1.032265 -2.238055 5.985336 0
M  V30 31 H -1.615408 -2.965115 4.485294 0
M  V30 32 H 0.599619 -1.334310 6.252331 0
M  V30 33 H 1.730503 -2.474388 5.464189 0
M  V30 34 H 1.712770 -0.665002 5.056560 0
M  V30 35 H -0.226106 -3.222710 2.763266 0
M  V30 36 H 0.598141 -3.931472 4.153944 0
M  V30 37 H 2.639197 -2.567636 3.633241 0
M  V30 38 H 2.257074 -3.714589 2.343330 0
M  V30 39 H 0.812381 -1.190086 1.805826 0
M  V30 40 H 4.903551 -0.384935 -0.346678 0
M  V30 41 H 4.926735 1.407013 -1.944196 0
M  V30 42 H 2.855264 2.749448 -2.406626 0
M  V30 43 H 0.999880 4.453026 -1.209721 0
M  V30 44 H -3.810949 3.042973 -1.845763 0
M  V30 45 H -4.376084 0.586879 -1.818484 0
M  V30 46 H -4.729109 -1.423032 -1.780165 0
M  V30 47 H -4.821154 -3.916598 -1.682549 0
M  V30 48 H -2.740200 -5.278757 -1.319777 0
M  V30 49 H 0.737853 0.347933 0.467772 0
M  V30 END ATOM
M  V30 BEGIN BOND
M  V30 1 1 1 2
M  V30 2 1 2 3
M  V30 3 1 2 4
M  V30 4 1 4 5
M  V30 5 1 5 6
M  V30 6 1 6 7
M  V30 7 2 7 8
M  V30 8 1 7 9
M  V30 9 2 9 10
M  V30 10 1 10 11
M  V30 11 2 11 12
M  V30 12 1 12 13
M  V30 13 1 13 14
M  V30 14 2 14 15
M  V30 15 1 15 16
M  V30 16 2 16 17
M  V30 17 1 17 18
M  V30 18 2 18 19
M  V30 19 1 19 20
M  V30 20 1 20 21
M  V30 21 2 21 22
M  V30 22 1 22 23
M  V30 23 2 23 24
M  V30 24 1 24 25
M  V30 25 2 20 26
M  V30 26 1 26 27
M  V30 27 2 13 28
M  V30 28 1 28 9
M  V30 29 1 27 14
M  V30 30 1 27 17
M  V30 31 1 25 21
M  V30 32 1 1 29
M  V30 33 1 1 30
M  V30 34 1 1 31
M  V30 35 1 3 32
M  V30 36 1 3 33
M  V30 37 1 3 34
M  V30 38 1 4 35
M  V30 39 1 4 36
M  V30 40 1 5 37
M  V30 41 1 5 38
M  V30 42 1 6 39
M  V30 43 1 10 40
M  V30 44 1 11 41
M  V30 45 1 12 42
M  V30 46 1 15 43
M  V30 47 1 18 44
M  V30 48 1 19 45
M  V30 49 1 22 46
M  V30 50 1 23 47
M  V30 51 1 24 48
M  V30 52 1 28 49
M  V30 END BOND
M  V30 END CTAB
M  END
>  <Dataset>  (482) 
ChEMBL_Kinases

>  <Ligand_Instance>  (482) 
nan

>  <PDB_ID>  (482) 
nan

>  <Standardized_SMILES>  (482) 
CN(C)CCNC(=O)c1cccc(-c2cnc3ccc(-c4cccs4)nn23)c1

>  <Name>  (482) 
nan

>  <Pocket>  (482) 
nan

>  <ATP_Site>  (482) 
nan

>  <Peripheral>  (482) 
nan

>  <Num_H_Atoms_ProtBoundConf>  (482) 
nan

>  <Num_Resolved_Atoms>  (482) 
nan

>  <Num_Not_Resolved_Atoms>  (482) 
nan

$$$$
CHEMBL4215492
     RDKit          3D

  0  0  0  0  0  0  0  0  0  0999 V3000
M  V30 BEGIN CTAB
M  V30 COUNTS 44 49 0 0 0
M  V30 BEGIN ATOM
M  V30 1 C -0.236947 -3.695632 2.964550 0
M  V30 2 C 0.276447 -2.984140 1.884277 0
M  V30 3 C -0.190827 -3.195392 0.583098 0
M  V30 4 C 0.411321 -2.403187 -0.464262 0
M  V30 5 C 0.843209 -2.843807 -1.694505 0
M  V30 6 C 1.408671 -2.000574 -2.631363 0
M  V30 7 C 1.562411 -0.647371 -2.352711 0
M  V30 8 N 2.065034 0.388850 -3.049359 0
M  V30 9 C 1.961635 1.496168 -2.279398 0
M  V30 10 N 1.388047 1.122087 -1.100729 0
M  V30 11 C 1.128451 2.048580 -0.047206 0
M  V30 12 C 0.351303 3.179504 -0.213728 0
M  V30 13 C 0.162430 4.014954 0.879014 0
M  V30 14 C 0.768812 3.657968 2.071093 0
M  V30 15 C 1.546373 2.528933 2.242760 0
M  V30 16 C 1.729707 1.701301 1.148329 0
M  V30 17 C 2.025422 2.486840 3.669548 0
M  V30 18 N 0.930062 3.234410 4.305421 0
M  V30 19 C 0.735202 4.363648 3.391562 0
M  V30 20 C 1.125833 -0.218643 -1.117010 0
M  V30 21 C 0.557791 -1.041804 -0.164553 0
M  V30 22 C -1.180310 -4.147544 0.470810 0
M  V30 23 C -1.814503 -4.550465 -0.686110 0
M  V30 24 C -2.716491 -5.512539 -0.295439 0
M  V30 25 N -2.595969 -5.650813 1.048941 0
M  V30 26 C -1.660665 -4.830015 1.569333 0
M  V30 27 N -1.202050 -4.614329 2.802623 0
M  V30 28 H 0.122980 -3.534423 3.974748 0
M  V30 29 H 1.056762 -2.268901 2.159438 0
M  V30 30 H 0.715213 -3.900494 -1.893030 0
M  V30 31 H 1.725486 -2.421433 -3.580148 0
M  V30 32 H 2.292172 2.467567 -2.599910 0
M  V30 33 H -0.088967 3.386846 -1.184087 0
M  V30 34 H -0.439800 4.906274 0.780155 0
M  V30 35 H 2.337148 0.823863 1.291759 0
M  V30 36 H 2.013961 1.485978 4.095880 0
M  V30 37 H 2.941045 3.072865 3.796034 0
M  V30 38 H 0.041097 2.670061 4.261219 0
M  V30 39 H 1.538574 5.114313 3.478045 0
M  V30 40 H -0.230735 4.860796 3.593382 0
M  V30 41 H 0.240343 -0.612528 0.789702 0
M  V30 42 H -1.656677 -4.202681 -1.693281 0
M  V30 43 H -3.401851 -6.067608 -0.919392 0
M  V30 44 H -3.189263 -6.338302 1.592090 0
M  V30 END ATOM
M  V30 BEGIN BOND
M  V30 1 2 1 2
M  V30 2 1 2 3
M  V30 3 1 3 4
M  V30 4 2 4 5
M  V30 5 1 5 6
M  V30 6 2 6 7
M  V30 7 1 7 8
M  V30 8 2 8 9
M  V30 9 1 9 10
M  V30 10 1 10 11
M  V30 11 2 11 12
M  V30 12 1 12 13
M  V30 13 2 13 14
M  V30 14 1 14 15
M  V30 15 2 15 16
M  V30 16 1 15 17
M  V30 17 1 17 18
M  V30 18 1 18 19
M  V30 19 1 10 20
M  V30 20 2 20 21
M  V30 21 2 3 22
M  V30 22 1 22 23
M  V30 23 2 23 24
M  V30 24 1 24 25
M  V30 25 1 25 26
M  V30 26 2 26 27
M  V30 27 1 27 1
M  V30 28 1 21 4
M  V30 29 1 26 22
M  V30 30 1 20 7
M  V30 31 1 16 11
M  V30 32 1 19 14
M  V30 33 1 1 28
M  V30 34 1 2 29
M  V30 35 1 5 30
M  V30 36 1 6 31
M  V30 37 1 9 32
M  V30 38 1 12 33
M  V30 39 1 13 34
M  V30 40 1 16 35
M  V30 41 1 17 36
M  V30 42 1 17 37
M  V30 43 1 18 38
M  V30 44 1 19 39
M  V30 45 1 19 40
M  V30 46 1 21 41
M  V30 47 1 23 42
M  V30 48 1 24 43
M  V30 49 1 25 44
M  V30 END BOND
M  V30 END CTAB
M  END
>  <Dataset>  (483) 
ChEMBL_Kinases

>  <Ligand_Instance>  (483) 
nan

>  <PDB_ID>  (483) 
nan

>  <Standardized_SMILES>  (483) 
c1cc(-c2ccc3ncn(-c4ccc5c(c4)CNC5)c3c2)c2cc[nH]c2n1

>  <Name>  (483) 
nan

>  <Pocket>  (483) 
nan

>  <ATP_Site>  (483) 
nan

>  <Peripheral>  (483) 
nan

>  <Num_H_Atoms_ProtBoundConf>  (483) 
nan

>  <Num_Resolved_Atoms>  (483) 
nan

>  <Num_Not_Resolved_Atoms>  (483) 
nan

$$$$
CHEMBL4215454
     RDKit          3D

  0  0  0  0  0  0  0  0  0  0999 V3000
M  V30 BEGIN CTAB
M  V30 COUNTS 46 49 0 0 0
M  V30 BEGIN ATOM
M  V30 1 C -0.154591 -5.895890 5.943821 0
M  V30 2 N 0.179583 -4.638257 5.301849 0
M  V30 3 C 0.272773 -3.472364 6.172322 0
M  V30 4 C 0.725534 -2.333382 5.249573 0
M  V30 5 C 0.108802 -2.769836 3.955725 0 CFG=1
M  V30 6 O -1.277321 -2.660629 4.023209 0
M  V30 7 C 0.680530 -2.139864 2.788479 0
M  V30 8 C 1.142535 -1.600202 1.812049 0
M  V30 9 C 1.677233 -0.937893 0.634524 0
M  V30 10 C 2.905736 -1.320875 0.083743 0
M  V30 11 C 3.343705 -0.633547 -1.044594 0
M  V30 12 N 2.644280 0.365064 -1.614022 0
M  V30 13 C 1.445989 0.742639 -1.081327 0
M  V30 14 N 0.600764 1.779279 -1.576983 0
M  V30 15 N 0.547426 3.015713 -1.100267 0
M  V30 16 C -0.347682 3.749040 -1.783286 0
M  V30 17 C -0.721157 5.154920 -1.591148 0
M  V30 18 N -0.052666 5.862219 -0.536713 0
M  V30 19 O -1.591268 5.678901 -2.336985 0
M  V30 20 C -0.886059 2.899317 -2.754051 0
M  V30 21 C -0.270548 1.674640 -2.596901 0
M  V30 22 C -0.566904 0.488711 -3.442834 0
M  V30 23 C -1.113162 0.676834 -4.814512 0
M  V30 24 C -2.027634 0.252448 -3.736207 0
M  V30 25 C 0.964112 0.091175 0.041610 0
M  V30 26 C 0.458499 -4.222565 3.949795 0
M  V30 27 O 0.892232 -5.108710 3.158811 0
M  V30 28 H 0.561504 -6.128373 6.748638 0
M  V30 29 H -1.208540 -5.899567 6.284750 0
M  V30 30 H -0.072033 -6.753133 5.216701 0
M  V30 31 H 0.967566 -3.613070 7.003328 0
M  V30 32 H -0.733667 -3.172425 6.547876 0
M  V30 33 H 1.836093 -2.410600 5.166326 0
M  V30 34 H 0.372136 -1.359847 5.615983 0
M  V30 35 H -1.685738 -2.735385 3.126912 0
M  V30 36 H 3.460988 -2.124647 0.548244 0
M  V30 37 H 4.295381 -0.913957 -1.489639 0
M  V30 38 H -0.090035 5.598753 0.487178 0
M  V30 39 H 0.574110 6.705355 -0.418349 0
M  V30 40 H -1.646725 3.230514 -3.461137 0
M  V30 41 H -0.016228 -0.450773 -3.234552 0
M  V30 42 H -0.893490 -0.050696 -5.605987 0
M  V30 43 H -1.206696 1.728309 -5.207387 0
M  V30 44 H -2.453425 -0.774171 -3.688037 0
M  V30 45 H -2.761629 1.028547 -3.371249 0
M  V30 46 H 0.007982 0.351810 0.512626 0
M  V30 END ATOM
M  V30 BEGIN BOND
M  V30 1 1 1 2
M  V30 2 1 2 3
M  V30 3 1 3 4
M  V30 4 1 4 5
M  V30 5 1 5 6
M  V30 6 1 5 7 CFG=3
M  V30 7 3 7 8
M  V30 8 1 8 9
M  V30 9 2 9 10
M  V30 10 1 10 11
M  V30 11 2 11 12
M  V30 12 1 12 13
M  V30 13 1 13 14
M  V30 14 1 14 15
M  V30 15 2 15 16
M  V30 16 1 16 17
M  V30 17 1 17 18
M  V30 18 2 17 19
M  V30 19 1 16 20
M  V30 20 2 20 21
M  V30 21 1 21 22
M  V30 22 1 22 23
M  V30 23 1 23 24
M  V30 24 2 13 25
M  V30 25 1 5 26
M  V30 26 2 26 27
M  V30 27 1 26 2
M  V30 28 1 25 9
M  V30 29 1 21 14
M  V30 30 1 24 22
M  V30 31 1 1 28
M  V30 32 1 1 29
M  V30 33 1 1 30
M  V30 34 1 3 31
M  V30 35 1 3 32
M  V30 36 1 4 33
M  V30 37 1 4 34
M  V30 38 1 6 35
M  V30 39 1 10 36
M  V30 40 1 11 37
M  V30 41 1 18 38
M  V30 42 1 18 39
M  V30 43 1 20 40
M  V30 44 1 22 41
M  V30 45 1 23 42
M  V30 46 1 23 43
M  V30 47 1 24 44
M  V30 48 1 24 45
M  V30 49 1 25 46
M  V30 END BOND
M  V30 END CTAB
M  END
>  <Dataset>  (484) 
ChEMBL_Kinases

>  <Ligand_Instance>  (484) 
nan

>  <PDB_ID>  (484) 
nan

>  <Standardized_SMILES>  (484) 
CN1CC[C@@](O)(C#Cc2ccnc(-n3nc(C(N)=O)cc3C3CC3)c2)C1=O

>  <Name>  (484) 
nan

>  <Pocket>  (484) 
nan

>  <ATP_Site>  (484) 
nan

>  <Peripheral>  (484) 
nan

>  <Num_H_Atoms_ProtBoundConf>  (484) 
nan

>  <Num_Resolved_Atoms>  (484) 
nan

>  <Num_Not_Resolved_Atoms>  (484) 
nan

$$$$
CHEMBL4215449
     RDKit          3D

  0  0  0  0  0  0  0  0  0  0999 V3000
M  V30 BEGIN CTAB
M  V30 COUNTS 31 33 0 0 0
M  V30 BEGIN ATOM
M  V30 1 C -1.049108 -3.012301 2.549157 0
M  V30 2 C -0.236371 -3.632493 1.432179 0
M  V30 3 C -0.796874 -4.931814 0.963243 0
M  V30 4 N 1.148236 -3.811157 1.898839 0
M  V30 5 C 1.780806 -2.566449 2.159272 0
M  V30 6 O 2.725227 -2.368427 2.966217 0
M  V30 7 C 1.314552 -1.379613 1.437317 0
M  V30 8 S 1.831957 0.406119 1.459979 0
M  V30 9 C 0.671169 0.923760 0.276957 0
M  V30 10 C 0.484417 2.333002 -0.244796 0
M  V30 11 C -0.459639 2.632501 -1.176522 0
M  V30 12 C -0.541350 3.950424 -1.580106 0
M  V30 13 N 0.286407 4.875321 -1.059978 0
M  V30 14 C 1.222600 4.585268 -0.137745 0
M  V30 15 C 1.334029 3.278066 0.290128 0
M  V30 16 C -0.024939 -0.149699 -0.086243 0
M  V30 17 C 0.264786 -1.361772 0.480194 0
M  V30 18 N -0.276678 -2.670341 0.318422 0
M  V30 19 H -2.122810 -3.090772 2.318782 0
M  V30 20 H -0.763073 -3.391713 3.546992 0
M  V30 21 H -0.817783 -1.926475 2.552918 0
M  V30 22 H -1.365410 -5.488656 1.734298 0
M  V30 23 H -1.362589 -4.845999 0.013203 0
M  V30 24 H 0.080717 -5.594575 0.718167 0
M  V30 25 H 1.760489 -4.659435 2.077762 0
M  V30 26 H -1.087060 1.832275 -1.545950 0
M  V30 27 H -1.290901 4.206972 -2.324526 0
M  V30 28 H 1.895400 5.317321 0.289912 0
M  V30 29 H 2.080883 3.036289 1.028404 0
M  V30 30 H -0.819037 -0.065750 -0.829823 0
M  V30 31 H -0.713414 -2.954190 -0.611189 0
M  V30 END ATOM
M  V30 BEGIN BOND
M  V30 1 1 1 2
M  V30 2 1 2 3
M  V30 3 1 2 4
M  V30 4 1 4 5
M  V30 5 2 5 6
M  V30 6 1 5 7
M  V30 7 1 7 8
M  V30 8 1 8 9
M  V30 9 1 9 10
M  V30 10 2 10 11
M  V30 11 1 11 12
M  V30 12 2 12 13
M  V30 13 1 13 14
M  V30 14 2 14 15
M  V30 15 2 9 16
M  V30 16 1 16 17
M  V30 17 1 17 18
M  V30 18 1 18 2
M  V30 19 2 17 7
M  V30 20 1 15 10
M  V30 21 1 1 19
M  V30 22 1 1 20
M  V30 23 1 1 21
M  V30 24 1 3 22
M  V30 25 1 3 23
M  V30 26 1 3 24
M  V30 27 1 4 25
M  V30 28 1 11 26
M  V30 29 1 12 27
M  V30 30 1 14 28
M  V30 31 1 15 29
M  V30 32 1 16 30
M  V30 33 1 18 31
M  V30 END BOND
M  V30 END CTAB
M  END
>  <Dataset>  (485) 
ChEMBL_Kinases

>  <Ligand_Instance>  (485) 
nan

>  <PDB_ID>  (485) 
nan

>  <Standardized_SMILES>  (485) 
CC1(C)NC(=O)c2sc(-c3ccncc3)cc2N1

>  <Name>  (485) 
nan

>  <Pocket>  (485) 
nan

>  <ATP_Site>  (485) 
nan

>  <Peripheral>  (485) 
nan

>  <Num_H_Atoms_ProtBoundConf>  (485) 
nan

>  <Num_Resolved_Atoms>  (485) 
nan

>  <Num_Not_Resolved_Atoms>  (485) 
nan

$$$$
CHEMBL4215437
     RDKit          3D

  0  0  0  0  0  0  0  0  0  0999 V3000
M  V30 BEGIN CTAB
M  V30 COUNTS 30 32 0 0 0
M  V30 BEGIN ATOM
M  V30 1 O 0.236771 -3.313464 0.568244 0
M  V30 2 C 1.170446 -2.518681 0.772874 0
M  V30 3 N 2.552925 -2.732404 1.029073 0
M  V30 4 C 3.132112 -1.443074 1.182801 0
M  V30 5 C 4.460338 -1.153781 1.445591 0
M  V30 6 C 4.908170 0.142517 1.574524 0
M  V30 7 C 3.982444 1.143543 1.431828 0
M  V30 8 Cl 4.488239 2.807346 1.584168 0
M  V30 9 C 2.677502 0.861992 1.173740 0
M  V30 10 C 2.203665 -0.436649 1.039773 0
M  V30 11 C 0.898717 -1.082518 0.769425 0
M  V30 12 N -0.109528 -0.317609 0.603114 0
M  V30 13 N -1.416357 -0.742534 0.339925 0
M  V30 14 C -1.998136 -0.241999 -0.917173 0
M  V30 15 C -3.447748 0.135251 -0.597766 0
M  V30 16 O -3.622203 0.412852 0.742181 0
M  V30 17 C -3.395313 -0.630843 1.602648 0
M  V30 18 C -2.360900 -1.601001 1.060986 0
M  V30 19 H 3.006932 -3.670206 1.084015 0
M  V30 20 H 5.209313 -1.927010 1.562289 0
M  V30 21 H 5.943895 0.383688 1.779972 0
M  V30 22 H 1.962341 1.660436 1.064351 0
M  V30 23 H -2.065088 -1.030226 -1.688152 0
M  V30 24 H -1.487551 0.648625 -1.296158 0
M  V30 25 H -4.164825 -0.632474 -0.953320 0
M  V30 26 H -3.713224 1.062288 -1.148191 0
M  V30 27 H -2.911663 -0.186251 2.522461 0
M  V30 28 H -4.311316 -1.142645 1.948224 0
M  V30 29 H -2.786078 -2.370653 0.399942 0
M  V30 30 H -1.841005 -2.101658 1.901517 0
M  V30 END ATOM
M  V30 BEGIN BOND
M  V30 1 2 1 2
M  V30 2 1 2 3
M  V30 3 1 3 4
M  V30 4 2 4 5
M  V30 5 1 5 6
M  V30 6 2 6 7
M  V30 7 1 7 8
M  V30 8 1 7 9
M  V30 9 2 9 10
M  V30 10 1 10 11
M  V30 11 2 11 12 CFG=2
M  V30 12 1 12 13
M  V30 13 1 13 14
M  V30 14 1 14 15
M  V30 15 1 15 16
M  V30 16 1 16 17
M  V30 17 1 17 18
M  V30 18 1 11 2
M  V30 19 1 18 13
M  V30 20 1 10 4
M  V30 21 1 3 19
M  V30 22 1 5 20
M  V30 23 1 6 21
M  V30 24 1 9 22
M  V30 25 1 14 23
M  V30 26 1 14 24
M  V30 27 1 15 25
M  V30 28 1 15 26
M  V30 29 1 17 27
M  V30 30 1 17 28
M  V30 31 1 18 29
M  V30 32 1 18 30
M  V30 END BOND
M  V30 END CTAB
M  END
>  <Dataset>  (486) 
ChEMBL_Kinases

>  <Ligand_Instance>  (486) 
nan

>  <PDB_ID>  (486) 
nan

>  <Standardized_SMILES>  (486) 
O=C1Nc2ccc(Cl)cc2C1=NN1CCOCC1

>  <Name>  (486) 
nan

>  <Pocket>  (486) 
nan

>  <ATP_Site>  (486) 
nan

>  <Peripheral>  (486) 
nan

>  <Num_H_Atoms_ProtBoundConf>  (486) 
nan

>  <Num_Resolved_Atoms>  (486) 
nan

>  <Num_Not_Resolved_Atoms>  (486) 
nan

$$$$
CHEMBL4215433
     RDKit          3D

  0  0  0  0  0  0  0  0  0  0999 V3000
M  V30 BEGIN CTAB
M  V30 COUNTS 55 59 0 0 0
M  V30 BEGIN ATOM
M  V30 1 O -0.997005 -2.841204 2.727895 0
M  V30 2 C 0.137457 -3.330629 2.396448 0
M  V30 3 C 1.223265 -3.275855 3.446906 0
M  V30 4 S 1.762453 -1.539259 3.412130 0
M  V30 5 C 2.569080 -1.120164 1.875845 0
M  V30 6 N 2.777171 -2.018112 0.909056 0
M  V30 7 C 3.387110 -1.678795 -0.242861 0
M  V30 8 C 3.782885 -0.371921 -0.375820 0
M  V30 9 C 3.553394 0.510831 0.630063 0
M  V30 10 O 3.984087 1.673608 0.342317 0
M  V30 11 N 2.936741 0.197007 1.809539 0
M  V30 12 C 2.756987 1.256525 2.773768 0
M  V30 13 C 1.501448 2.008127 2.649900 0
M  V30 14 C 1.374535 3.091035 1.808297 0
M  V30 15 C 0.217372 3.826323 1.657931 0
M  V30 16 C -0.915485 3.496637 2.375252 0
M  V30 17 C -2.207000 4.234730 2.268830 0
M  V30 18 F -3.223278 3.325141 1.964149 0
M  V30 19 F -2.493928 4.843403 3.474101 0
M  V30 20 F -2.180752 5.193447 1.288068 0
M  V30 21 C -0.852131 2.422815 3.235263 0
M  V30 22 C 0.331104 1.723393 3.345717 0
M  V30 23 S 4.519731 -0.334497 -1.998126 0
M  V30 24 C 4.387975 -2.077891 -2.425116 0
M  V30 25 C 3.615049 -2.677436 -1.301301 0
M  V30 26 N 0.200049 -3.845378 1.099454 0
M  V30 27 C -1.035270 -3.701126 0.405411 0
M  V30 28 N -2.095232 -4.014962 0.084732 0
M  V30 29 C -2.958047 -3.438122 -0.707025 0
M  V30 30 C -4.235202 -3.900427 -1.037462 0
M  V30 31 C -5.011389 -3.157800 -1.889701 0
M  V30 32 C -4.646959 -1.963769 -2.471729 0
M  V30 33 C -5.503303 -1.175492 -3.389095 0
M  V30 34 F -6.767811 -1.080498 -2.810852 0
M  V30 35 F -5.005937 0.116835 -3.532154 0
M  V30 36 F -5.649936 -1.724921 -4.622748 0
M  V30 37 C -3.380528 -1.508908 -2.142400 0
M  V30 38 C -2.574678 -2.276186 -1.259819 0
M  V30 39 S -0.982209 -2.076829 -0.603623 0
M  V30 40 H 2.062617 -3.926389 3.085645 0
M  V30 41 H 0.866120 -3.506675 4.446387 0
M  V30 42 H 2.777002 0.860861 3.830221 0
M  V30 43 H 3.601087 1.961370 2.653582 0
M  V30 44 H 2.155922 3.467414 1.198504 0
M  V30 45 H 0.092566 4.682468 1.000506 0
M  V30 46 H -1.734957 2.157512 3.801651 0
M  V30 47 H 0.295405 0.913219 4.038474 0
M  V30 48 H 5.399265 -2.524532 -2.554186 0
M  V30 49 H 3.812301 -2.116309 -3.389373 0
M  V30 50 H 2.662313 -3.091851 -1.701344 0
M  V30 51 H 4.247624 -3.491845 -0.880024 0
M  V30 52 H 1.112799 -4.257659 0.815813 0
M  V30 53 H -4.718833 -4.808497 -0.694336 0
M  V30 54 H -6.027101 -3.468217 -2.187884 0
M  V30 55 H -2.960862 -0.581481 -2.527625 0
M  V30 END ATOM
M  V30 BEGIN BOND
M  V30 1 2 1 2
M  V30 2 1 2 3
M  V30 3 1 3 4
M  V30 4 1 4 5
M  V30 5 2 5 6
M  V30 6 1 6 7
M  V30 7 2 7 8
M  V30 8 1 8 9
M  V30 9 2 9 10
M  V30 10 1 9 11
M  V30 11 1 11 12
M  V30 12 1 12 13
M  V30 13 2 13 14
M  V30 14 1 14 15
M  V30 15 2 15 16
M  V30 16 1 16 17
M  V30 17 1 17 18
M  V30 18 1 17 19
M  V30 19 1 17 20
M  V30 20 1 16 21
M  V30 21 2 21 22
M  V30 22 1 8 23
M  V30 23 1 23 24
M  V30 24 1 24 25
M  V30 25 1 2 26
M  V30 26 1 26 27
M  V30 27 2 27 28
M  V30 28 1 28 29
M  V30 29 2 29 30
M  V30 30 1 30 31
M  V30 31 2 31 32
M  V30 32 1 32 33
M  V30 33 1 33 34
M  V30 34 1 33 35
M  V30 35 1 33 36
M  V30 36 1 32 37
M  V30 37 2 37 38
M  V30 38 1 38 39
M  V30 39 1 11 5
M  V30 40 1 22 13
M  V30 41 1 39 27
M  V30 42 1 25 7
M  V30 43 1 38 29
M  V30 44 1 3 40
M  V30 45 1 3 41
M  V30 46 1 12 42
M  V30 47 1 12 43
M  V30 48 1 14 44
M  V30 49 1 15 45
M  V30 50 1 21 46
M  V30 51 1 22 47
M  V30 52 1 24 48
M  V30 53 1 24 49
M  V30 54 1 25 50
M  V30 55 1 25 51
M  V30 56 1 26 52
M  V30 57 1 30 53
M  V30 58 1 31 54
M  V30 59 1 37 55
M  V30 END BOND
M  V30 END CTAB
M  END
>  <Dataset>  (487) 
ChEMBL_Kinases

>  <Ligand_Instance>  (487) 
nan

>  <PDB_ID>  (487) 
nan

>  <Standardized_SMILES>  (487) 
O=C(CSc1nc2c(c(=O)n1Cc1ccc(C(F)(F)F)cc1)SCC2)Nc1nc2ccc(C(F)(F)F)cc2s1

>  <Name>  (487) 
nan

>  <Pocket>  (487) 
nan

>  <ATP_Site>  (487) 
nan

>  <Peripheral>  (487) 
nan

>  <Num_H_Atoms_ProtBoundConf>  (487) 
nan

>  <Num_Resolved_Atoms>  (487) 
nan

>  <Num_Not_Resolved_Atoms>  (487) 
nan

$$$$
CHEMBL4778859
     RDKit          3D

  0  0  0  0  0  0  0  0  0  0999 V3000
M  V30 BEGIN CTAB
M  V30 COUNTS 49 52 0 0 0
M  V30 BEGIN ATOM
M  V30 1 N -1.723283 -5.875197 1.688119 0
M  V30 2 C -1.137721 -4.600175 1.460847 0
M  V30 3 N 0.175130 -4.448697 1.720371 0
M  V30 4 C 0.765190 -3.236831 1.512858 0
M  V30 5 C -0.073878 -2.248038 1.039374 0
M  V30 6 C 0.571358 -0.954010 0.821599 0
M  V30 7 C 1.897614 -0.910066 0.438870 0
M  V30 8 C 2.538046 0.291199 0.225290 0
M  V30 9 C 1.900164 1.502990 0.379537 0
M  V30 10 C 2.380754 2.892220 0.217646 0
M  V30 11 C 1.321099 3.584570 -0.598837 0
M  V30 12 O 0.555575 4.578830 -0.429724 0
M  V30 13 O 1.042260 3.083660 -1.862565 0
M  V30 14 C 2.608009 3.592992 1.511626 0
M  V30 15 C 3.966174 3.055191 1.922305 0
M  V30 16 C 4.727550 2.909676 0.624136 0
M  V30 17 C 3.705878 2.943147 -0.473964 0
M  V30 18 C 0.555167 1.428040 0.768277 0
M  V30 19 C -0.106392 0.237201 0.987572 0
M  V30 20 C -1.419742 -2.393458 0.770552 0
M  V30 21 C -1.995965 -3.629086 0.987880 0
M  V30 22 C -3.400602 -3.884683 0.736712 0
M  V30 23 C -4.226552 -2.897342 1.211523 0
M  V30 24 C -5.602435 -2.988620 1.052470 0
M  V30 25 C -6.108745 -4.100927 0.403684 0
M  V30 26 Cl -7.834654 -4.340999 0.135474 0
M  V30 27 C -5.271144 -5.088729 -0.070449 0
M  V30 28 C -3.892755 -5.010296 0.081752 0
M  V30 29 H -1.888463 -6.818295 2.035435 0
M  V30 30 H -1.249648 -6.568408 2.339881 0
M  V30 31 H 1.808121 -3.074886 1.707194 0
M  V30 32 H 2.507597 -1.791225 0.285061 0
M  V30 33 H 3.567176 0.398215 -0.077616 0
M  V30 34 H 0.930745 3.674406 -2.699294 0
M  V30 35 H 1.837758 3.430430 2.275705 0
M  V30 36 H 2.732307 4.665458 1.295622 0
M  V30 37 H 4.481217 3.822249 2.549381 0
M  V30 38 H 3.845047 2.120521 2.479396 0
M  V30 39 H 5.493435 3.714414 0.509051 0
M  V30 40 H 5.234596 1.915306 0.618947 0
M  V30 41 H 3.839802 2.097375 -1.190901 0
M  V30 42 H 3.839438 3.904069 -1.027483 0
M  V30 43 H -0.071071 2.294496 0.927418 0
M  V30 44 H -1.143189 0.182034 1.287268 0
M  V30 45 H -2.007179 -1.574444 0.402943 0
M  V30 46 H -3.915981 -2.004210 1.725040 0
M  V30 47 H -6.342689 -2.274325 1.384623 0
M  V30 48 H -5.641875 -5.967963 -0.580914 0
M  V30 49 H -3.180348 -5.745228 -0.264091 0
M  V30 END ATOM
M  V30 BEGIN BOND
M  V30 1 1 1 2
M  V30 2 2 2 3
M  V30 3 1 3 4
M  V30 4 2 4 5
M  V30 5 1 5 6
M  V30 6 2 6 7
M  V30 7 1 7 8
M  V30 8 2 8 9
M  V30 9 1 9 10
M  V30 10 1 10 11
M  V30 11 2 11 12
M  V30 12 1 11 13
M  V30 13 1 10 14
M  V30 14 1 14 15
M  V30 15 1 15 16
M  V30 16 1 16 17
M  V30 17 1 9 18
M  V30 18 2 18 19
M  V30 19 1 5 20
M  V30 20 2 20 21
M  V30 21 1 21 22
M  V30 22 2 22 23
M  V30 23 1 23 24
M  V30 24 2 24 25
M  V30 25 1 25 26
M  V30 26 1 25 27
M  V30 27 2 27 28
M  V30 28 1 21 2
M  V30 29 1 28 22
M  V30 30 1 19 6
M  V30 31 1 17 10
M  V30 32 1 1 29
M  V30 33 1 1 30
M  V30 34 1 4 31
M  V30 35 1 7 32
M  V30 36 1 8 33
M  V30 37 1 13 34
M  V30 38 1 14 35
M  V30 39 1 14 36
M  V30 40 1 15 37
M  V30 41 1 15 38
M  V30 42 1 16 39
M  V30 43 1 16 40
M  V30 44 1 17 41
M  V30 45 1 17 42
M  V30 46 1 18 43
M  V30 47 1 19 44
M  V30 48 1 20 45
M  V30 49 1 23 46
M  V30 50 1 24 47
M  V30 51 1 27 48
M  V30 52 1 28 49
M  V30 END BOND
M  V30 END CTAB
M  END
>  <Dataset>  (488) 
ChEMBL_Kinases

>  <Ligand_Instance>  (488) 
nan

>  <PDB_ID>  (488) 
nan

>  <Standardized_SMILES>  (488) 
Nc1ncc(-c2ccc(C3(C(=O)O)CCCC3)cc2)cc1-c1ccc(Cl)cc1

>  <Name>  (488) 
nan

>  <Pocket>  (488) 
nan

>  <ATP_Site>  (488) 
nan

>  <Peripheral>  (488) 
nan

>  <Num_H_Atoms_ProtBoundConf>  (488) 
nan

>  <Num_Resolved_Atoms>  (488) 
nan

>  <Num_Not_Resolved_Atoms>  (488) 
nan

$$$$
CHEMBL4215425
     RDKit          3D

  0  0  0  0  0  0  0  0  0  0999 V3000
M  V30 BEGIN CTAB
M  V30 COUNTS 48 51 0 0 0
M  V30 BEGIN ATOM
M  V30 1 C 3.115583 -4.170465 2.419470 0
M  V30 2 N 4.102603 -3.300897 1.808093 0
M  V30 3 C 4.456551 -3.432374 0.396111 0
M  V30 4 C 5.409354 -2.290735 0.115652 0
M  V30 5 C 5.197035 -1.331353 1.265262 0 CFG=1
M  V30 6 O 6.322310 -0.617570 1.611087 0
M  V30 7 C 4.088492 -0.409587 0.980908 0
M  V30 8 C 3.164095 0.339844 0.756929 0
M  V30 9 C 2.052819 1.212991 0.477994 0
M  V30 10 C 2.245667 2.548079 0.184885 0
M  V30 11 C 1.107685 3.287079 -0.065116 0
M  V30 12 C -0.181507 2.754274 -0.033608 0
M  V30 13 C -0.315846 1.413746 0.264876 0
M  V30 14 C -1.685714 0.888063 0.289061 0
M  V30 15 C -1.987947 -0.429027 0.570348 0
M  V30 16 C -3.259620 -0.942405 0.598648 0
M  V30 17 C -3.557819 -2.244588 0.876810 0
M  V30 18 C -4.881238 -2.642749 0.875002 0
M  V30 19 C -5.937951 -1.768109 0.599563 0
M  V30 20 C -5.619609 -0.452098 0.319643 0
M  V30 21 C -4.305050 -0.083904 0.327712 0
M  V30 22 C -3.968302 1.224116 0.050941 0
M  V30 23 C -4.934625 2.269780 -0.257435 0
M  V30 24 N -6.298297 2.568429 -0.422245 0
M  V30 25 O -4.762082 3.488089 -0.525121 0
M  V30 26 N -2.700991 1.719362 0.026501 0
M  V30 27 C 0.808802 0.663238 0.516578 0
M  V30 28 C 4.854699 -2.241650 2.409432 0
M  V30 29 O 5.086357 -2.236015 3.656453 0
M  V30 30 H 2.537117 -3.642579 3.211927 0
M  V30 31 H 2.358706 -4.498340 1.680645 0
M  V30 32 H 3.570670 -5.087738 2.845322 0
M  V30 33 H 4.921208 -4.408299 0.228672 0
M  V30 34 H 3.528605 -3.324410 -0.216783 0
M  V30 35 H 5.217904 -1.864346 -0.874460 0
M  V30 36 H 6.447182 -2.683174 0.234965 0
M  V30 37 H 7.049127 -1.277546 1.794385 0
M  V30 38 H 3.234149 2.978158 0.155776 0
M  V30 39 H 1.219407 4.337520 -0.298559 0
M  V30 40 H -1.011103 3.406075 -0.241835 0
M  V30 41 H -1.205963 -1.131921 0.786961 0
M  V30 42 H -2.747732 -2.926047 1.090481 0
M  V30 43 H -5.063407 -3.699928 1.105054 0
M  V30 44 H -6.964359 -2.139819 0.612614 0
M  V30 45 H -6.393124 0.261395 0.101192 0
M  V30 46 H -7.123695 2.566293 0.212738 0
M  V30 47 H -7.112714 2.561004 0.225652 0
M  V30 48 H 0.666592 -0.377076 0.745541 0
M  V30 END ATOM
M  V30 BEGIN BOND
M  V30 1 1 1 2
M  V30 2 1 2 3
M  V30 3 1 3 4
M  V30 4 1 4 5
M  V30 5 1 5 6
M  V30 6 1 5 7 CFG=3
M  V30 7 3 7 8
M  V30 8 1 8 9
M  V30 9 2 9 10
M  V30 10 1 10 11
M  V30 11 2 11 12
M  V30 12 1 12 13
M  V30 13 1 13 14
M  V30 14 2 14 15
M  V30 15 1 15 16
M  V30 16 2 16 17
M  V30 17 1 17 18
M  V30 18 2 18 19
M  V30 19 1 19 20
M  V30 20 2 20 21
M  V30 21 1 21 22
M  V30 22 1 22 23
M  V30 23 1 23 24
M  V30 24 2 23 25
M  V30 25 2 22 26
M  V30 26 2 13 27
M  V30 27 1 5 28
M  V30 28 2 28 29
M  V30 29 1 28 2
M  V30 30 1 27 9
M  V30 31 1 26 14
M  V30 32 1 21 16
M  V30 33 1 1 30
M  V30 34 1 1 31
M  V30 35 1 1 32
M  V30 36 1 3 33
M  V30 37 1 3 34
M  V30 38 1 4 35
M  V30 39 1 4 36
M  V30 40 1 6 37
M  V30 41 1 10 38
M  V30 42 1 11 39
M  V30 43 1 12 40
M  V30 44 1 15 41
M  V30 45 1 17 42
M  V30 46 1 18 43
M  V30 47 1 19 44
M  V30 48 1 20 45
M  V30 49 1 24 46
M  V30 50 1 24 47
M  V30 51 1 27 48
M  V30 END BOND
M  V30 END CTAB
M  END
>  <Dataset>  (489) 
ChEMBL_Kinases

>  <Ligand_Instance>  (489) 
nan

>  <PDB_ID>  (489) 
nan

>  <Standardized_SMILES>  (489) 
CN1CC[C@@](O)(C#Cc2cccc(-c3cc4ccccc4c(C(N)=O)n3)c2)C1=O

>  <Name>  (489) 
nan

>  <Pocket>  (489) 
nan

>  <ATP_Site>  (489) 
nan

>  <Peripheral>  (489) 
nan

>  <Num_H_Atoms_ProtBoundConf>  (489) 
nan

>  <Num_Resolved_Atoms>  (489) 
nan

>  <Num_Not_Resolved_Atoms>  (489) 
nan

$$$$
CHEMBL4215414
     RDKit          3D

  0  0  0  0  0  0  0  0  0  0999 V3000
M  V30 BEGIN CTAB
M  V30 COUNTS 42 45 0 0 0
M  V30 BEGIN ATOM
M  V30 1 C 0.042361 -6.722036 -0.318787 0
M  V30 2 C 0.232004 -5.795194 -1.466730 0
M  V30 3 O 0.199911 -6.274198 -2.601368 0
M  V30 4 N 0.444133 -4.410101 -1.291544 0
M  V30 5 C 0.643295 -3.421827 -2.282132 0
M  V30 6 C 0.709023 -3.593683 -3.621738 0
M  V30 7 C 0.913642 -2.568155 -4.514569 0
M  V30 8 C 1.068780 -1.269605 -4.093608 0
M  V30 9 C 1.006455 -1.050849 -2.712349 0
M  V30 10 N 1.169198 0.238821 -2.132053 0
M  V30 11 C 0.942002 0.695599 -0.807155 0
M  V30 12 N -0.138130 1.516782 -0.789905 0
M  V30 13 C -0.585884 2.093185 0.348029 0
M  V30 14 C 0.079885 1.837387 1.542978 0
M  V30 15 C -0.283974 2.362741 2.779550 0
M  V30 16 C 0.433736 2.045393 3.914859 0
M  V30 17 C -0.040957 2.662654 5.153710 0
M  V30 18 C 0.057593 2.088611 6.404093 0
M  V30 19 N -0.478013 2.937125 7.324893 0
M  V30 20 N -0.899939 4.016773 6.650437 0
M  V30 21 C -0.650700 3.889521 5.313595 0
M  V30 22 C 1.538595 1.199235 3.881711 0
M  V30 23 C 1.919556 0.661026 2.640178 0
M  V30 24 C 1.178572 1.000410 1.524079 0
M  V30 25 N 1.606347 0.432825 0.350530 0
M  V30 26 C 0.798498 -2.120467 -1.868580 0
M  V30 27 H -0.031201 -7.772636 -0.641225 0
M  V30 28 H 0.889799 -6.652222 0.400564 0
M  V30 29 H -0.882818 -6.464976 0.229883 0
M  V30 30 H 0.446307 -4.137919 -0.274979 0
M  V30 31 H 0.601767 -4.577561 -4.044082 0
M  V30 32 H 0.964901 -2.705115 -5.584748 0
M  V30 33 H 1.231572 -0.390270 -4.682631 0
M  V30 34 H 1.519118 0.980380 -2.796963 0
M  V30 35 H -1.447805 2.755601 0.389147 0
M  V30 36 H -1.153592 3.020946 2.764140 0
M  V30 37 H 0.464259 1.146972 6.725582 0
M  V30 38 H -1.369830 4.868631 7.082251 0
M  V30 39 H -0.885933 4.608675 4.540913 0
M  V30 40 H 2.078338 0.969833 4.790470 0
M  V30 41 H 2.776448 -0.000129 2.592867 0
M  V30 42 H 0.757573 -1.894726 -0.787599 0
M  V30 END ATOM
M  V30 BEGIN BOND
M  V30 1 1 1 2
M  V30 2 2 2 3
M  V30 3 1 2 4
M  V30 4 1 4 5
M  V30 5 2 5 6
M  V30 6 1 6 7
M  V30 7 2 7 8
M  V30 8 1 8 9
M  V30 9 1 9 10
M  V30 10 1 10 11
M  V30 11 2 11 12
M  V30 12 1 12 13
M  V30 13 2 13 14
M  V30 14 1 14 15
M  V30 15 2 15 16
M  V30 16 1 16 17
M  V30 17 1 17 18
M  V30 18 2 18 19
M  V30 19 1 19 20
M  V30 20 1 20 21
M  V30 21 1 16 22
M  V30 22 2 22 23
M  V30 23 1 23 24
M  V30 24 2 24 25
M  V30 25 2 9 26
M  V30 26 1 26 5
M  V30 27 1 25 11
M  V30 28 1 24 14
M  V30 29 2 21 17
M  V30 30 1 1 27
M  V30 31 1 1 28
M  V30 32 1 1 29
M  V30 33 1 4 30
M  V30 34 1 6 31
M  V30 35 1 7 32
M  V30 36 1 8 33
M  V30 37 1 10 34
M  V30 38 1 13 35
M  V30 39 1 15 36
M  V30 40 1 18 37
M  V30 41 1 20 38
M  V30 42 1 21 39
M  V30 43 1 22 40
M  V30 44 1 23 41
M  V30 45 1 26 42
M  V30 END BOND
M  V30 END CTAB
M  END
>  <Dataset>  (490) 
ChEMBL_Kinases

>  <Ligand_Instance>  (490) 
nan

>  <PDB_ID>  (490) 
nan

>  <Standardized_SMILES>  (490) 
CC(=O)Nc1cccc(Nc2ncc3cc(-c4cn[nH]c4)ccc3n2)c1

>  <Name>  (490) 
nan

>  <Pocket>  (490) 
nan

>  <ATP_Site>  (490) 
nan

>  <Peripheral>  (490) 
nan

>  <Num_H_Atoms_ProtBoundConf>  (490) 
nan

>  <Num_Resolved_Atoms>  (490) 
nan

>  <Num_Not_Resolved_Atoms>  (490) 
nan

$$$$
CHEMBL4778893
     RDKit          3D

  0  0  0  0  0  0  0  0  0  0999 V3000
M  V30 BEGIN CTAB
M  V30 COUNTS 45 47 0 0 0
M  V30 BEGIN ATOM
M  V30 1 C 2.916604 -5.236435 0.937960 0
M  V30 2 C 3.120326 -3.710090 1.145494 0
M  V30 3 C 3.513365 -3.184316 -0.220082 0
M  V30 4 C 4.253539 -3.549025 2.135519 0
M  V30 5 O 5.407541 -4.149814 1.592460 0
M  V30 6 C 1.832168 -3.141987 1.612164 0
M  V30 7 N 1.707752 -1.781943 1.940599 0
M  V30 8 C 1.742796 -0.601269 1.180169 0
M  V30 9 N 2.698240 -0.351173 0.400910 0
M  V30 10 C 2.625546 0.839900 -0.298007 0
M  V30 11 O 3.491453 1.253757 -1.120436 0
M  V30 12 C 1.478671 1.686120 -0.081093 0
M  V30 13 C 1.004244 2.823510 -0.476142 0
M  V30 14 C -0.283379 3.394368 -0.003233 0
M  V30 15 C -0.596629 4.738376 0.346871 0
M  V30 16 S -2.424409 4.612152 0.810381 0
M  V30 17 C -2.388979 2.775340 0.434321 0
M  V30 18 C -3.623251 1.920682 0.573509 0
M  V30 19 C -3.417897 0.589769 0.267625 0
M  V30 20 C -4.555086 -0.202053 0.366930 0
M  V30 21 F -4.376641 -1.522465 0.068298 0
M  V30 22 C -5.793294 0.324796 0.747392 0
M  V30 23 C -5.939793 1.664810 1.042744 0
M  V30 24 C -4.821551 2.458443 0.948365 0
M  V30 25 O -4.934423 3.826587 1.244340 0
M  V30 26 N -1.327561 2.594796 0.115763 0
M  V30 27 S 0.528769 0.723621 1.138861 0
M  V30 28 H 3.045117 -5.531601 -0.105659 0
M  V30 29 H 1.882040 -5.499702 1.226183 0
M  V30 30 H 3.601760 -5.808109 1.611018 0
M  V30 31 H 4.330254 -2.449892 -0.166671 0
M  V30 32 H 2.666445 -2.774393 -0.799072 0
M  V30 33 H 3.852160 -4.061769 -0.874485 0
M  V30 34 H 4.505368 -2.460145 2.276736 0
M  V30 35 H 4.000289 -4.024956 3.102368 0
M  V30 36 H 5.840389 -3.608154 0.912250 0
M  V30 37 H 1.494197 -3.755274 2.510767 0
M  V30 38 H 1.025969 -3.468965 0.854315 0
M  V30 39 H 1.541529 -1.569740 2.991728 0
M  V30 40 H 1.674440 3.309783 -1.209192 0
M  V30 41 H 0.430029 5.451792 0.213451 0
M  V30 42 H -2.447346 0.219566 -0.016189 0
M  V30 43 H -6.619651 -0.368776 0.794443 0
M  V30 44 H -6.890645 2.083400 1.333025 0
M  V30 45 H -4.941632 4.147472 2.213447 0
M  V30 END ATOM
M  V30 BEGIN BOND
M  V30 1 1 1 2
M  V30 2 1 2 3
M  V30 3 1 2 4
M  V30 4 1 4 5
M  V30 5 1 2 6
M  V30 6 1 6 7
M  V30 7 1 7 8
M  V30 8 2 8 9
M  V30 9 1 9 10
M  V30 10 2 10 11
M  V30 11 1 10 12
M  V30 12 2 12 13
M  V30 13 1 13 14
M  V30 14 2 14 15
M  V30 15 1 15 16
M  V30 16 1 16 17
M  V30 17 1 17 18
M  V30 18 2 18 19
M  V30 19 1 19 20
M  V30 20 1 20 21
M  V30 21 2 20 22
M  V30 22 1 22 23
M  V30 23 2 23 24
M  V30 24 1 24 25
M  V30 25 2 17 26
M  V30 26 1 12 27
M  V30 27 1 27 8
M  V30 28 1 26 14
M  V30 29 1 24 18
M  V30 30 1 1 28
M  V30 31 1 1 29
M  V30 32 1 1 30
M  V30 33 1 3 31
M  V30 34 1 3 32
M  V30 35 1 3 33
M  V30 36 1 4 34
M  V30 37 1 4 35
M  V30 38 1 5 36
M  V30 39 1 6 37
M  V30 40 1 6 38
M  V30 41 1 7 39
M  V30 42 1 13 40
M  V30 43 1 15 41
M  V30 44 1 19 42
M  V30 45 1 22 43
M  V30 46 1 23 44
M  V30 47 1 25 45
M  V30 END BOND
M  V30 END CTAB
M  END
>  <Dataset>  (491) 
ChEMBL_Kinases

>  <Ligand_Instance>  (491) 
nan

>  <PDB_ID>  (491) 
nan

>  <Standardized_SMILES>  (491) 
CC(C)(CO)CNC1=NC(=O)/C(=C/c2csc(-c3cc(F)ccc3O)n2)S1

>  <Name>  (491) 
nan

>  <Pocket>  (491) 
nan

>  <ATP_Site>  (491) 
nan

>  <Peripheral>  (491) 
nan

>  <Num_H_Atoms_ProtBoundConf>  (491) 
nan

>  <Num_Resolved_Atoms>  (491) 
nan

>  <Num_Not_Resolved_Atoms>  (491) 
nan

$$$$
CHEMBL4215376
     RDKit          3D

  0  0  0  0  0  0  0  0  0  0999 V3000
M  V30 BEGIN CTAB
M  V30 COUNTS 60 63 0 0 0
M  V30 BEGIN ATOM
M  V30 1 C 4.225053 -0.329431 0.449734 0
M  V30 2 C 4.305749 0.880830 -0.434500 0
M  V30 3 C 4.731567 0.443701 -1.816975 0
M  V30 4 C 5.371661 1.800207 0.087009 0
M  V30 5 N 2.983817 1.492595 -0.453620 0
M  V30 6 C 2.762047 2.686847 -1.231646 0
M  V30 7 O 3.803768 3.067322 -1.828785 0
M  V30 8 C 1.391876 3.277088 -1.220380 0
M  V30 9 N 0.467810 2.518751 -0.391974 0
M  V30 10 C 0.278162 2.802585 1.023416 0
M  V30 11 C -0.740960 1.784861 1.422462 0
M  V30 12 C -1.313920 1.571597 2.663804 0
M  V30 13 C -2.246307 0.564248 2.813052 0
M  V30 14 C -2.649623 -0.259480 1.778340 0
M  V30 15 C -3.637828 -1.325198 1.942234 0
M  V30 16 N -3.366955 -2.539122 1.382782 0
M  V30 17 C -4.204858 -3.588704 1.471923 0
M  V30 18 N -3.864457 -4.837924 0.863216 0
M  V30 19 C -2.628360 -4.953073 0.163305 0
M  V30 20 C -2.461898 -4.017098 -0.999267 0
M  V30 21 C -1.055342 -3.452922 -0.939387 0
M  V30 22 O -0.178542 -4.541272 -0.882548 0
M  V30 23 C -0.155778 -5.064448 0.392524 0
M  V30 24 C -1.458816 -4.870810 1.129626 0
M  V30 25 N -5.379233 -3.439820 2.150287 0
M  V30 26 C -5.674375 -2.252971 2.713459 0
M  V30 27 C -4.826445 -1.164174 2.632355 0
M  V30 28 Cl -5.183793 0.390202 3.354318 0
M  V30 29 C -2.045421 -0.008743 0.542533 0
M  V30 30 C -1.107568 0.991093 0.354400 0
M  V30 31 C -0.360569 1.423229 -0.827491 0
M  V30 32 O -0.405531 0.959499 -1.996525 0
M  V30 33 H 3.603575 -0.119271 1.340478 0
M  V30 34 H 3.877165 -1.239618 -0.088039 0
M  V30 35 H 5.249779 -0.559183 0.829041 0
M  V30 36 H 5.328081 1.206661 -2.358842 0
M  V30 37 H 5.427954 -0.417833 -1.683750 0
M  V30 38 H 3.880282 0.070678 -2.423184 0
M  V30 39 H 6.093043 1.192684 0.671064 0
M  V30 40 H 5.946148 2.292012 -0.726301 0
M  V30 41 H 4.951610 2.554996 0.801256 0
M  V30 42 H 2.167092 1.098664 0.082437 0
M  V30 43 H 1.414590 4.340870 -0.908597 0
M  V30 44 H 1.006789 3.211843 -2.256055 0
M  V30 45 H -0.127250 3.831916 1.090095 0
M  V30 46 H 1.174073 2.642283 1.632339 0
M  V30 47 H -1.014840 2.208398 3.504654 0
M  V30 48 H -2.672680 0.427219 3.798214 0
M  V30 49 H -4.544876 -5.629317 0.956451 0
M  V30 50 H -2.569882 -5.989144 -0.261239 0
M  V30 51 H -3.231945 -3.223452 -1.033775 0
M  V30 52 H -2.541945 -4.545287 -1.992891 0
M  V30 53 H -0.822792 -2.789116 -1.790053 0
M  V30 54 H -0.890878 -2.889598 -0.003162 0
M  V30 55 H 0.654040 -4.568269 0.950723 0
M  V30 56 H 0.120903 -6.139100 0.304145 0
M  V30 57 H -1.413214 -3.933315 1.689217 0
M  V30 58 H -1.561234 -5.710155 1.846520 0
M  V30 59 H -6.583623 -2.046899 3.269712 0
M  V30 60 H -2.338222 -0.633096 -0.283271 0
M  V30 END ATOM
M  V30 BEGIN BOND
M  V30 1 1 1 2
M  V30 2 1 2 3
M  V30 3 1 2 4
M  V30 4 1 2 5
M  V30 5 1 5 6
M  V30 6 2 6 7
M  V30 7 1 6 8
M  V30 8 1 8 9
M  V30 9 1 9 10
M  V30 10 1 10 11
M  V30 11 2 11 12
M  V30 12 1 12 13
M  V30 13 2 13 14
M  V30 14 1 14 15
M  V30 15 2 15 16
M  V30 16 1 16 17
M  V30 17 1 17 18
M  V30 18 1 18 19
M  V30 19 1 19 20
M  V30 20 1 20 21
M  V30 21 1 21 22
M  V30 22 1 22 23
M  V30 23 1 23 24
M  V30 24 2 17 25
M  V30 25 1 25 26
M  V30 26 2 26 27
M  V30 27 1 27 28
M  V30 28 1 14 29
M  V30 29 2 29 30
M  V30 30 1 30 31
M  V30 31 2 31 32
M  V30 32 1 31 9
M  V30 33 1 30 11
M  V30 34 1 27 15
M  V30 35 1 24 19
M  V30 36 1 1 33
M  V30 37 1 1 34
M  V30 38 1 1 35
M  V30 39 1 3 36
M  V30 40 1 3 37
M  V30 41 1 3 38
M  V30 42 1 4 39
M  V30 43 1 4 40
M  V30 44 1 4 41
M  V30 45 1 5 42
M  V30 46 1 8 43
M  V30 47 1 8 44
M  V30 48 1 10 45
M  V30 49 1 10 46
M  V30 50 1 12 47
M  V30 51 1 13 48
M  V30 52 1 18 49
M  V30 53 1 19 50
M  V30 54 1 20 51
M  V30 55 1 20 52
M  V30 56 1 21 53
M  V30 57 1 21 54
M  V30 58 1 23 55
M  V30 59 1 23 56
M  V30 60 1 24 57
M  V30 61 1 24 58
M  V30 62 1 26 59
M  V30 63 1 29 60
M  V30 END BOND
M  V30 END CTAB
M  END
>  <Dataset>  (492) 
ChEMBL_Kinases

>  <Ligand_Instance>  (492) 
nan

>  <PDB_ID>  (492) 
nan

>  <Standardized_SMILES>  (492) 
CC(C)(C)NC(=O)CN1Cc2ccc(-c3nc(NC4CCOCC4)ncc3Cl)cc2C1=O

>  <Name>  (492) 
nan

>  <Pocket>  (492) 
nan

>  <ATP_Site>  (492) 
nan

>  <Peripheral>  (492) 
nan

>  <Num_H_Atoms_ProtBoundConf>  (492) 
nan

>  <Num_Resolved_Atoms>  (492) 
nan

>  <Num_Not_Resolved_Atoms>  (492) 
nan

$$$$
CHEMBL4216488
     RDKit          3D

  0  0  0  0  0  0  0  0  0  0999 V3000
M  V30 BEGIN CTAB
M  V30 COUNTS 30 32 0 0 0
M  V30 BEGIN ATOM
M  V30 1 O 1.143321 -4.456150 -0.628381 0
M  V30 2 C 1.518652 -3.362681 -0.115757 0
M  V30 3 N 2.884204 -3.126274 0.250036 0
M  V30 4 C 3.022558 -1.830077 0.796856 0
M  V30 5 C 4.103227 -1.124562 1.294047 0
M  V30 6 C 3.888106 0.154499 1.763823 0
M  V30 7 C 2.628470 0.759954 1.756364 0
M  V30 8 I 2.387943 2.710539 2.490164 0
M  V30 9 C 1.556562 0.055654 1.261395 0
M  V30 10 C 1.781933 -1.231277 0.790502 0
M  V30 11 C 0.779422 -2.132280 0.230487 0
M  V30 12 N -0.467699 -2.078829 0.004322 0
M  V30 13 N -1.315061 -0.996352 0.269823 0
M  V30 14 C -1.685508 0.081245 -0.633325 0
M  V30 15 C -3.155746 0.409256 -0.431009 0
M  V30 16 O -3.573701 0.350863 0.872022 0
M  V30 17 C -2.527336 0.311027 1.787783 0
M  V30 18 C -1.842780 -1.032006 1.632458 0
M  V30 19 H 3.702445 -3.782636 0.149464 0
M  V30 20 H 5.092693 -1.559111 1.316342 0
M  V30 21 H 4.735089 0.702555 2.151529 0
M  V30 22 H 0.581584 0.512897 1.251036 0
M  V30 23 H -1.609585 -0.244632 -1.700539 0
M  V30 24 H -1.110858 1.009002 -0.475914 0
M  V30 25 H -3.800982 -0.237459 -1.080214 0
M  V30 26 H -3.334938 1.461867 -0.794956 0
M  V30 27 H -1.793348 1.097376 1.452340 0
M  V30 28 H -2.824289 0.559704 2.802523 0
M  V30 29 H -2.557757 -1.863527 1.764714 0
M  V30 30 H -1.003746 -1.135728 2.354973 0
M  V30 END ATOM
M  V30 BEGIN BOND
M  V30 1 2 1 2
M  V30 2 1 2 3
M  V30 3 1 3 4
M  V30 4 2 4 5
M  V30 5 1 5 6
M  V30 6 2 6 7
M  V30 7 1 7 8
M  V30 8 1 7 9
M  V30 9 2 9 10
M  V30 10 1 10 11
M  V30 11 2 11 12 CFG=2
M  V30 12 1 12 13
M  V30 13 1 13 14
M  V30 14 1 14 15
M  V30 15 1 15 16
M  V30 16 1 16 17
M  V30 17 1 17 18
M  V30 18 1 11 2
M  V30 19 1 18 13
M  V30 20 1 10 4
M  V30 21 1 3 19
M  V30 22 1 5 20
M  V30 23 1 6 21
M  V30 24 1 9 22
M  V30 25 1 14 23
M  V30 26 1 14 24
M  V30 27 1 15 25
M  V30 28 1 15 26
M  V30 29 1 17 27
M  V30 30 1 17 28
M  V30 31 1 18 29
M  V30 32 1 18 30
M  V30 END BOND
M  V30 END CTAB
M  END
>  <Dataset>  (493) 
ChEMBL_Kinases

>  <Ligand_Instance>  (493) 
nan

>  <PDB_ID>  (493) 
nan

>  <Standardized_SMILES>  (493) 
O=C1Nc2ccc(I)cc2C1=NN1CCOCC1

>  <Name>  (493) 
nan

>  <Pocket>  (493) 
nan

>  <ATP_Site>  (493) 
nan

>  <Peripheral>  (493) 
nan

>  <Num_H_Atoms_ProtBoundConf>  (493) 
nan

>  <Num_Resolved_Atoms>  (493) 
nan

>  <Num_Not_Resolved_Atoms>  (493) 
nan

$$$$
CHEMBL4215300
     RDKit          3D

  0  0  0  0  0  0  0  0  0  0999 V3000
M  V30 BEGIN CTAB
M  V30 COUNTS 70 74 0 0 0
M  V30 BEGIN ATOM
M  V30 1 C 2.207211 -1.922684 5.367908 0
M  V30 2 C 2.769210 -0.566684 5.723499 0
M  V30 3 N 2.120884 0.551131 5.225335 0
M  V30 4 C 0.851888 0.951395 5.630926 0
M  V30 5 C -0.214155 -0.028725 5.164567 0
M  V30 6 C 2.888119 1.583211 4.638101 0 CFG=1
M  V30 7 C 3.920330 2.201585 5.549363 0
M  V30 8 C 3.512651 1.189872 3.313858 0
M  V30 9 N 2.469123 0.834812 2.374154 0
M  V30 10 C 2.700991 0.415662 1.038146 0
M  V30 11 O 3.883576 0.339194 0.617122 0
M  V30 12 C 1.643545 0.060258 0.100915 0
M  V30 13 C 1.995593 -0.350230 -1.166248 0
M  V30 14 C 1.012514 -0.696086 -2.072493 0
M  V30 15 C 1.389965 -1.135342 -3.409333 0
M  V30 16 C 2.652884 -1.243060 -3.946935 0
M  V30 17 N 2.556900 -1.689831 -5.203206 0
M  V30 18 N 1.277132 -1.883330 -5.520404 0
M  V30 19 C 0.784805 -2.327315 -6.687062 0
M  V30 20 C -0.597692 -2.441281 -6.750082 0
M  V30 21 C -1.360096 -2.103756 -5.649473 0
M  V30 22 C -2.785044 -2.225064 -5.712716 0
M  V30 23 C -3.576788 -2.642888 -6.718295 0
M  V30 24 C -4.932768 -2.693725 -6.594715 0
M  V30 25 C -5.439111 -2.252676 -5.270438 0
M  V30 26 S -3.884841 -1.813005 -4.353868 0
M  V30 27 N -0.785202 -1.666526 -4.517617 0
M  V30 28 C 0.554623 -1.546331 -4.427767 0
M  V30 29 N -0.311747 -0.641082 -1.741354 0
M  V30 30 C -0.680988 -0.236909 -0.493501 0
M  V30 31 N -2.053253 -0.169408 -0.121003 0
M  V30 32 C -2.796743 0.237977 1.054405 0
M  V30 33 C -3.864987 -0.750342 0.642417 0
M  V30 34 O -5.168387 -0.313865 0.854278 0
M  V30 35 C -5.876090 -1.375915 1.412987 0
M  V30 36 C -3.324918 -0.475761 -0.744148 0
M  V30 37 C 0.296840 0.102293 0.393621 0
M  V30 38 H 1.381125 -2.258724 5.997010 0
M  V30 39 H 3.035713 -2.667333 5.570775 0
M  V30 40 H 2.021985 -2.027564 4.281178 0
M  V30 41 H 2.898704 -0.526202 6.844080 0
M  V30 42 H 3.830803 -0.570888 5.332749 0
M  V30 43 H 0.734166 1.190783 6.711319 0
M  V30 44 H 0.597194 1.918134 5.117464 0
M  V30 45 H 0.165787 -0.516116 4.228900 0
M  V30 46 H -0.495596 -0.777338 5.899421 0
M  V30 47 H -1.156671 0.489703 4.859235 0
M  V30 48 H 2.185657 2.436858 4.389169 0
M  V30 49 H 3.450349 2.409656 6.529181 0
M  V30 50 H 4.213283 3.187144 5.100433 0
M  V30 51 H 4.831106 1.570411 5.649701 0
M  V30 52 H 4.256518 0.398882 3.427189 0
M  V30 53 H 4.008968 2.091215 2.919956 0
M  V30 54 H 1.471613 0.879932 2.668117 0
M  V30 55 H 3.014209 -0.412750 -1.481458 0
M  V30 56 H 3.572446 -1.002794 -3.430351 0
M  V30 57 H 1.409033 -2.582380 -7.525678 0
M  V30 58 H -1.069956 -2.792313 -7.658694 0
M  V30 59 H -3.121268 -2.946805 -7.651099 0
M  V30 60 H -5.636536 -3.013820 -7.347965 0
M  V30 61 H -6.613141 -2.279524 -5.117802 0
M  V30 62 H -2.303394 0.043569 2.027691 0
M  V30 63 H -3.216388 1.275032 0.981080 0
M  V30 64 H -3.675978 -1.797285 0.944932 0
M  V30 65 H -5.463728 -1.727180 2.379092 0
M  V30 66 H -5.843634 -2.259428 0.730741 0
M  V30 67 H -6.952749 -1.140353 1.535401 0
M  V30 68 H -3.749647 0.441569 -1.235164 0
M  V30 69 H -3.320502 -1.356764 -1.416839 0
M  V30 70 H -0.013671 0.412784 1.357800 0
M  V30 END ATOM
M  V30 BEGIN BOND
M  V30 1 1 1 2
M  V30 2 1 2 3
M  V30 3 1 3 4
M  V30 4 1 4 5
M  V30 5 1 3 6
M  V30 6 1 6 7
M  V30 7 1 6 8
M  V30 8 1 8 9
M  V30 9 1 9 10
M  V30 10 2 10 11
M  V30 11 1 10 12
M  V30 12 2 12 13
M  V30 13 1 13 14
M  V30 14 1 14 15
M  V30 15 1 15 16
M  V30 16 2 16 17
M  V30 17 1 17 18
M  V30 18 1 18 19
M  V30 19 2 19 20
M  V30 20 1 20 21
M  V30 21 1 21 22
M  V30 22 2 22 23
M  V30 23 1 23 24
M  V30 24 2 24 25
M  V30 25 1 25 26
M  V30 26 2 21 27
M  V30 27 1 27 28
M  V30 28 2 14 29
M  V30 29 1 29 30
M  V30 30 1 30 31
M  V30 31 1 31 32
M  V30 32 1 32 33
M  V30 33 1 33 34
M  V30 34 1 34 35
M  V30 35 1 33 36
M  V30 36 2 30 37
M  V30 37 1 37 12
M  V30 38 2 28 15
M  V30 39 1 36 31
M  V30 40 1 28 18
M  V30 41 1 26 22
M  V30 42 1 1 38
M  V30 43 1 1 39
M  V30 44 1 1 40
M  V30 45 1 2 41
M  V30 46 1 2 42
M  V30 47 1 4 43
M  V30 48 1 4 44
M  V30 49 1 5 45
M  V30 50 1 5 46
M  V30 51 1 5 47
M  V30 52 1 6 48 CFG=3
M  V30 53 1 7 49
M  V30 54 1 7 50
M  V30 55 1 7 51
M  V30 56 1 8 52
M  V30 57 1 8 53
M  V30 58 1 9 54
M  V30 59 1 13 55
M  V30 60 1 16 56
M  V30 61 1 19 57
M  V30 62 1 20 58
M  V30 63 1 23 59
M  V30 64 1 24 60
M  V30 65 1 25 61
M  V30 66 1 32 62
M  V30 67 1 32 63
M  V30 68 1 33 64
M  V30 69 1 35 65
M  V30 70 1 35 66
M  V30 71 1 35 67
M  V30 72 1 36 68
M  V30 73 1 36 69
M  V30 74 1 37 70
M  V30 END BOND
M  V30 END CTAB
M  END
>  <Dataset>  (494) 
ChEMBL_Kinases

>  <Ligand_Instance>  (494) 
nan

>  <PDB_ID>  (494) 
nan

>  <Standardized_SMILES>  (494) 
CCN(CC)[C@@H](C)CNC(=O)c1cc(-c2cnn3ccc(-c4cccs4)nc23)nc(N2CC(OC)C2)c1

>  <Name>  (494) 
nan

>  <Pocket>  (494) 
nan

>  <ATP_Site>  (494) 
nan

>  <Peripheral>  (494) 
nan

>  <Num_H_Atoms_ProtBoundConf>  (494) 
nan

>  <Num_Resolved_Atoms>  (494) 
nan

>  <Num_Not_Resolved_Atoms>  (494) 
nan

$$$$
CHEMBL4778934
     RDKit          3D

  0  0  0  0  0  0  0  0  0  0999 V3000
M  V30 BEGIN CTAB
M  V30 COUNTS 52 55 0 0 0
M  V30 BEGIN ATOM
M  V30 1 N 3.608166 -4.667693 6.791952 0
M  V30 2 C 3.384353 -4.321744 5.694111 0
M  V30 3 C 3.129924 -3.894326 4.342669 0
M  V30 4 C 4.247055 -3.654478 3.571591 0
M  V30 5 N 4.041453 -3.252436 2.300723 0
M  V30 6 C 2.777166 -3.107284 1.854332 0
M  V30 7 N 2.610148 -2.680387 0.507428 0
M  V30 8 C 1.380394 -2.458468 -0.183814 0
M  V30 9 C 0.797452 -1.212411 -0.139910 0
M  V30 10 C -0.391511 -0.807164 -0.746541 0
M  V30 11 N -0.896778 0.505444 -0.694134 0
M  V30 12 C -0.553770 1.748757 -0.068771 0
M  V30 13 C -0.884410 1.932857 1.357005 0
M  V30 14 C -0.411121 3.338109 1.769540 0
M  V30 15 C 0.985865 3.325106 2.324558 0
M  V30 16 N 1.639361 2.059774 2.024321 0
M  V30 17 C 0.957395 1.066599 2.823944 0
M  V30 18 C -0.471372 0.930762 2.349353 0
M  V30 19 C -1.030266 -1.798946 -1.466061 0
M  V30 20 C -2.298325 -1.617756 -2.163139 0
M  V30 21 C -3.506833 -1.112848 -1.736710 0
M  V30 22 C -4.557981 -1.036025 -2.615452 0
M  V30 23 C -4.476382 -1.443044 -3.928593 0
M  V30 24 C -3.271866 -1.951350 -4.369260 0
M  V30 25 F -3.206727 -2.347722 -5.662883 0
M  V30 26 C -2.202681 -2.035999 -3.498748 0
M  V30 27 C -0.453791 -3.047811 -1.515591 0
M  V30 28 N 0.690849 -3.357159 -0.905447 0
M  V30 29 C 1.660087 -3.347608 2.626834 0
M  V30 30 N 1.877066 -3.747449 3.890592 0
M  V30 31 H 5.259149 -3.766663 3.916318 0
M  V30 32 H 3.384303 -2.479794 -0.132198 0
M  V30 33 H 1.315624 -0.448032 0.423689 0
M  V30 34 H -1.779399 0.655986 -1.274726 0
M  V30 35 H -0.981354 2.641472 -0.609203 0
M  V30 36 H 0.559334 1.951765 -0.146486 0
M  V30 37 H -2.017759 2.036456 1.408387 0
M  V30 38 H -0.484847 4.040869 0.937107 0
M  V30 39 H -1.068597 3.709689 2.583829 0
M  V30 40 H 0.996465 3.427876 3.443584 0
M  V30 41 H 1.602044 4.153155 1.948286 0
M  V30 42 H 2.639496 2.084273 2.266836 0
M  V30 43 H 1.526664 0.119123 2.741950 0
M  V30 44 H 0.988793 1.307989 3.924408 0
M  V30 45 H -1.176366 1.051367 3.239845 0
M  V30 46 H -0.636013 -0.081407 2.012689 0
M  V30 47 H -3.505600 -0.826768 -0.715710 0
M  V30 48 H -5.464646 -0.620225 -2.169281 0
M  V30 49 H -5.365286 -1.343289 -4.551948 0
M  V30 50 H -1.303114 -2.458241 -3.974482 0
M  V30 51 H -0.943125 -3.833265 -2.076086 0
M  V30 52 H 0.645656 -3.226181 2.252983 0
M  V30 END ATOM
M  V30 BEGIN BOND
M  V30 1 3 1 2
M  V30 2 1 2 3
M  V30 3 2 3 4
M  V30 4 1 4 5
M  V30 5 2 5 6
M  V30 6 1 6 7
M  V30 7 1 7 8
M  V30 8 2 8 9
M  V30 9 1 9 10
M  V30 10 1 10 11
M  V30 11 1 11 12
M  V30 12 1 12 13
M  V30 13 1 13 14
M  V30 14 1 14 15
M  V30 15 1 15 16
M  V30 16 1 16 17
M  V30 17 1 17 18
M  V30 18 2 10 19
M  V30 19 1 19 20
M  V30 20 2 20 21
M  V30 21 1 21 22
M  V30 22 2 22 23
M  V30 23 1 23 24
M  V30 24 1 24 25
M  V30 25 2 24 26
M  V30 26 1 19 27
M  V30 27 2 27 28
M  V30 28 1 6 29
M  V30 29 2 29 30
M  V30 30 1 30 3
M  V30 31 1 28 8
M  V30 32 1 18 13
M  V30 33 1 26 20
M  V30 34 1 4 31
M  V30 35 1 7 32
M  V30 36 1 9 33
M  V30 37 1 11 34
M  V30 38 1 12 35
M  V30 39 1 12 36
M  V30 40 1 13 37
M  V30 41 1 14 38
M  V30 42 1 14 39
M  V30 43 1 15 40
M  V30 44 1 15 41
M  V30 45 1 16 42
M  V30 46 1 17 43
M  V30 47 1 17 44
M  V30 48 1 18 45
M  V30 49 1 18 46
M  V30 50 1 21 47
M  V30 51 1 22 48
M  V30 52 1 23 49
M  V30 53 1 26 50
M  V30 54 1 27 51
M  V30 55 1 29 52
M  V30 END BOND
M  V30 END CTAB
M  END
>  <Dataset>  (495) 
ChEMBL_Kinases

>  <Ligand_Instance>  (495) 
nan

>  <PDB_ID>  (495) 
nan

>  <Standardized_SMILES>  (495) 
N#Cc1cnc(Nc2cc(NCC3CCNCC3)c(-c3cccc(F)c3)cn2)cn1

>  <Name>  (495) 
nan

>  <Pocket>  (495) 
nan

>  <ATP_Site>  (495) 
nan

>  <Peripheral>  (495) 
nan

>  <Num_H_Atoms_ProtBoundConf>  (495) 
nan

>  <Num_Resolved_Atoms>  (495) 
nan

>  <Num_Not_Resolved_Atoms>  (495) 
nan

$$$$
CHEMBL4214991
     RDKit          3D

  0  0  0  0  0  0  0  0  0  0999 V3000
M  V30 BEGIN CTAB
M  V30 COUNTS 52 55 0 0 0
M  V30 BEGIN ATOM
M  V30 1 C 1.747123 -3.729973 3.164823 0
M  V30 2 N 2.267928 -2.359165 2.964154 0
M  V30 3 C 2.391404 -1.750997 4.303857 0
M  V30 4 C 3.600530 -2.556300 2.420251 0
M  V30 5 C 4.299905 -1.303775 2.002115 0
M  V30 6 N 3.649294 -0.598763 0.924858 0
M  V30 7 C 2.387393 -0.001980 0.713035 0
M  V30 8 O 1.601577 -0.085642 1.690438 0
M  V30 9 C 1.989161 0.664434 -0.519183 0
M  V30 10 C 2.746285 0.829995 -1.660174 0
M  V30 11 C 2.263552 1.481336 -2.774861 0
M  V30 12 C 0.986479 2.003031 -2.800491 0
M  V30 13 C 0.218407 1.844547 -1.666341 0
M  V30 14 C -1.165096 2.372307 -1.603972 0
M  V30 15 C -1.632927 3.626351 -2.013851 0
M  V30 16 N -2.967807 3.655658 -1.761084 0
M  V30 17 C -3.329671 2.476761 -1.217051 0
M  V30 18 C -4.505367 1.905472 -0.756237 0
M  V30 19 C -4.537626 0.624719 -0.237437 0
M  V30 20 C -3.385903 -0.113705 -0.169571 0
M  V30 21 C -3.328014 -1.470820 0.360923 0
M  V30 22 C -4.412489 -2.159685 0.851000 0
M  V30 23 C -4.263115 -3.447207 1.333371 0
M  V30 24 C -3.045332 -4.073518 1.339925 0
M  V30 25 C -1.919978 -3.406702 0.850447 0
M  V30 26 C -2.116093 -2.121700 0.378394 0
M  V30 27 N -2.283374 0.498718 -0.632473 0
M  V30 28 N -2.236679 1.701655 -1.122978 0
M  V30 29 C 0.725479 1.190092 -0.567264 0
M  V30 30 H 1.336773 -3.826987 4.209673 0
M  V30 31 H 0.924246 -3.883287 2.428570 0
M  V30 32 H 2.514099 -4.496901 3.050472 0
M  V30 33 H 3.445696 -1.708623 4.624397 0
M  V30 34 H 1.887955 -0.770625 4.295418 0
M  V30 35 H 1.882312 -2.412413 5.031227 0
M  V30 36 H 3.464177 -3.164609 1.479016 0
M  V30 37 H 4.219384 -3.177011 3.088696 0
M  V30 38 H 5.348962 -1.532122 1.741804 0
M  V30 39 H 4.399175 -0.583066 2.868705 0
M  V30 40 H 4.250515 -0.491685 0.067167 0
M  V30 41 H 3.745567 0.425466 -1.648527 0
M  V30 42 H 2.912800 1.579777 -3.648031 0
M  V30 43 H 0.599058 2.516867 -3.673751 0
M  V30 44 H -0.974952 4.367402 -2.441635 0
M  V30 45 H -5.408302 2.510190 -0.819134 0
M  V30 46 H -5.461164 0.216128 0.108151 0
M  V30 47 H -5.380202 -1.678889 0.851916 0
M  V30 48 H -5.106254 -3.993968 1.718961 0
M  V30 49 H -2.896565 -5.097339 1.716978 0
M  V30 50 H -0.931109 -3.875661 0.840116 0
M  V30 51 H -1.216974 -1.612167 -0.003384 0
M  V30 52 H 0.064096 1.097835 0.302261 0
M  V30 END ATOM
M  V30 BEGIN BOND
M  V30 1 1 1 2
M  V30 2 1 2 3
M  V30 3 1 2 4
M  V30 4 1 4 5
M  V30 5 1 5 6
M  V30 6 1 6 7
M  V30 7 2 7 8
M  V30 8 1 7 9
M  V30 9 2 9 10
M  V30 10 1 10 11
M  V30 11 2 11 12
M  V30 12 1 12 13
M  V30 13 1 13 14
M  V30 14 2 14 15
M  V30 15 1 15 16
M  V30 16 2 16 17
M  V30 17 1 17 18
M  V30 18 2 18 19
M  V30 19 1 19 20
M  V30 20 1 20 21
M  V30 21 2 21 22
M  V30 22 1 22 23
M  V30 23 2 23 24
M  V30 24 1 24 25
M  V30 25 2 25 26
M  V30 26 2 20 27
M  V30 27 1 27 28
M  V30 28 2 13 29
M  V30 29 1 29 9
M  V30 30 1 28 14
M  V30 31 1 28 17
M  V30 32 1 26 21
M  V30 33 1 1 30
M  V30 34 1 1 31
M  V30 35 1 1 32
M  V30 36 1 3 33
M  V30 37 1 3 34
M  V30 38 1 3 35
M  V30 39 1 4 36
M  V30 40 1 4 37
M  V30 41 1 5 38
M  V30 42 1 5 39
M  V30 43 1 6 40
M  V30 44 1 10 41
M  V30 45 1 11 42
M  V30 46 1 12 43
M  V30 47 1 15 44
M  V30 48 1 18 45
M  V30 49 1 19 46
M  V30 50 1 22 47
M  V30 51 1 23 48
M  V30 52 1 24 49
M  V30 53 1 25 50
M  V30 54 1 26 51
M  V30 55 1 29 52
M  V30 END BOND
M  V30 END CTAB
M  END
>  <Dataset>  (496) 
ChEMBL_Kinases

>  <Ligand_Instance>  (496) 
nan

>  <PDB_ID>  (496) 
nan

>  <Standardized_SMILES>  (496) 
CN(C)CCNC(=O)c1cccc(-c2cnc3ccc(-c4ccccc4)nn23)c1

>  <Name>  (496) 
nan

>  <Pocket>  (496) 
nan

>  <ATP_Site>  (496) 
nan

>  <Peripheral>  (496) 
nan

>  <Num_H_Atoms_ProtBoundConf>  (496) 
nan

>  <Num_Resolved_Atoms>  (496) 
nan

>  <Num_Not_Resolved_Atoms>  (496) 
nan

$$$$
CHEMBL4214928
     RDKit          3D

  0  0  0  0  0  0  0  0  0  0999 V3000
M  V30 BEGIN CTAB
M  V30 COUNTS 37 39 0 0 0
M  V30 BEGIN ATOM
M  V30 1 C -2.264905 -3.030856 2.408929 0
M  V30 2 C -1.169063 -4.031550 2.534862 0
M  V30 3 C -0.252490 -4.200355 1.395498 0
M  V30 4 C 0.547024 -3.035359 0.946832 0
M  V30 5 C 1.446895 -2.489107 2.046106 0
M  V30 6 N 1.451972 -3.433416 -0.161103 0
M  V30 7 C 2.244805 -2.327704 -0.652009 0
M  V30 8 O 3.416242 -2.396552 -1.168424 0
M  V30 9 C 1.720192 -0.973475 -0.585091 0
M  V30 10 S 2.263030 0.647965 -1.017495 0
M  V30 11 C 0.802844 1.522239 -0.475209 0
M  V30 12 C 0.641905 2.958359 -0.573366 0
M  V30 13 C -0.519250 3.528636 -0.128394 0
M  V30 14 C -0.600262 4.900054 -0.253862 0
M  V30 15 N 0.390952 5.668569 -0.781259 0
M  V30 16 C 1.520480 5.089545 -1.211257 0
M  V30 17 C 1.656007 3.721501 -1.110220 0
M  V30 18 C -0.008698 0.557118 -0.001991 0
M  V30 19 C 0.385819 -0.738679 -0.022724 0
M  V30 20 N -0.230868 -1.949675 0.395309 0
M  V30 21 H -3.034231 -3.172566 3.234723 0
M  V30 22 H -2.866449 -3.153175 1.485919 0
M  V30 23 H -1.977764 -1.979194 2.497470 0
M  V30 24 H -0.629098 -3.923934 3.524157 0
M  V30 25 H -1.689324 -5.029477 2.671716 0
M  V30 26 H -0.813278 -4.664330 0.552397 0
M  V30 27 H 0.496796 -4.992529 1.700197 0
M  V30 28 H 2.518771 -2.745560 1.891512 0
M  V30 29 H 1.443354 -1.360312 2.054851 0
M  V30 30 H 1.186382 -2.874209 3.041950 0
M  V30 31 H 1.658336 -4.323843 -0.675703 0
M  V30 32 H -1.318231 2.939528 0.293156 0
M  V30 33 H -1.487392 5.443230 0.073458 0
M  V30 34 H 2.345620 5.659584 -1.642108 0
M  V30 35 H 2.572360 3.263575 -1.460456 0
M  V30 36 H -0.965493 0.886626 0.379598 0
M  V30 37 H -1.285344 -1.917096 0.235001 0
M  V30 END ATOM
M  V30 BEGIN BOND
M  V30 1 1 1 2
M  V30 2 1 2 3
M  V30 3 1 3 4
M  V30 4 1 4 5
M  V30 5 1 4 6
M  V30 6 1 6 7
M  V30 7 2 7 8
M  V30 8 1 7 9
M  V30 9 1 9 10
M  V30 10 1 10 11
M  V30 11 1 11 12
M  V30 12 2 12 13
M  V30 13 1 13 14
M  V30 14 2 14 15
M  V30 15 1 15 16
M  V30 16 2 16 17
M  V30 17 2 11 18
M  V30 18 1 18 19
M  V30 19 1 19 20
M  V30 20 1 20 4
M  V30 21 2 19 9
M  V30 22 1 17 12
M  V30 23 1 1 21
M  V30 24 1 1 22
M  V30 25 1 1 23
M  V30 26 1 2 24
M  V30 27 1 2 25
M  V30 28 1 3 26
M  V30 29 1 3 27
M  V30 30 1 5 28
M  V30 31 1 5 29
M  V30 32 1 5 30
M  V30 33 1 6 31
M  V30 34 1 13 32
M  V30 35 1 14 33
M  V30 36 1 16 34
M  V30 37 1 17 35
M  V30 38 1 18 36
M  V30 39 1 20 37
M  V30 END BOND
M  V30 END CTAB
M  END
>  <Dataset>  (497) 
ChEMBL_Kinases

>  <Ligand_Instance>  (497) 
nan

>  <PDB_ID>  (497) 
nan

>  <Standardized_SMILES>  (497) 
CCCC1(C)NC(=O)c2sc(-c3ccncc3)cc2N1

>  <Name>  (497) 
nan

>  <Pocket>  (497) 
nan

>  <ATP_Site>  (497) 
nan

>  <Peripheral>  (497) 
nan

>  <Num_H_Atoms_ProtBoundConf>  (497) 
nan

>  <Num_Resolved_Atoms>  (497) 
nan

>  <Num_Not_Resolved_Atoms>  (497) 
nan

$$$$
CHEMBL4214911
     RDKit          3D

  0  0  0  0  0  0  0  0  0  0999 V3000
M  V30 BEGIN CTAB
M  V30 COUNTS 36 38 0 0 0
M  V30 BEGIN ATOM
M  V30 1 C -1.603377 -1.191784 3.334097 0
M  V30 2 O -0.482176 -1.973137 3.735098 0
M  V30 3 C 0.618772 -2.026206 2.893892 0
M  V30 4 C 1.686153 -2.798050 3.324239 0
M  V30 5 C 2.816993 -2.911822 2.562518 0
M  V30 6 C 2.967916 -2.279545 1.340887 0
M  V30 7 C 1.884660 -1.522651 0.949910 0
M  V30 8 C 0.724095 -1.376419 1.680673 0
M  V30 9 C 2.131044 -0.895702 -0.343293 0
M  V30 10 N 1.521295 -0.126164 -1.156620 0
M  V30 11 N 0.264194 0.416970 -1.028955 0
M  V30 12 C -0.806061 -0.337104 -1.651416 0
M  V30 13 C -2.100717 0.090050 -1.035328 0
M  V30 14 C -2.357253 1.552947 -1.208541 0
M  V30 15 C -1.097203 2.380582 -1.129248 0
M  V30 16 C -0.030250 1.652580 -0.336530 0
M  V30 17 C 3.480796 -1.332310 -0.732577 0
M  V30 18 O 4.244363 -1.138149 -1.715815 0
M  V30 19 N 3.957089 -2.177499 0.325616 0
M  V30 20 H -2.063678 -1.738421 2.470415 0
M  V30 21 H -1.292280 -0.204798 2.928469 0
M  V30 22 H -2.360757 -1.119215 4.125974 0
M  V30 23 H 1.636209 -3.319816 4.268623 0
M  V30 24 H 3.658797 -3.526374 2.911851 0
M  V30 25 H -0.118668 -0.779762 1.362137 0
M  V30 26 H -0.780512 -0.156875 -2.755633 0
M  V30 27 H -0.644235 -1.421072 -1.458552 0
M  V30 28 H -2.017166 -0.109561 0.064155 0
M  V30 29 H -2.965316 -0.521851 -1.365435 0
M  V30 30 H -3.069355 1.948680 -0.429024 0
M  V30 31 H -2.852490 1.806421 -2.191164 0
M  V30 32 H -0.692152 2.610189 -2.139392 0
M  V30 33 H -1.311642 3.336664 -0.643012 0
M  V30 34 H -0.457927 1.486989 0.668281 0
M  V30 35 H 0.885444 2.278836 -0.319514 0
M  V30 36 H 4.839057 -2.703492 0.488199 0
M  V30 END ATOM
M  V30 BEGIN BOND
M  V30 1 1 1 2
M  V30 2 1 2 3
M  V30 3 2 3 4
M  V30 4 1 4 5
M  V30 5 2 5 6
M  V30 6 1 6 7
M  V30 7 2 7 8
M  V30 8 1 7 9
M  V30 9 2 9 10 CFG=2
M  V30 10 1 10 11
M  V30 11 1 11 12
M  V30 12 1 12 13
M  V30 13 1 13 14
M  V30 14 1 14 15
M  V30 15 1 15 16
M  V30 16 1 9 17
M  V30 17 2 17 18
M  V30 18 1 17 19
M  V30 19 1 8 3
M  V30 20 1 16 11
M  V30 21 1 19 6
M  V30 22 1 1 20
M  V30 23 1 1 21
M  V30 24 1 1 22
M  V30 25 1 4 23
M  V30 26 1 5 24
M  V30 27 1 8 25
M  V30 28 1 12 26
M  V30 29 1 12 27
M  V30 30 1 13 28
M  V30 31 1 13 29
M  V30 32 1 14 30
M  V30 33 1 14 31
M  V30 34 1 15 32
M  V30 35 1 15 33
M  V30 36 1 16 34
M  V30 37 1 16 35
M  V30 38 1 19 36
M  V30 END BOND
M  V30 END CTAB
M  END
>  <Dataset>  (498) 
ChEMBL_Kinases

>  <Ligand_Instance>  (498) 
nan

>  <PDB_ID>  (498) 
nan

>  <Standardized_SMILES>  (498) 
COc1ccc2c(c1)C(=NN1CCCCC1)C(=O)N2

>  <Name>  (498) 
nan

>  <Pocket>  (498) 
nan

>  <ATP_Site>  (498) 
nan

>  <Peripheral>  (498) 
nan

>  <Num_H_Atoms_ProtBoundConf>  (498) 
nan

>  <Num_Resolved_Atoms>  (498) 
nan

>  <Num_Not_Resolved_Atoms>  (498) 
nan

$$$$
CHEMBL4214903
     RDKit          3D

  0  0  0  0  0  0  0  0  0  0999 V3000
M  V30 BEGIN CTAB
M  V30 COUNTS 26 27 0 0 0
M  V30 BEGIN ATOM
M  V30 1 C -0.958232 -3.824153 1.780441 0
M  V30 2 C 0.098974 -2.857381 1.359365 0
M  V30 3 C -0.217325 -1.556263 1.099374 0
M  V30 4 C 0.715306 -0.609273 0.705075 0
M  V30 5 C 2.044206 -1.025893 0.571832 0
M  V30 6 C 2.375031 -2.340014 0.832418 0
M  V30 7 C 1.402561 -3.247765 1.224219 0
M  V30 8 Br 1.883781 -5.054172 1.577759 0
M  V30 9 N 2.854949 0.079128 0.160673 0
M  V30 10 C 2.060309 1.257370 0.014862 0
M  V30 11 O 2.327846 2.425520 -0.315815 0
M  V30 12 C 0.716616 0.821107 0.357705 0
M  V30 13 N -0.408608 1.438358 0.406322 0
M  V30 14 N -0.400814 2.797368 0.075123 0
M  V30 15 C -1.793638 3.087765 0.053144 0
M  V30 16 N -2.807614 2.126744 0.322639 0
M  V30 17 S -2.392947 4.587741 -0.291146 0
M  V30 18 H -0.550776 -4.838042 1.851111 0
M  V30 19 H -1.453524 -3.501376 2.736151 0
M  V30 20 H -1.726515 -3.810522 0.971243 0
M  V30 21 H -1.249179 -1.223654 1.200630 0
M  V30 22 H 3.395585 -2.689978 0.737378 0
M  V30 23 H 3.892204 0.082753 -0.023133 0
M  V30 24 H 0.230444 3.597018 -0.141679 0
M  V30 25 H -3.396391 1.742488 1.118578 0
M  V30 26 H -2.866293 1.798196 -0.666123 0
M  V30 END ATOM
M  V30 BEGIN BOND
M  V30 1 1 1 2
M  V30 2 2 2 3
M  V30 3 1 3 4
M  V30 4 2 4 5
M  V30 5 1 5 6
M  V30 6 2 6 7
M  V30 7 1 7 8
M  V30 8 1 5 9
M  V30 9 1 9 10
M  V30 10 2 10 11
M  V30 11 1 10 12
M  V30 12 2 12 13
M  V30 13 1 13 14
M  V30 14 1 14 15
M  V30 15 1 15 16
M  V30 16 2 15 17
M  V30 17 1 7 2
M  V30 18 1 12 4
M  V30 19 1 1 18
M  V30 20 1 1 19
M  V30 21 1 1 20
M  V30 22 1 3 21
M  V30 23 1 6 22
M  V30 24 1 9 23
M  V30 25 1 14 24
M  V30 26 1 16 25
M  V30 27 1 16 26
M  V30 END BOND
M  V30 END CTAB
M  END
>  <Dataset>  (499) 
ChEMBL_Kinases

>  <Ligand_Instance>  (499) 
nan

>  <PDB_ID>  (499) 
nan

>  <Standardized_SMILES>  (499) 
Cc1cc2c(cc1Br)NC(=O)/C2=N\NC(N)=S

>  <Name>  (499) 
nan

>  <Pocket>  (499) 
nan

>  <ATP_Site>  (499) 
nan

>  <Peripheral>  (499) 
nan

>  <Num_H_Atoms_ProtBoundConf>  (499) 
nan

>  <Num_Resolved_Atoms>  (499) 
nan

>  <Num_Not_Resolved_Atoms>  (499) 
nan

$$$$
CHEMBL4214897
     RDKit          3D

  0  0  0  0  0  0  0  0  0  0999 V3000
M  V30 BEGIN CTAB
M  V30 COUNTS 57 63 0 0 0
M  V30 BEGIN ATOM
M  V30 1 C 2.610628 -4.100762 2.415119 0
M  V30 2 C 1.393384 -3.225388 2.094989 0 CFG=2
M  V30 3 O 1.481857 -2.151710 2.929136 0
M  V30 4 C 0.426537 -1.166994 2.664551 0 CFG=1
M  V30 5 N 0.788842 -0.567391 1.458679 0
M  V30 6 C 2.099865 -0.496800 1.022747 0
M  V30 7 C 3.278324 -0.891848 1.685563 0
M  V30 8 C 4.549390 -0.769629 1.210788 0
M  V30 9 C 4.702315 -0.196495 -0.054718 0
M  V30 10 C 3.541059 0.185834 -0.687134 0
M  V30 11 C 2.262873 0.068125 -0.219668 0
M  V30 12 C 1.003649 0.401405 -0.634500 0
M  V30 13 C 0.560651 1.004195 -1.756087 0
M  V30 14 C -0.775034 1.276502 -1.947632 0
M  V30 15 C -1.638307 0.902894 -0.932601 0
M  V30 16 C -3.021537 1.094054 -0.849560 0
M  V30 17 C -3.942608 1.650695 -1.711806 0
M  V30 18 C -5.251872 1.688714 -1.331008 0
M  V30 19 C -5.666292 1.190249 -0.121730 0
M  V30 20 C -4.703505 0.651317 0.687987 0
M  V30 21 C -3.336529 0.562803 0.394494 0
M  V30 22 N -2.208783 0.112157 0.954541 0
M  V30 23 C -1.144083 0.293711 0.184805 0
M  V30 24 C 0.182741 0.004849 0.399144 0
M  V30 25 C -1.051916 1.946433 -3.254172 0
M  V30 26 N 0.268329 2.052721 -3.864948 0
M  V30 27 C 1.187326 1.492169 -2.953424 0
M  V30 28 O 2.347637 1.528329 -3.358122 0
M  V30 29 C -0.758513 -1.996122 2.898833 0
M  V30 30 C -1.001744 -3.157626 2.000299 0 CFG=1
M  V30 31 N -1.007715 -2.882253 0.600294 0
M  V30 32 C 0.184507 -4.109662 2.259878 0 CFG=1
M  V30 33 O 0.164145 -5.016038 1.214896 0
M  V30 34 H 2.974030 -3.919664 3.451115 0
M  V30 35 H 2.365801 -5.157697 2.244430 0
M  V30 36 H 3.451202 -3.857059 1.719028 0
M  V30 37 H 1.467313 -3.016165 1.009041 0
M  V30 38 H 0.571121 -0.511944 3.571581 0
M  V30 39 H 3.389075 -1.326644 2.695559 0
M  V30 40 H 5.466461 -1.068890 1.706461 0
M  V30 41 H 5.688979 -0.070201 -0.493462 0
M  V30 42 H 3.741520 0.609814 -1.641077 0
M  V30 43 H -3.649184 2.048113 -2.664327 0
M  V30 44 H -5.953538 2.120466 -2.004306 0
M  V30 45 H -6.700602 1.217884 0.184217 0
M  V30 46 H -5.046164 0.264695 1.633185 0
M  V30 47 H -2.414049 -0.247661 1.859279 0
M  V30 48 H -1.507431 2.951647 -3.136114 0
M  V30 49 H -1.732048 1.349322 -3.884581 0
M  V30 50 H 0.279312 2.497312 -4.804653 0
M  V30 51 H -1.694892 -1.560584 3.222507 0
M  V30 52 H -0.478188 -2.550850 3.919116 0
M  V30 53 H -1.944305 -3.636084 2.322939 0
M  V30 54 H -0.877725 -3.819784 0.113962 0
M  V30 55 H -1.989462 -2.608022 0.311734 0
M  V30 56 H 0.113337 -4.576539 3.245154 0
M  V30 57 H 1.015831 -5.023660 0.710667 0
M  V30 END ATOM
M  V30 BEGIN BOND
M  V30 1 1 1 2
M  V30 2 1 2 3
M  V30 3 1 3 4
M  V30 4 1 4 5
M  V30 5 1 5 6
M  V30 6 2 6 7
M  V30 7 1 7 8
M  V30 8 2 8 9
M  V30 9 1 9 10
M  V30 10 2 10 11
M  V30 11 1 11 12
M  V30 12 2 12 13
M  V30 13 1 13 14
M  V30 14 2 14 15
M  V30 15 1 15 16
M  V30 16 2 16 17
M  V30 17 1 17 18
M  V30 18 2 18 19
M  V30 19 1 19 20
M  V30 20 2 20 21
M  V30 21 1 21 22
M  V30 22 1 22 23
M  V30 23 2 23 24
M  V30 24 1 14 25
M  V30 25 1 25 26
M  V30 26 1 26 27
M  V30 27 2 27 28
M  V30 28 1 4 29
M  V30 29 1 29 30
M  V30 30 1 30 31
M  V30 31 1 30 32
M  V30 32 1 32 33
M  V30 33 1 32 2
M  V30 34 1 24 5
M  V30 35 1 11 6
M  V30 36 1 24 12
M  V30 37 1 27 13
M  V30 38 1 23 15
M  V30 39 1 21 16
M  V30 40 1 1 34
M  V30 41 1 1 35
M  V30 42 1 1 36
M  V30 43 1 2 37 CFG=3
M  V30 44 1 4 38 CFG=1
M  V30 45 1 7 39
M  V30 46 1 8 40
M  V30 47 1 9 41
M  V30 48 1 10 42
M  V30 49 1 17 43
M  V30 50 1 18 44
M  V30 51 1 19 45
M  V30 52 1 20 46
M  V30 53 1 22 47
M  V30 54 1 25 48
M  V30 55 1 25 49
M  V30 56 1 26 50
M  V30 57 1 29 51
M  V30 58 1 29 52
M  V30 59 1 30 53 CFG=1
M  V30 60 1 31 54
M  V30 61 1 31 55
M  V30 62 1 32 56 CFG=1
M  V30 63 1 33 57
M  V30 END BOND
M  V30 END CTAB
M  END
>  <Dataset>  (500) 
ChEMBL_Kinases

>  <Ligand_Instance>  (500) 
nan

>  <PDB_ID>  (500) 
nan

>  <Standardized_SMILES>  (500) 
C[C@@H]1O[C@@H](n2c3ccccc3c3c4c(c5c6ccccc6[nH]c5c32)CNC4=O)C[C@@H](N)[C@H]1O

>  <Name>  (500) 
nan

>  <Pocket>  (500) 
nan

>  <ATP_Site>  (500) 
nan

>  <Peripheral>  (500) 
nan

>  <Num_H_Atoms_ProtBoundConf>  (500) 
nan

>  <Num_Resolved_Atoms>  (500) 
nan

>  <Num_Not_Resolved_Atoms>  (500) 
nan

$$$$
CHEMBL4214863
     RDKit          3D

  0  0  0  0  0  0  0  0  0  0999 V3000
M  V30 BEGIN CTAB
M  V30 COUNTS 81 86 0 0 0
M  V30 BEGIN ATOM
M  V30 1 C -2.963745 -4.700453 -6.082642 0
M  V30 2 C -3.339424 -4.002485 -7.373676 0
M  V30 3 N -2.887224 -2.619690 -7.312808 0
M  V30 4 C -1.457855 -2.581799 -7.326606 0
M  V30 5 C -0.978877 -1.182633 -7.549315 0
M  V30 6 N -2.032895 -0.249255 -7.291706 0
M  V30 7 C -1.984222 0.621455 -6.162406 0
M  V30 8 C -1.279881 0.163019 -5.061391 0
M  V30 9 C -1.197554 1.007235 -3.970687 0
M  V30 10 C -1.765042 2.277121 -3.893031 0
M  V30 11 N -1.601282 3.067341 -2.697288 0
M  V30 12 C -1.001219 2.352941 -1.605266 0
M  V30 13 N 0.310404 1.985149 -1.509454 0
M  V30 14 C 0.762966 1.314133 -0.430877 0
M  V30 15 C -0.140716 1.000710 0.594884 0
M  V30 16 C -1.440531 1.371540 0.489404 0
M  V30 17 N -1.831533 2.028984 -0.593703 0
M  V30 18 N -2.304709 1.023666 1.559719 0
M  V30 19 C -3.695870 1.395441 1.521963 0
M  V30 20 C -1.869177 0.301952 2.729791 0
M  V30 21 O -2.588816 -0.018648 3.686881 0
M  V30 22 N -0.489279 -0.060467 2.761048 0
M  V30 23 C 0.074688 -0.796453 3.845026 0
M  V30 24 C 0.712650 -0.341147 4.976416 0
M  V30 25 C 1.160664 -1.271248 5.880231 0
M  V30 26 N 1.843940 -0.741934 7.042140 0
M  V30 27 C 3.188056 -0.720238 6.529374 0
M  V30 28 O 3.152218 -1.164002 5.327018 0
M  V30 29 C 4.442161 -0.298507 7.152063 0
M  V30 30 C 5.525516 -0.418011 6.313202 0
M  V30 31 C 6.783737 -0.057012 6.758783 0
M  V30 32 C 6.878374 0.418100 8.063623 0
M  V30 33 C 5.746467 0.512774 8.854332 0
M  V30 34 C 6.020479 1.035968 10.217390 0
M  V30 35 F 6.584487 2.302912 10.047388 0
M  V30 36 F 7.010967 0.250518 10.823045 0
M  V30 37 F 4.919197 1.146022 11.010363 0
M  V30 38 C 4.486577 0.156208 8.422199 0
M  V30 39 C 1.047448 -2.639755 5.796078 0
M  V30 40 C 0.397025 -3.085189 4.640486 0
M  V30 41 C -0.070526 -2.177318 3.700830 0
M  V30 42 C -0.733713 -2.888206 2.553848 0
M  V30 43 C 0.496599 0.260613 1.728655 0
M  V30 44 C -2.452254 2.661764 -5.031509 0
M  V30 45 N -2.538948 1.848332 -6.098358 0
M  V30 46 C -3.048364 -0.409243 -8.342564 0
M  V30 47 C -3.490135 -1.862487 -8.404086 0
M  V30 48 H -2.660304 -3.953492 -5.309835 0
M  V30 49 H -2.072862 -5.374493 -6.257477 0
M  V30 50 H -3.769855 -5.345805 -5.700767 0
M  V30 51 H -4.460728 -4.037884 -7.416821 0
M  V30 52 H -2.916758 -4.523159 -8.250477 0
M  V30 53 H -1.022057 -3.228288 -8.139708 0
M  V30 54 H -1.091763 -3.010647 -6.364402 0
M  V30 55 H -0.057338 -0.957366 -6.939033 0
M  V30 56 H -0.624993 -1.102789 -8.619377 0
M  V30 57 H -0.827376 -0.809493 -5.074048 0
M  V30 58 H -0.632763 0.578658 -3.141033 0
M  V30 59 H -1.935675 4.052427 -2.775209 0
M  V30 60 H 1.823824 1.044062 -0.406930 0
M  V30 61 H -3.828307 2.312674 2.154968 0
M  V30 62 H -4.386386 0.593907 1.815422 0
M  V30 63 H -3.964837 1.718492 0.500376 0
M  V30 64 H 0.792301 0.729740 5.027987 0
M  V30 65 H 1.775379 -0.393322 8.027870 0
M  V30 66 H 5.499090 -0.787035 5.278394 0
M  V30 67 H 7.646602 -0.142365 6.118984 0
M  V30 68 H 7.878473 0.697009 8.391097 0
M  V30 69 H 3.639912 0.240858 9.051559 0
M  V30 70 H 1.435408 -3.261734 6.564804 0
M  V30 71 H 0.308647 -4.167894 4.573208 0
M  V30 72 H -1.007616 -2.136060 1.783362 0
M  V30 73 H -1.641674 -3.436249 2.909173 0
M  V30 74 H -0.045578 -3.608916 2.053840 0
M  V30 75 H 1.332987 0.866611 2.154715 0
M  V30 76 H 0.836574 -0.699396 1.293638 0
M  V30 77 H -2.902094 3.633656 -5.007801 0
M  V30 78 H -3.947857 0.192692 -8.150589 0
M  V30 79 H -2.615768 -0.097282 -9.291082 0
M  V30 80 H -4.575807 -1.973731 -8.323384 0
M  V30 81 H -3.181150 -2.258040 -9.389055 0
M  V30 END ATOM
M  V30 BEGIN BOND
M  V30 1 1 1 2
M  V30 2 1 2 3
M  V30 3 1 3 4
M  V30 4 1 4 5
M  V30 5 1 5 6
M  V30 6 1 6 7
M  V30 7 2 7 8
M  V30 8 1 8 9
M  V30 9 2 9 10
M  V30 10 1 10 11
M  V30 11 1 11 12
M  V30 12 2 12 13
M  V30 13 1 13 14
M  V30 14 2 14 15
M  V30 15 1 15 16
M  V30 16 2 16 17
M  V30 17 1 16 18
M  V30 18 1 18 19
M  V30 19 1 18 20
M  V30 20 2 20 21
M  V30 21 1 20 22
M  V30 22 1 22 23
M  V30 23 2 23 24
M  V30 24 1 24 25
M  V30 25 1 25 26
M  V30 26 1 26 27
M  V30 27 2 27 28
M  V30 28 1 27 29
M  V30 29 2 29 30
M  V30 30 1 30 31
M  V30 31 2 31 32
M  V30 32 1 32 33
M  V30 33 1 33 34
M  V30 34 1 34 35
M  V30 35 1 34 36
M  V30 36 1 34 37
M  V30 37 2 33 38
M  V30 38 2 25 39
M  V30 39 1 39 40
M  V30 40 2 40 41
M  V30 41 1 41 42
M  V30 42 1 22 43
M  V30 43 1 10 44
M  V30 44 2 44 45
M  V30 45 1 6 46
M  V30 46 1 46 47
M  V30 47 1 47 3
M  V30 48 1 45 7
M  V30 49 1 17 12
M  V30 50 1 41 23
M  V30 51 1 43 15
M  V30 52 1 38 29
M  V30 53 1 1 48
M  V30 54 1 1 49
M  V30 55 1 1 50
M  V30 56 1 2 51
M  V30 57 1 2 52
M  V30 58 1 4 53
M  V30 59 1 4 54
M  V30 60 1 5 55
M  V30 61 1 5 56
M  V30 62 1 8 57
M  V30 63 1 9 58
M  V30 64 1 11 59
M  V30 65 1 14 60
M  V30 66 1 19 61
M  V30 67 1 19 62
M  V30 68 1 19 63
M  V30 69 1 24 64
M  V30 70 1 26 65
M  V30 71 1 30 66
M  V30 72 1 31 67
M  V30 73 1 32 68
M  V30 74 1 38 69
M  V30 75 1 39 70
M  V30 76 1 40 71
M  V30 77 1 42 72
M  V30 78 1 42 73
M  V30 79 1 42 74
M  V30 80 1 43 75
M  V30 81 1 43 76
M  V30 82 1 44 77
M  V30 83 1 46 78
M  V30 84 1 46 79
M  V30 85 1 47 80
M  V30 86 1 47 81
M  V30 END BOND
M  V30 END CTAB
M  END
>  <Dataset>  (501) 
ChEMBL_Kinases

>  <Ligand_Instance>  (501) 
nan

>  <PDB_ID>  (501) 
nan

>  <Standardized_SMILES>  (501) 
CCN1CCN(c2ccc(Nc3ncc4c(n3)N(C)C(=O)N(c3cc(NC(=O)c5cccc(C(F)(F)F)c5)ccc3C)C4)cn2)CC1

>  <Name>  (501) 
nan

>  <Pocket>  (501) 
nan

>  <ATP_Site>  (501) 
nan

>  <Peripheral>  (501) 
nan

>  <Num_H_Atoms_ProtBoundConf>  (501) 
nan

>  <Num_Resolved_Atoms>  (501) 
nan

>  <Num_Not_Resolved_Atoms>  (501) 
nan

$$$$
CHEMBL4214823
     RDKit          3D

  0  0  0  0  0  0  0  0  0  0999 V3000
M  V30 BEGIN CTAB
M  V30 COUNTS 77 81 0 0 0
M  V30 BEGIN ATOM
M  V30 1 C 8.201620 0.578052 1.496629 0
M  V30 2 C 7.115606 0.179408 2.451843 0
M  V30 3 C 5.857678 -0.337256 1.897621 0 CFG=2
M  V30 4 C 6.006936 -1.541492 1.035811 0
M  V30 5 O 7.069506 -1.992538 0.475639 0
M  V30 6 N 4.806449 -2.314721 0.788598 0
M  V30 7 C 3.594253 -1.524504 0.828008 0
M  V30 8 C 2.439853 -2.245861 0.608193 0
M  V30 9 N 1.315201 -1.516909 0.652611 0
M  V30 10 C 1.279653 -0.202999 0.887172 0
M  V30 11 N 0.099532 0.588050 0.941037 0
M  V30 12 C -1.255830 0.203633 0.772844 0
M  V30 13 C -1.637324 -1.095489 0.508570 0
M  V30 14 C -2.935226 -1.527905 0.336020 0
M  V30 15 C -3.959499 -0.607515 0.429774 0
M  V30 16 C -5.382118 -0.886788 0.276326 0
M  V30 17 O -6.293066 -0.020142 0.386522 0
M  V30 18 N -5.879123 -2.189063 -0.017460 0
M  V30 19 C -7.232139 -2.611157 -0.193517 0
M  V30 20 C -7.371177 -3.054677 -1.653863 0
M  V30 21 C -6.336528 -4.088981 -2.023911 0
M  V30 22 N -6.071321 -5.021688 -0.964617 0
M  V30 23 C -5.676999 -6.316505 -1.433937 0
M  V30 24 C -7.147985 -5.124559 -0.023675 0
M  V30 25 C -7.485839 -3.827510 0.647751 0
M  V30 26 C -3.628756 0.703489 0.692565 0
M  V30 27 C -2.326083 1.107823 0.860252 0
M  V30 28 O -2.040366 2.454188 1.126062 0
M  V30 29 C -3.038329 3.451404 1.235527 0
M  V30 30 N 2.418225 0.445262 1.092179 0
M  V30 31 C 3.612325 -0.141529 1.078521 0
M  V30 32 N 4.891410 0.543795 1.305792 0
M  V30 33 C 4.888169 1.918379 0.887048 0
M  V30 34 C 3.645335 2.512325 0.369464 0
M  V30 35 C 3.303408 2.087405 -1.026189 0
M  V30 36 C 4.238367 2.868310 -1.973067 0
M  V30 37 C 5.463086 3.227734 -1.220628 0
M  V30 38 C 5.920272 2.223210 -0.181781 0
M  V30 39 H 9.196485 0.119095 1.793826 0
M  V30 40 H 8.376131 1.681655 1.630714 0
M  V30 41 H 8.014772 0.397494 0.443603 0
M  V30 42 H 7.602696 -0.577283 3.145786 0
M  V30 43 H 6.901100 1.013670 3.196619 0
M  V30 44 H 5.372445 -0.831779 2.845786 0
M  V30 45 H 4.780978 -3.361739 0.585090 0
M  V30 46 H 2.447241 -3.308104 0.416647 0
M  V30 47 H 0.174616 1.632232 1.132055 0
M  V30 48 H -0.946009 -1.894369 0.412816 0
M  V30 49 H -3.231502 -2.540933 0.130112 0
M  V30 50 H -5.202738 -2.975566 -0.128802 0
M  V30 51 H -7.971010 -1.795723 -0.062683 0
M  V30 52 H -8.390809 -3.447734 -1.796032 0
M  V30 53 H -7.174118 -2.162866 -2.307603 0
M  V30 54 H -6.738779 -4.680419 -2.883146 0
M  V30 55 H -5.399511 -3.627894 -2.398516 0
M  V30 56 H -6.115951 -6.522413 -2.453506 0
M  V30 57 H -5.994540 -7.159811 -0.795751 0
M  V30 58 H -4.556613 -6.385882 -1.523685 0
M  V30 59 H -8.051061 -5.505973 -0.552373 0
M  V30 60 H -6.818860 -5.858072 0.767536 0
M  V30 61 H -8.562402 -3.896169 0.946087 0
M  V30 62 H -6.859965 -3.756401 1.582419 0
M  V30 63 H -4.379661 1.465441 0.776695 0
M  V30 64 H -2.509508 4.362762 1.602154 0
M  V30 65 H -3.483277 3.703044 0.260342 0
M  V30 66 H -3.816228 3.207788 1.973702 0
M  V30 67 H 5.183120 2.530465 1.790882 0
M  V30 68 H 2.802902 2.660080 1.059032 0
M  V30 69 H 3.935799 3.621832 0.232118 0
M  V30 70 H 2.278860 2.382146 -1.279345 0
M  V30 71 H 3.562574 1.037783 -1.284542 0
M  V30 72 H 3.740031 3.812953 -2.315152 0
M  V30 73 H 4.448646 2.307908 -2.900136 0
M  V30 74 H 5.514914 4.284570 -0.860505 0
M  V30 75 H 6.303380 3.194720 -1.980468 0
M  V30 76 H 6.146084 1.304873 -0.711976 0
M  V30 77 H 6.812332 2.752949 0.260143 0
M  V30 END ATOM
M  V30 BEGIN BOND
M  V30 1 1 1 2
M  V30 2 1 2 3
M  V30 3 1 3 4
M  V30 4 2 4 5
M  V30 5 1 4 6
M  V30 6 1 6 7
M  V30 7 2 7 8
M  V30 8 1 8 9
M  V30 9 2 9 10
M  V30 10 1 10 11
M  V30 11 1 11 12
M  V30 12 2 12 13
M  V30 13 1 13 14
M  V30 14 2 14 15
M  V30 15 1 15 16
M  V30 16 2 16 17
M  V30 17 1 16 18
M  V30 18 1 18 19
M  V30 19 1 19 20
M  V30 20 1 20 21
M  V30 21 1 21 22
M  V30 22 1 22 23
M  V30 23 1 22 24
M  V30 24 1 24 25
M  V30 25 1 15 26
M  V30 26 2 26 27
M  V30 27 1 27 28
M  V30 28 1 28 29
M  V30 29 1 10 30
M  V30 30 2 30 31
M  V30 31 1 31 32
M  V30 32 1 32 33
M  V30 33 1 33 34
M  V30 34 1 34 35
M  V30 35 1 35 36
M  V30 36 1 36 37
M  V30 37 1 37 38
M  V30 38 1 32 3
M  V30 39 1 38 33
M  V30 40 1 31 7
M  V30 41 1 27 12
M  V30 42 1 25 19
M  V30 43 1 1 39
M  V30 44 1 1 40
M  V30 45 1 1 41
M  V30 46 1 2 42
M  V30 47 1 2 43
M  V30 48 1 3 44 CFG=1
M  V30 49 1 6 45
M  V30 50 1 8 46
M  V30 51 1 11 47
M  V30 52 1 13 48
M  V30 53 1 14 49
M  V30 54 1 18 50
M  V30 55 1 19 51
M  V30 56 1 20 52
M  V30 57 1 20 53
M  V30 58 1 21 54
M  V30 59 1 21 55
M  V30 60 1 23 56
M  V30 61 1 23 57
M  V30 62 1 23 58
M  V30 63 1 24 59
M  V30 64 1 24 60
M  V30 65 1 25 61
M  V30 66 1 25 62
M  V30 67 1 26 63
M  V30 68 1 29 64
M  V30 69 1 29 65
M  V30 70 1 29 66
M  V30 71 1 33 67
M  V30 72 1 34 68
M  V30 73 1 34 69
M  V30 74 1 35 70
M  V30 75 1 35 71
M  V30 76 1 36 72
M  V30 77 1 36 73
M  V30 78 1 37 74
M  V30 79 1 37 75
M  V30 80 1 38 76
M  V30 81 1 38 77
M  V30 END BOND
M  V30 END CTAB
M  END
>  <Dataset>  (502) 
ChEMBL_Kinases

>  <Ligand_Instance>  (502) 
nan

>  <PDB_ID>  (502) 
nan

>  <Standardized_SMILES>  (502) 
CC[C@@H]1C(=O)Nc2cnc(Nc3ccc(C(=O)NC4CCN(C)CC4)cc3OC)nc2N1C1CCCCC1

>  <Name>  (502) 
nan

>  <Pocket>  (502) 
nan

>  <ATP_Site>  (502) 
nan

>  <Peripheral>  (502) 
nan

>  <Num_H_Atoms_ProtBoundConf>  (502) 
nan

>  <Num_Resolved_Atoms>  (502) 
nan

>  <Num_Not_Resolved_Atoms>  (502) 
nan

$$$$
CHEMBL4214797
     RDKit          3D

  0  0  0  0  0  0  0  0  0  0999 V3000
M  V30 BEGIN CTAB
M  V30 COUNTS 64 67 0 0 0
M  V30 BEGIN ATOM
M  V30 1 C 6.297489 -1.563998 5.172321 0
M  V30 2 O 6.069962 -1.354839 3.807375 0
M  V30 3 C 6.210915 -0.117552 3.162917 0
M  V30 4 O 6.542407 0.351585 4.266715 0
M  V30 5 C 5.945151 0.067897 1.696691 0
M  V30 6 C 4.963815 1.230197 1.574146 0 CFG=1
M  V30 7 O 4.658892 1.475170 0.223386 0
M  V30 8 C 3.390415 1.320620 -0.339778 0
M  V30 9 C 3.177741 1.629768 -1.792481 0
M  V30 10 C 2.370096 0.902067 0.397992 0
M  V30 11 C 1.025542 0.724129 -0.154621 0
M  V30 12 O 0.829905 0.969522 -1.353519 0
M  V30 13 C -0.076052 0.260467 0.711055 0
M  V30 14 C 0.136658 -0.006640 2.025617 0
M  V30 15 C -0.942523 -0.423515 2.732899 0
M  V30 16 C -2.157576 -0.559283 2.138648 0
M  V30 17 C -2.404709 -0.289936 0.779015 0
M  V30 18 C -3.822418 -0.523045 0.445245 0 CFG=1
M  V30 19 C -4.283347 -0.283265 -0.925300 0
M  V30 20 C -4.478200 -1.567274 -1.727123 0 CFG=1
M  V30 21 N -4.189129 -1.434592 -3.091615 0
M  V30 22 C -4.936124 -0.467945 -3.824717 0
M  V30 23 C -2.882938 -1.593790 -3.579604 0
M  V30 24 C -3.707081 -2.699414 -1.019643 0 CFG=2
M  V30 25 O -3.752408 -3.839784 -1.789419 0
M  V30 26 C -4.405321 -2.815600 0.317330 0 CFG=1
M  V30 27 C -3.870681 -3.994871 1.115458 0
M  V30 28 O -4.197287 -1.698720 1.024150 0
M  V30 29 C -1.305014 0.128047 0.089004 0
M  V30 30 O -1.477872 0.404632 -1.226719 0
M  V30 31 C 1.452002 0.146291 2.659304 0
M  V30 32 O 1.635829 -0.103279 3.874530 0
M  V30 33 C 2.536273 0.601229 1.812686 0
M  V30 34 C 3.737159 0.769625 2.296108 0
M  V30 35 O 4.034226 0.529000 3.608148 0
M  V30 36 H 5.989749 -2.613150 5.389506 0
M  V30 37 H 7.343562 -1.441527 5.494876 0
M  V30 38 H 5.664585 -0.922656 5.827633 0
M  V30 39 H 5.444895 -0.855614 1.381521 0
M  V30 40 H 6.850698 0.224653 1.107456 0
M  V30 41 H 5.387763 2.151844 2.024158 0
M  V30 42 H 2.489388 2.496750 -1.936149 0
M  V30 43 H 4.150487 2.001321 -2.210970 0
M  V30 44 H 2.904252 0.752021 -2.387580 0
M  V30 45 H -0.768252 -0.639380 3.796097 0
M  V30 46 H -2.930560 -0.908433 2.847819 0
M  V30 47 H -4.360467 0.256268 1.092814 0
M  V30 48 H -5.308218 0.206659 -0.929702 0
M  V30 49 H -3.691789 0.412263 -1.516077 0
M  V30 50 H -5.540282 -1.914134 -1.642870 0
M  V30 51 H -4.673524 0.540542 -3.420994 0
M  V30 52 H -6.024793 -0.638541 -3.828564 0
M  V30 53 H -4.621571 -0.441994 -4.902731 0
M  V30 54 H -2.625694 -0.656398 -4.159596 0
M  V30 55 H -2.065990 -1.724100 -2.852289 0
M  V30 56 H -2.776488 -2.405812 -4.351274 0
M  V30 57 H -2.676715 -2.378499 -0.795900 0
M  V30 58 H -4.693636 -4.128309 -1.873779 0
M  V30 59 H -5.497987 -3.007118 0.157213 0
M  V30 60 H -3.970324 -4.902265 0.502329 0
M  V30 61 H -2.833977 -3.800329 1.467991 0
M  V30 62 H -4.565620 -4.102317 1.987391 0
M  V30 63 H -1.486169 1.373291 -1.509041 0
M  V30 64 H 3.971346 1.306682 4.268224 0
M  V30 END ATOM
M  V30 BEGIN BOND
M  V30 1 1 1 2
M  V30 2 1 2 3
M  V30 3 2 3 4
M  V30 4 1 3 5
M  V30 5 1 5 6
M  V30 6 1 6 7
M  V30 7 1 7 8
M  V30 8 1 8 9
M  V30 9 2 8 10
M  V30 10 1 10 11
M  V30 11 2 11 12
M  V30 12 1 11 13
M  V30 13 2 13 14
M  V30 14 1 14 15
M  V30 15 2 15 16
M  V30 16 1 16 17
M  V30 17 1 17 18
M  V30 18 1 18 19
M  V30 19 1 19 20
M  V30 20 1 20 21
M  V30 21 1 21 22
M  V30 22 1 21 23
M  V30 23 1 20 24
M  V30 24 1 24 25
M  V30 25 1 24 26
M  V30 26 1 26 27
M  V30 27 1 26 28
M  V30 28 2 17 29
M  V30 29 1 29 30
M  V30 30 1 14 31
M  V30 31 2 31 32
M  V30 32 1 31 33
M  V30 33 2 33 34
M  V30 34 1 34 35
M  V30 35 1 34 6
M  V30 36 1 33 10
M  V30 37 1 29 13
M  V30 38 1 28 18
M  V30 39 1 1 36
M  V30 40 1 1 37
M  V30 41 1 1 38
M  V30 42 1 5 39
M  V30 43 1 5 40
M  V30 44 1 6 41 CFG=1
M  V30 45 1 9 42
M  V30 46 1 9 43
M  V30 47 1 9 44
M  V30 48 1 15 45
M  V30 49 1 16 46
M  V30 50 1 18 47 CFG=1
M  V30 51 1 19 48
M  V30 52 1 19 49
M  V30 53 1 20 50 CFG=3
M  V30 54 1 22 51
M  V30 55 1 22 52
M  V30 56 1 22 53
M  V30 57 1 23 54
M  V30 58 1 23 55
M  V30 59 1 23 56
M  V30 60 1 24 57 CFG=1
M  V30 61 1 25 58
M  V30 62 1 26 59 CFG=3
M  V30 63 1 27 60
M  V30 64 1 27 61
M  V30 65 1 27 62
M  V30 66 1 30 63
M  V30 67 1 35 64
M  V30 END BOND
M  V30 END CTAB
M  END
>  <Dataset>  (503) 
ChEMBL_Kinases

>  <Ligand_Instance>  (503) 
nan

>  <PDB_ID>  (503) 
nan

>  <Standardized_SMILES>  (503) 
COC(=O)C[C@H]1OC(C)=C2C(=O)c3c(ccc([C@H]4C[C@@H](N(C)C)[C@H](O)[C@@H](C)O4)c3O)C(=O)C2=C1O

>  <Name>  (503) 
nan

>  <Pocket>  (503) 
nan

>  <ATP_Site>  (503) 
nan

>  <Peripheral>  (503) 
nan

>  <Num_H_Atoms_ProtBoundConf>  (503) 
nan

>  <Num_Resolved_Atoms>  (503) 
nan

>  <Num_Not_Resolved_Atoms>  (503) 
nan

$$$$
CHEMBL4778997
     RDKit          3D

  0  0  0  0  0  0  0  0  0  0999 V3000
M  V30 BEGIN CTAB
M  V30 COUNTS 45 48 0 0 0
M  V30 BEGIN ATOM
M  V30 1 O -0.806319 -4.803439 0.297046 0
M  V30 2 C 0.030738 -5.190796 1.175984 0
M  V30 3 N 1.190023 -4.441590 1.488990 0
M  V30 4 C 1.318313 -3.240672 0.737297 0
M  V30 5 C 0.770178 -2.069442 1.216787 0
M  V30 6 C 0.924452 -0.936202 0.447659 0
M  V30 7 C 1.566465 -0.839355 -0.750632 0
M  V30 8 N 1.723399 0.312698 -1.532617 0
M  V30 9 C 1.261661 1.612964 -1.264008 0
M  V30 10 N 1.497089 2.618742 -2.124076 0
M  V30 11 C 1.098941 3.883952 -1.954834 0
M  V30 12 C 0.389637 4.232718 -0.827774 0
M  V30 13 C -0.053952 5.627185 -0.632629 0
M  V30 14 F 0.335462 6.444933 -1.688699 0
M  V30 15 F 0.539911 6.126330 0.522275 0
M  V30 16 F -1.420344 5.689814 -0.574281 0
M  V30 17 C 0.130603 3.234227 0.071668 0
M  V30 18 N -0.596330 3.508534 1.262771 0
M  V30 19 C -1.006025 2.668676 2.364947 0
M  V30 20 C 0.125314 1.993592 3.125847 0
M  V30 21 C -0.736231 3.086254 3.759435 0
M  V30 22 N 0.571261 1.997910 -0.186696 0
M  V30 23 C 2.089674 -2.044352 -1.170595 0
M  V30 24 C 1.984421 -3.223548 -0.469833 0
M  V30 25 C -0.283808 -6.464573 1.843993 0
M  V30 26 C -1.219503 -7.443852 1.207078 0
M  V30 27 C -1.751929 -6.552700 2.278210 0
M  V30 28 H 1.869201 -4.790119 2.226220 0
M  V30 29 H 0.246906 -2.078403 2.163127 0
M  V30 30 H 0.470959 -0.060982 0.884987 0
M  V30 31 H 2.251759 0.194286 -2.433404 0
M  V30 32 H 1.328528 4.640850 -2.696533 0
M  V30 33 H -0.935027 4.476607 1.453637 0
M  V30 34 H -1.928643 2.055272 2.172820 0
M  V30 35 H -0.017454 0.958045 3.484454 0
M  V30 36 H 1.172260 2.253917 2.876511 0
M  V30 37 H -1.479368 2.751524 4.531572 0
M  V30 38 H -0.283381 4.059523 4.003741 0
M  V30 39 H 2.637329 -2.124401 -2.122245 0
M  V30 40 H 2.419799 -4.151257 -0.851814 0
M  V30 41 H 0.415783 -6.846609 2.619588 0
M  V30 42 H -1.132847 -8.519945 1.362995 0
M  V30 43 H -1.454521 -7.188558 0.132920 0
M  V30 44 H -2.436265 -5.728333 2.054602 0
M  V30 45 H -1.989289 -7.062430 3.233657 0
M  V30 END ATOM
M  V30 BEGIN BOND
M  V30 1 2 1 2
M  V30 2 1 2 3
M  V30 3 1 3 4
M  V30 4 2 4 5
M  V30 5 1 5 6
M  V30 6 2 6 7
M  V30 7 1 7 8
M  V30 8 1 8 9
M  V30 9 2 9 10
M  V30 10 1 10 11
M  V30 11 2 11 12
M  V30 12 1 12 13
M  V30 13 1 13 14
M  V30 14 1 13 15
M  V30 15 1 13 16
M  V30 16 1 12 17
M  V30 17 1 17 18
M  V30 18 1 18 19
M  V30 19 1 19 20
M  V30 20 1 20 21
M  V30 21 2 17 22
M  V30 22 1 7 23
M  V30 23 2 23 24
M  V30 24 1 2 25
M  V30 25 1 25 26
M  V30 26 1 26 27
M  V30 27 1 24 4
M  V30 28 1 27 25
M  V30 29 1 22 9
M  V30 30 1 21 19
M  V30 31 1 3 28
M  V30 32 1 5 29
M  V30 33 1 6 30
M  V30 34 1 8 31
M  V30 35 1 11 32
M  V30 36 1 18 33
M  V30 37 1 19 34
M  V30 38 1 20 35
M  V30 39 1 20 36
M  V30 40 1 21 37
M  V30 41 1 21 38
M  V30 42 1 23 39
M  V30 43 1 24 40
M  V30 44 1 25 41
M  V30 45 1 26 42
M  V30 46 1 26 43
M  V30 47 1 27 44
M  V30 48 1 27 45
M  V30 END BOND
M  V30 END CTAB
M  END
>  <Dataset>  (504) 
ChEMBL_Kinases

>  <Ligand_Instance>  (504) 
nan

>  <PDB_ID>  (504) 
nan

>  <Standardized_SMILES>  (504) 
O=C(Nc1ccc(Nc2ncc(C(F)(F)F)c(NC3CC3)n2)cc1)C1CC1

>  <Name>  (504) 
nan

>  <Pocket>  (504) 
nan

>  <ATP_Site>  (504) 
nan

>  <Peripheral>  (504) 
nan

>  <Num_H_Atoms_ProtBoundConf>  (504) 
nan

>  <Num_Resolved_Atoms>  (504) 
nan

>  <Num_Not_Resolved_Atoms>  (504) 
nan

$$$$
CHEMBL4779005
     RDKit          3D

  0  0  0  0  0  0  0  0  0  0999 V3000
M  V30 BEGIN CTAB
M  V30 COUNTS 54 58 0 0 0
M  V30 BEGIN ATOM
M  V30 1 C 1.653823 -3.249095 7.253616 0
M  V30 2 N 1.303987 -3.265954 5.827080 0
M  V30 3 C 1.896269 -2.501444 4.908943 0
M  V30 4 C 1.285975 -2.811973 3.694599 0
M  V30 5 C 1.617146 -2.208894 2.390496 0
M  V30 6 C 2.054214 -0.880848 2.366762 0
M  V30 7 C 2.375794 -0.269178 1.164264 0
M  V30 8 C 2.263838 -0.976481 -0.020785 0
M  V30 9 C 2.575599 -0.390810 -1.231266 0
M  V30 10 N 3.027976 0.970176 -1.306859 0
M  V30 11 C 2.034443 2.005660 -1.421498 0
M  V30 12 C 2.409663 3.325536 -1.532197 0
M  V30 13 C 1.419776 4.271220 -1.634973 0
M  V30 14 C 0.091414 3.917848 -1.628208 0
M  V30 15 C -0.316874 2.607560 -1.518854 0
M  V30 16 N -1.706829 2.342251 -1.518905 0
M  V30 17 C -2.384586 1.115199 -1.420628 0
M  V30 18 O -1.723482 0.054064 -1.315399 0
M  V30 19 N -3.790185 0.929304 -1.426591 0
M  V30 20 C -4.094922 -0.476536 -1.306129 0
M  V30 21 C -4.238088 -0.964976 -0.022940 0
M  V30 22 C -4.529807 -2.293438 0.218540 0
M  V30 23 C -4.676681 -3.131815 -0.865878 0
M  V30 24 C -4.529273 -2.621562 -2.132295 0
M  V30 25 Br -4.731001 -3.776991 -3.660164 0
M  V30 26 C -4.238628 -1.303512 -2.412690 0
M  V30 27 C 0.690187 1.701048 -1.419350 0
M  V30 28 N 2.445042 -1.135082 -2.368757 0
M  V30 29 C 2.018767 -2.419399 -2.307525 0
M  V30 30 N 1.720517 -2.971860 -1.124700 0
M  V30 31 C 1.831049 -2.283160 0.030907 0
M  V30 32 C 1.502577 -2.927050 1.197865 0
M  V30 33 C 0.317646 -3.785033 3.942855 0
M  V30 34 N 0.368162 -4.033434 5.284151 0
M  V30 35 H 0.776790 -3.523185 7.850317 0
M  V30 36 H 2.442558 -4.033107 7.347782 0
M  V30 37 H 2.109091 -2.274030 7.502114 0
M  V30 38 H 2.679061 -1.790336 5.050014 0
M  V30 39 H 2.148436 -0.314291 3.271393 0
M  V30 40 H 2.720482 0.769385 1.118017 0
M  V30 41 H 4.018738 1.236364 -1.283243 0
M  V30 42 H 3.466807 3.589587 -1.536139 0
M  V30 43 H 1.654416 5.315222 -1.723592 0
M  V30 44 H -0.665455 4.712027 -1.713215 0
M  V30 45 H -2.389830 3.129872 -1.601075 0
M  V30 46 H -4.388342 1.803887 -1.514259 0
M  V30 47 H -4.133800 -0.353673 0.864022 0
M  V30 48 H -4.641304 -2.673638 1.225917 0
M  V30 49 H -4.907261 -4.189054 -0.733313 0
M  V30 50 H -4.120524 -0.891608 -3.405408 0
M  V30 51 H 0.461812 0.661775 -1.331092 0
M  V30 52 H 1.894225 -3.060807 -3.165354 0
M  V30 53 H 1.160299 -3.949702 1.273682 0
M  V30 54 H -0.338752 -4.249482 3.228646 0
M  V30 END ATOM
M  V30 BEGIN BOND
M  V30 1 1 1 2
M  V30 2 1 2 3
M  V30 3 2 3 4
M  V30 4 1 4 5
M  V30 5 2 5 6
M  V30 6 1 6 7
M  V30 7 2 7 8
M  V30 8 1 8 9
M  V30 9 1 9 10
M  V30 10 1 10 11
M  V30 11 2 11 12
M  V30 12 1 12 13
M  V30 13 2 13 14
M  V30 14 1 14 15
M  V30 15 1 15 16
M  V30 16 1 16 17
M  V30 17 2 17 18
M  V30 18 1 17 19
M  V30 19 1 19 20
M  V30 20 2 20 21
M  V30 21 1 21 22
M  V30 22 2 22 23
M  V30 23 1 23 24
M  V30 24 1 24 25
M  V30 25 2 24 26
M  V30 26 2 15 27
M  V30 27 2 9 28
M  V30 28 1 28 29
M  V30 29 2 29 30
M  V30 30 1 30 31
M  V30 31 2 31 32
M  V30 32 1 4 33
M  V30 33 2 33 34
M  V30 34 1 34 2
M  V30 35 1 32 5
M  V30 36 1 31 8
M  V30 37 1 27 11
M  V30 38 1 26 20
M  V30 39 1 1 35
M  V30 40 1 1 36
M  V30 41 1 1 37
M  V30 42 1 3 38
M  V30 43 1 6 39
M  V30 44 1 7 40
M  V30 45 1 10 41
M  V30 46 1 12 42
M  V30 47 1 13 43
M  V30 48 1 14 44
M  V30 49 1 16 45
M  V30 50 1 19 46
M  V30 51 1 21 47
M  V30 52 1 22 48
M  V30 53 1 23 49
M  V30 54 1 26 50
M  V30 55 1 27 51
M  V30 56 1 29 52
M  V30 57 1 32 53
M  V30 58 1 33 54
M  V30 END BOND
M  V30 END CTAB
M  END
>  <Dataset>  (505) 
ChEMBL_Kinases

>  <Ligand_Instance>  (505) 
nan

>  <PDB_ID>  (505) 
nan

>  <Standardized_SMILES>  (505) 
Cn1cc(-c2ccc3c(Nc4cccc(NC(=O)Nc5cccc(Br)c5)c4)ncnc3c2)cn1

>  <Name>  (505) 
nan

>  <Pocket>  (505) 
nan

>  <ATP_Site>  (505) 
nan

>  <Peripheral>  (505) 
nan

>  <Num_H_Atoms_ProtBoundConf>  (505) 
nan

>  <Num_Resolved_Atoms>  (505) 
nan

>  <Num_Not_Resolved_Atoms>  (505) 
nan

$$$$
CHEMBL4215325
     RDKit          3D

  0  0  0  0  0  0  0  0  0  0999 V3000
M  V30 BEGIN CTAB
M  V30 COUNTS 53 58 0 0 0
M  V30 BEGIN ATOM
M  V30 1 F 5.041817 -1.297067 6.199183 0
M  V30 2 C 4.289684 -0.657458 5.260547 0
M  V30 3 C 3.070143 -0.101132 5.596429 0
M  V30 4 C 2.329843 0.543890 4.613632 0
M  V30 5 C 2.818301 0.618743 3.329508 0
M  V30 6 N 2.340058 1.164363 2.197349 0
M  V30 7 C 3.201957 0.972266 1.183409 0
M  V30 8 C 3.196004 1.347508 -0.263473 0
M  V30 9 N 2.617429 0.346072 -1.107022 0
M  V30 10 C 1.278485 -0.129193 -1.030109 0
M  V30 11 N 0.384421 0.325001 -0.133959 0
M  V30 12 C -0.873131 -0.074537 -0.013108 0
M  V30 13 N -1.783311 0.437925 0.951648 0
M  V30 14 C -1.426623 1.473730 1.895809 0
M  V30 15 C -2.753432 2.087533 2.364509 0
M  V30 16 O -3.465232 1.166710 3.092975 0
M  V30 17 C -3.506834 -0.090987 2.506661 0
M  V30 18 C -3.124411 -0.050832 1.044509 0
M  V30 19 N -1.289136 -1.016723 -0.861975 0
M  V30 20 C -0.527067 -1.567838 -1.805764 0
M  V30 21 C 0.770565 -1.115174 -1.886236 0
M  V30 22 N 1.384442 -1.774872 -2.883551 0
M  V30 23 C 0.521141 -2.643228 -3.452723 0
M  V30 24 N -0.644367 -2.500554 -2.777536 0
M  V30 25 C -1.908601 -3.159622 -2.938824 0
M  V30 26 C -2.108650 -4.179084 -2.028930 0
M  V30 27 C -3.276370 -4.920634 -2.041972 0
M  V30 28 C -4.204450 -4.563017 -3.020222 0
M  V30 29 Cl -5.738894 -5.388016 -3.190500 0
M  V30 30 N -4.008002 -3.559376 -3.916278 0
M  V30 31 C -2.857492 -2.834102 -3.897970 0
M  V30 32 N 4.241872 0.280928 1.734707 0
M  V30 33 C 4.033159 0.056919 3.024413 0
M  V30 34 C 4.801577 -0.591622 3.963549 0
M  V30 35 F 5.997616 -1.130219 3.607798 0
M  V30 36 H 2.678000 -0.155909 6.606873 0
M  V30 37 H 1.382210 0.981551 4.853575 0
M  V30 38 H 1.459756 1.665125 2.063820 0
M  V30 39 H 4.225176 1.544349 -0.584213 0
M  V30 40 H 2.667583 2.339609 -0.378702 0
M  V30 41 H 3.202066 -0.107390 -1.868460 0
M  V30 42 H -0.782039 2.251863 1.440970 0
M  V30 43 H -0.962719 1.029254 2.800072 0
M  V30 44 H -2.576026 2.983942 2.994362 0
M  V30 45 H -3.319378 2.331904 1.444408 0
M  V30 46 H -4.538422 -0.493399 2.566828 0
M  V30 47 H -2.858419 -0.785521 3.081326 0
M  V30 48 H -3.121046 -1.105351 0.702950 0
M  V30 49 H -3.814103 0.592412 0.502291 0
M  V30 50 H 0.624713 -3.352092 -4.277000 0
M  V30 51 H -1.393300 -4.464041 -1.265347 0
M  V30 52 H -3.492606 -5.722808 -1.364666 0
M  V30 53 H -2.617895 -2.023780 -4.567969 0
M  V30 END ATOM
M  V30 BEGIN BOND
M  V30 1 1 1 2
M  V30 2 2 2 3
M  V30 3 1 3 4
M  V30 4 2 4 5
M  V30 5 1 5 6
M  V30 6 1 6 7
M  V30 7 1 7 8
M  V30 8 1 8 9
M  V30 9 1 9 10
M  V30 10 2 10 11
M  V30 11 1 11 12
M  V30 12 1 12 13
M  V30 13 1 13 14
M  V30 14 1 14 15
M  V30 15 1 15 16
M  V30 16 1 16 17
M  V30 17 1 17 18
M  V30 18 2 12 19
M  V30 19 1 19 20
M  V30 20 2 20 21
M  V30 21 1 21 22
M  V30 22 2 22 23
M  V30 23 1 23 24
M  V30 24 1 24 25
M  V30 25 2 25 26
M  V30 26 1 26 27
M  V30 27 2 27 28
M  V30 28 1 28 29
M  V30 29 1 28 30
M  V30 30 2 30 31
M  V30 31 2 7 32
M  V30 32 1 32 33
M  V30 33 2 33 34
M  V30 34 1 34 35
M  V30 35 1 34 2
M  V30 36 1 33 5
M  V30 37 1 21 10
M  V30 38 1 31 25
M  V30 39 1 18 13
M  V30 40 1 24 20
M  V30 41 1 3 36
M  V30 42 1 4 37
M  V30 43 1 6 38
M  V30 44 1 8 39
M  V30 45 1 8 40
M  V30 46 1 9 41
M  V30 47 1 14 42
M  V30 48 1 14 43
M  V30 49 1 15 44
M  V30 50 1 15 45
M  V30 51 1 17 46
M  V30 52 1 17 47
M  V30 53 1 18 48
M  V30 54 1 18 49
M  V30 55 1 23 50
M  V30 56 1 26 51
M  V30 57 1 27 52
M  V30 58 1 31 53
M  V30 END BOND
M  V30 END CTAB
M  END
>  <Dataset>  (506) 
ChEMBL_Kinases

>  <Ligand_Instance>  (506) 
nan

>  <PDB_ID>  (506) 
nan

>  <Standardized_SMILES>  (506) 
Fc1ccc2[nH]c(CNc3nc(N4CCOCC4)nc4c3ncn4-c3ccc(Cl)nc3)nc2c1F

>  <Name>  (506) 
nan

>  <Pocket>  (506) 
nan

>  <ATP_Site>  (506) 
nan

>  <Peripheral>  (506) 
nan

>  <Num_H_Atoms_ProtBoundConf>  (506) 
nan

>  <Num_Resolved_Atoms>  (506) 
nan

>  <Num_Not_Resolved_Atoms>  (506) 
nan

$$$$
CHEMBL4216485
     RDKit          3D

  0  0  0  0  0  0  0  0  0  0999 V3000
M  V30 BEGIN CTAB
M  V30 COUNTS 50 55 0 0 0
M  V30 BEGIN ATOM
M  V30 1 O 4.752086 -2.029323 1.389286 0
M  V30 2 C 4.566446 -0.809724 1.467564 0
M  V30 3 N 5.205060 0.185431 2.235608 0
M  V30 4 C 4.561780 1.423494 1.912499 0
M  V30 5 C 4.911428 2.625316 2.493512 0
M  V30 6 C 4.218579 3.746129 2.138414 0
M  V30 7 C 3.179980 3.646655 1.202752 0
M  V30 8 C 2.911695 2.406121 0.683575 0
M  V30 9 C 3.558898 1.255456 0.987531 0
M  V30 10 C 3.538801 -0.145327 0.684473 0
M  V30 11 C 2.666499 -0.632000 -0.139341 0
M  V30 12 S 2.510992 -2.405357 -0.517966 0
M  V30 13 C 0.681309 -2.260101 -0.518689 0
M  V30 14 N -0.264260 -3.002099 -0.050878 0
M  V30 15 N -1.580441 -2.569974 -0.239196 0
M  V30 16 C -2.333401 -2.514853 0.790090 0
M  V30 17 C -3.713574 -2.084522 0.726838 0
M  V30 18 O -4.469817 -1.697391 -0.206812 0
M  V30 19 N -4.300185 -2.125611 2.029806 0
M  V30 20 C -3.263885 -2.588663 2.908191 0
M  V30 21 C -3.264617 -2.820882 4.287380 0
M  V30 22 C -2.092481 -3.275669 4.870326 0
M  V30 23 C -0.920751 -3.516413 4.183960 0
M  V30 24 C -0.955173 -3.274607 2.811602 0
M  V30 25 C -2.103662 -2.821733 2.197253 0
M  V30 26 N 0.582282 -1.022437 -1.225537 0
M  V30 27 C -0.554767 -0.702086 -2.078938 0
M  V30 28 C -0.719049 -0.963299 -3.433129 0
M  V30 29 C -1.883785 -0.560680 -4.038624 0
M  V30 30 C -2.902175 0.085249 -3.395878 0
M  V30 31 O -4.030626 0.440304 -4.122486 0
M  V30 32 C -2.765937 0.356456 -2.055283 0
M  V30 33 C -1.602856 -0.040350 -1.429353 0
M  V30 34 C 1.668974 -0.131280 -1.022995 0
M  V30 35 O 1.761891 0.993321 -1.569322 0
M  V30 36 H 5.986957 -0.040824 2.885388 0
M  V30 37 H 5.701129 2.752151 3.216784 0
M  V30 38 H 4.471359 4.700848 2.577013 0
M  V30 39 H 2.687890 4.584820 0.984278 0
M  V30 40 H 2.085582 2.496297 0.031859 0
M  V30 41 H -5.261699 -1.894181 2.391807 0
M  V30 42 H -4.161827 -2.645320 4.865052 0
M  V30 43 H -2.169717 -3.433891 5.948969 0
M  V30 44 H -0.035824 -3.872294 4.698583 0
M  V30 45 H -0.041630 -3.460211 2.264698 0
M  V30 46 H 0.128242 -1.473513 -3.859720 0
M  V30 47 H -1.949026 -0.796179 -5.101348 0
M  V30 48 H -4.933385 0.187446 -3.760519 0
M  V30 49 H -3.567245 0.859474 -1.569764 0
M  V30 50 H -1.594540 0.224387 -0.360047 0
M  V30 END ATOM
M  V30 BEGIN BOND
M  V30 1 2 1 2
M  V30 2 1 2 3
M  V30 3 1 3 4
M  V30 4 2 4 5
M  V30 5 1 5 6
M  V30 6 2 6 7
M  V30 7 1 7 8
M  V30 8 2 8 9
M  V30 9 1 9 10
M  V30 10 2 10 11
M  V30 11 1 11 12
M  V30 12 1 12 13
M  V30 13 2 13 14
M  V30 14 1 14 15
M  V30 15 2 15 16
M  V30 16 1 16 17
M  V30 17 2 17 18
M  V30 18 1 17 19
M  V30 19 1 19 20
M  V30 20 2 20 21
M  V30 21 1 21 22
M  V30 22 2 22 23
M  V30 23 1 23 24
M  V30 24 2 24 25
M  V30 25 1 13 26
M  V30 26 1 26 27
M  V30 27 2 27 28
M  V30 28 1 28 29
M  V30 29 2 29 30
M  V30 30 1 30 31
M  V30 31 1 30 32
M  V30 32 2 32 33
M  V30 33 1 26 34
M  V30 34 2 34 35
M  V30 35 1 10 2
M  V30 36 1 34 11
M  V30 37 1 9 4
M  V30 38 1 25 16
M  V30 39 1 33 27
M  V30 40 1 25 20
M  V30 41 1 3 36
M  V30 42 1 5 37
M  V30 43 1 6 38
M  V30 44 1 7 39
M  V30 45 1 8 40
M  V30 46 1 19 41
M  V30 47 1 21 42
M  V30 48 1 22 43
M  V30 49 1 23 44
M  V30 50 1 24 45
M  V30 51 1 28 46
M  V30 52 1 29 47
M  V30 53 1 31 48
M  V30 54 1 32 49
M  V30 55 1 33 50
M  V30 END BOND
M  V30 END CTAB
M  END
>  <Dataset>  (507) 
ChEMBL_Kinases

>  <Ligand_Instance>  (507) 
nan

>  <PDB_ID>  (507) 
nan

>  <Standardized_SMILES>  (507) 
O=C1Nc2ccccc2/C1=C1/S/C(=N/N=C2/C(=O)Nc3ccccc32)N(c2ccc(O)cc2)C1=O

>  <Name>  (507) 
nan

>  <Pocket>  (507) 
nan

>  <ATP_Site>  (507) 
nan

>  <Peripheral>  (507) 
nan

>  <Num_H_Atoms_ProtBoundConf>  (507) 
nan

>  <Num_Resolved_Atoms>  (507) 
nan

>  <Num_Not_Resolved_Atoms>  (507) 
nan

$$$$
CHEMBL4216458
     RDKit          3D

  0  0  0  0  0  0  0  0  0  0999 V3000
M  V30 BEGIN CTAB
M  V30 COUNTS 50 53 0 0 0
M  V30 BEGIN ATOM
M  V30 1 C 3.049116 -4.303155 3.913771 0
M  V30 2 C 3.037754 -4.312235 2.427188 0
M  V30 3 C 2.219853 -3.582881 1.578178 0
M  V30 4 C 2.626203 -3.962036 0.317623 0
M  V30 5 N 2.046393 -3.440259 -0.892448 0
M  V30 6 C 0.991250 -2.495138 -0.795767 0
M  V30 7 C 1.349293 -1.175783 -0.589949 0
M  V30 8 C 0.444748 -0.144037 -0.479808 0
M  V30 9 N 0.876310 1.188585 -0.273756 0
M  V30 10 C 2.253465 1.608929 -0.410158 0
M  V30 11 C 2.795290 1.812458 0.978106 0
M  V30 12 N 1.761271 2.404018 1.790212 0
M  V30 13 C 1.096725 1.442875 2.635811 0
M  V30 14 C 0.815697 3.175530 1.012566 0
M  V30 15 C -0.031845 2.269785 0.112720 0
M  V30 16 N -0.860732 -0.448198 -0.580168 0
M  V30 17 C -1.240611 -1.738414 -0.782965 0
M  V30 18 S -2.905712 -2.301678 -0.953906 0
M  V30 19 C -4.121213 -1.028517 -0.852075 0
M  V30 20 C -4.596264 -0.782395 0.424593 0
M  V30 21 C -5.557052 0.186442 0.677809 0
M  V30 22 C -6.062847 0.938497 -0.385657 0
M  V30 23 C -5.593477 0.702643 -1.682619 0
M  V30 24 C -4.637726 -0.270024 -1.890418 0
M  V30 25 N -0.335660 -2.753145 -0.890185 0
M  V30 26 N 3.616450 -4.854954 0.423507 0
M  V30 27 N 3.884731 -5.084396 1.698653 0
M  V30 28 H 3.459052 -5.247106 4.309762 0
M  V30 29 H 3.734159 -3.474127 4.208835 0
M  V30 30 H 2.049680 -4.137067 4.317146 0
M  V30 31 H 1.451274 -2.885968 1.912202 0
M  V30 32 H 2.433834 -3.785210 -1.803079 0
M  V30 33 H 2.387757 -0.921947 -0.505384 0
M  V30 34 H 2.256958 2.618521 -0.911755 0
M  V30 35 H 2.871793 0.962892 -1.047199 0
M  V30 36 H 3.142141 0.832232 1.362189 0
M  V30 37 H 3.701154 2.453116 0.901719 0
M  V30 38 H 0.026046 1.416035 2.328118 0
M  V30 39 H 1.537457 0.437283 2.522302 0
M  V30 40 H 1.111888 1.826064 3.681790 0
M  V30 41 H 1.363089 3.929266 0.448346 0
M  V30 42 H 0.159889 3.709105 1.727862 0
M  V30 43 H -0.943413 1.926682 0.597466 0
M  V30 44 H -0.196871 2.879917 -0.813942 0
M  V30 45 H -4.259447 -1.319437 1.317510 0
M  V30 46 H -5.921183 0.370200 1.691017 0
M  V30 47 H -6.815683 1.702450 -0.213010 0
M  V30 48 H -5.968701 1.273334 -2.539504 0
M  V30 49 H -4.225848 -0.510351 -2.870322 0
M  V30 50 H 4.625088 -5.749839 2.016341 0
M  V30 END ATOM
M  V30 BEGIN BOND
M  V30 1 1 1 2
M  V30 2 2 2 3
M  V30 3 1 3 4
M  V30 4 1 4 5
M  V30 5 1 5 6
M  V30 6 2 6 7
M  V30 7 1 7 8
M  V30 8 1 8 9
M  V30 9 1 9 10
M  V30 10 1 10 11
M  V30 11 1 11 12
M  V30 12 1 12 13
M  V30 13 1 12 14
M  V30 14 1 14 15
M  V30 15 2 8 16
M  V30 16 1 16 17
M  V30 17 1 17 18
M  V30 18 1 18 19
M  V30 19 2 19 20
M  V30 20 1 20 21
M  V30 21 2 21 22
M  V30 22 1 22 23
M  V30 23 2 23 24
M  V30 24 2 17 25
M  V30 25 2 4 26
M  V30 26 1 26 27
M  V30 27 1 27 2
M  V30 28 1 25 6
M  V30 29 1 15 9
M  V30 30 1 24 19
M  V30 31 1 1 28
M  V30 32 1 1 29
M  V30 33 1 1 30
M  V30 34 1 3 31
M  V30 35 1 5 32
M  V30 36 1 7 33
M  V30 37 1 10 34
M  V30 38 1 10 35
M  V30 39 1 11 36
M  V30 40 1 11 37
M  V30 41 1 13 38
M  V30 42 1 13 39
M  V30 43 1 13 40
M  V30 44 1 14 41
M  V30 45 1 14 42
M  V30 46 1 15 43
M  V30 47 1 15 44
M  V30 48 1 20 45
M  V30 49 1 21 46
M  V30 50 1 22 47
M  V30 51 1 23 48
M  V30 52 1 24 49
M  V30 53 1 27 50
M  V30 END BOND
M  V30 END CTAB
M  END
>  <Dataset>  (508) 
ChEMBL_Kinases

>  <Ligand_Instance>  (508) 
nan

>  <PDB_ID>  (508) 
nan

>  <Standardized_SMILES>  (508) 
Cc1cc(Nc2cc(N3CCN(C)CC3)nc(Sc3ccccc3)n2)n[nH]1

>  <Name>  (508) 
nan

>  <Pocket>  (508) 
nan

>  <ATP_Site>  (508) 
nan

>  <Peripheral>  (508) 
nan

>  <Num_H_Atoms_ProtBoundConf>  (508) 
nan

>  <Num_Resolved_Atoms>  (508) 
nan

>  <Num_Not_Resolved_Atoms>  (508) 
nan

$$$$
CHEMBL4216442
     RDKit          3D

  0  0  0  0  0  0  0  0  0  0999 V3000
M  V30 BEGIN CTAB
M  V30 COUNTS 70 74 0 0 0
M  V30 BEGIN ATOM
M  V30 1 C 0.228022 -0.190446 5.838347 0
M  V30 2 O -0.362812 -0.720973 4.659932 0
M  V30 3 C -0.310371 -0.084518 3.442360 0
M  V30 4 C 0.308545 1.123775 3.215528 0
M  V30 5 C 0.311523 1.688615 1.960357 0
M  V30 6 C 0.963021 2.972147 1.680477 0
M  V30 7 O 1.024308 3.474354 0.512216 0
M  V30 8 N 1.598764 3.811375 2.650717 0
M  V30 9 C 2.087513 4.948463 1.906820 0
M  V30 10 C 3.383885 5.219842 1.917960 0
M  V30 11 C 3.976921 6.365644 1.184737 0
M  V30 12 N 2.981911 7.108026 0.462699 0
M  V30 13 C 3.418661 8.249952 -0.328139 0
M  V30 14 C 1.569206 6.831598 0.438103 0
M  V30 15 C 1.184773 5.792358 1.140243 0
M  V30 16 C -0.299614 1.080352 0.874927 0
M  V30 17 C -0.909938 -0.128319 1.137796 0
M  V30 18 C -0.940374 -0.738456 2.381371 0
M  V30 19 N -1.605626 -2.013211 2.453819 0
M  V30 20 C -2.273786 -2.587317 1.309875 0
M  V30 21 N -3.625588 -2.601965 1.189796 0
M  V30 22 C -4.191546 -3.137063 0.098644 0
M  V30 23 C -3.439595 -3.672940 -0.906034 0
M  V30 24 C -2.068653 -3.645551 -0.761955 0
M  V30 25 N -1.510932 -3.106947 0.336713 0
M  V30 26 N -1.124078 -4.138831 -1.702794 0
M  V30 27 C 0.221454 -4.535296 -1.581040 0
M  V30 28 C 0.434169 -6.014903 -1.886927 0
M  V30 29 C 0.555772 -6.634750 -0.525680 0
M  V30 30 C 0.899165 -5.556170 0.457410 0
M  V30 31 C 0.974801 -4.259985 -0.341253 0
M  V30 32 C -1.668905 -4.259749 -3.070697 0 CFG=2
M  V30 33 C -1.667899 -2.866197 -3.689257 0
M  V30 34 C -3.053405 -4.804844 -3.059101 0
M  V30 35 O -3.471147 -5.691928 -3.831584 0
M  V30 36 N -3.958849 -4.274183 -2.098527 0
M  V30 37 C -5.396221 -4.311595 -2.260585 0
M  V30 38 H -0.229049 -0.580533 6.749765 0
M  V30 39 H 1.318441 -0.405731 5.804216 0
M  V30 40 H 0.042023 0.906823 5.837206 0
M  V30 41 H 0.793363 1.623822 4.044552 0
M  V30 42 H 1.593769 3.478945 3.637923 0
M  V30 43 H 4.119073 4.637534 2.456822 0
M  V30 44 H 4.502157 7.010885 1.946578 0
M  V30 45 H 4.730305 5.977699 0.470750 0
M  V30 46 H 4.535482 8.277265 -0.415686 0
M  V30 47 H 2.972311 8.139845 -1.353402 0
M  V30 48 H 3.048468 9.176528 0.146968 0
M  V30 49 H 0.894926 7.452831 -0.127564 0
M  V30 50 H 0.117119 5.561550 1.135621 0
M  V30 51 H -0.310473 1.504696 -0.118168 0
M  V30 52 H -1.389235 -0.610856 0.295800 0
M  V30 53 H -1.623258 -2.568231 3.351314 0
M  V30 54 H -5.268925 -3.153795 -0.006993 0
M  V30 55 H 0.780109 -4.018255 -2.421174 0
M  V30 56 H 1.328036 -6.191345 -2.520747 0
M  V30 57 H -0.457311 -6.395410 -2.388947 0
M  V30 58 H 1.364116 -7.406255 -0.602074 0
M  V30 59 H -0.367990 -7.195896 -0.238207 0
M  V30 60 H 0.145521 -5.493903 1.265338 0
M  V30 61 H 1.862042 -5.826615 0.935348 0
M  V30 62 H 2.087459 -4.168737 -0.573030 0
M  V30 63 H 0.758862 -3.361377 0.219672 0
M  V30 64 H -1.075121 -4.906723 -3.715853 0
M  V30 65 H -2.646813 -2.376430 -3.478585 0
M  V30 66 H -0.824023 -2.306631 -3.243365 0
M  V30 67 H -1.496251 -2.926132 -4.778215 0
M  V30 68 H -5.758819 -5.199797 -1.663979 0
M  V30 69 H -5.917199 -3.404919 -1.923531 0
M  V30 70 H -5.590420 -4.575536 -3.317124 0
M  V30 END ATOM
M  V30 BEGIN BOND
M  V30 1 1 1 2
M  V30 2 1 2 3
M  V30 3 2 3 4
M  V30 4 1 4 5
M  V30 5 1 5 6
M  V30 6 2 6 7
M  V30 7 1 6 8
M  V30 8 1 8 9
M  V30 9 2 9 10
M  V30 10 1 10 11
M  V30 11 1 11 12
M  V30 12 1 12 13
M  V30 13 1 12 14
M  V30 14 2 14 15
M  V30 15 2 5 16
M  V30 16 1 16 17
M  V30 17 2 17 18
M  V30 18 1 18 19
M  V30 19 1 19 20
M  V30 20 2 20 21
M  V30 21 1 21 22
M  V30 22 2 22 23
M  V30 23 1 23 24
M  V30 24 2 24 25
M  V30 25 1 24 26
M  V30 26 1 26 27
M  V30 27 1 27 28
M  V30 28 1 28 29
M  V30 29 1 29 30
M  V30 30 1 30 31
M  V30 31 1 26 32
M  V30 32 1 32 33
M  V30 33 1 32 34
M  V30 34 2 34 35
M  V30 35 1 34 36
M  V30 36 1 36 37
M  V30 37 1 18 3
M  V30 38 1 25 20
M  V30 39 1 31 27
M  V30 40 1 15 9
M  V30 41 1 36 23
M  V30 42 1 1 38
M  V30 43 1 1 39
M  V30 44 1 1 40
M  V30 45 1 4 41
M  V30 46 1 8 42
M  V30 47 1 10 43
M  V30 48 1 11 44
M  V30 49 1 11 45
M  V30 50 1 13 46
M  V30 51 1 13 47
M  V30 52 1 13 48
M  V30 53 1 14 49
M  V30 54 1 15 50
M  V30 55 1 16 51
M  V30 56 1 17 52
M  V30 57 1 19 53
M  V30 58 1 22 54
M  V30 59 1 27 55
M  V30 60 1 28 56
M  V30 61 1 28 57
M  V30 62 1 29 58
M  V30 63 1 29 59
M  V30 64 1 30 60
M  V30 65 1 30 61
M  V30 66 1 31 62
M  V30 67 1 31 63
M  V30 68 1 32 64 CFG=3
M  V30 69 1 33 65
M  V30 70 1 33 66
M  V30 71 1 33 67
M  V30 72 1 37 68
M  V30 73 1 37 69
M  V30 74 1 37 70
M  V30 END BOND
M  V30 END CTAB
M  END
>  <Dataset>  (509) 
ChEMBL_Kinases

>  <Ligand_Instance>  (509) 
nan

>  <PDB_ID>  (509) 
nan

>  <Standardized_SMILES>  (509) 
COc1cc(C(=O)NC2=CCN(C)C=C2)ccc1Nc1ncc2c(n1)N(C1CCCC1)[C@H](C)C(=O)N2C

>  <Name>  (509) 
nan

>  <Pocket>  (509) 
nan

>  <ATP_Site>  (509) 
nan

>  <Peripheral>  (509) 
nan

>  <Num_H_Atoms_ProtBoundConf>  (509) 
nan

>  <Num_Resolved_Atoms>  (509) 
nan

>  <Num_Not_Resolved_Atoms>  (509) 
nan

$$$$
CHEMBL4778587
     RDKit          3D

  0  0  0  0  0  0  0  0  0  0999 V3000
M  V30 BEGIN CTAB
M  V30 COUNTS 80 83 0 0 0
M  V30 BEGIN ATOM
M  V30 1 C 1.416169 3.430818 5.448942 0
M  V30 2 C 1.231115 1.951145 5.277702 0
M  V30 3 C 1.786874 1.373014 4.028645 0
M  V30 4 N 1.244520 1.853000 2.786680 0
M  V30 5 C 1.128522 3.039033 2.051178 0
M  V30 6 O 1.622118 4.085081 2.527561 0
M  V30 7 C 0.477739 3.234654 0.737419 0 CFG=2
M  V30 8 C -0.529727 4.350598 0.786866 0
M  V30 9 C -1.648887 4.168399 1.760679 0
M  V30 10 C -2.593520 5.351139 1.709796 0
M  V30 11 C -3.218349 5.560247 0.378456 0
M  V30 12 C -4.139220 4.390300 0.044344 0
M  V30 13 C -5.301577 4.540853 1.019483 0
M  V30 14 C -4.874131 4.550863 2.450356 0
M  V30 15 C -3.648779 5.336395 2.761796 0
M  V30 16 N -0.042579 2.021530 0.187945 0
M  V30 17 C 0.349799 1.543376 -1.115281 0
M  V30 18 O 1.181326 2.292503 -1.716917 0
M  V30 19 C -0.144110 0.312774 -1.722201 0
M  V30 20 C -0.954702 -0.633689 -1.137708 0
M  V30 21 C -1.375064 -1.764708 -1.796453 0
M  V30 22 C -0.988932 -1.995096 -3.099300 0
M  V30 23 C -1.329169 -3.156823 -3.965335 0
M  V30 24 N -0.293242 -4.165932 -3.854308 0
M  V30 25 C -0.068185 -5.088670 -2.802859 0
M  V30 26 O -0.812794 -5.103153 -1.805633 0
M  V30 27 C 1.062193 -6.020246 -2.924225 0
M  V30 28 C 1.959836 -6.100993 -3.963923 0
M  V30 29 N 2.838410 -7.081143 -3.684033 0
M  V30 30 N 2.548117 -7.633868 -2.513984 0
M  V30 31 C 3.310875 -8.702791 -1.954167 0
M  V30 32 C 4.658411 -8.383079 -1.799257 0
M  V30 33 C 5.555800 -9.286379 -1.272220 0
M  V30 34 C 5.118183 -10.538334 -0.887573 0
M  V30 35 C 3.790436 -10.841585 -1.044987 0
M  V30 36 C 2.881167 -9.947577 -1.570256 0
M  V30 37 C 1.450174 -6.990360 -2.027601 0
M  V30 38 N 0.820399 -7.295446 -0.778893 0
M  V30 39 C -0.162462 -1.052409 -3.730205 0
M  V30 40 C 0.232394 0.066668 -3.026268 0
M  V30 41 H 2.391417 3.769427 5.072747 0
M  V30 42 H 0.578198 3.982631 5.000908 0
M  V30 43 H 1.422457 3.714320 6.541782 0
M  V30 44 H 1.730160 1.469364 6.166433 0
M  V30 45 H 0.144195 1.695089 5.423342 0
M  V30 46 H 1.702940 0.269777 4.063358 0
M  V30 47 H 2.917263 1.540168 4.040247 0
M  V30 48 H 0.767641 1.108076 2.204958 0
M  V30 49 H 1.295690 3.581448 0.036036 0
M  V30 50 H -0.969011 4.478216 -0.230453 0
M  V30 51 H 0.049889 5.280252 0.961707 0
M  V30 52 H -2.130823 3.193907 1.721137 0
M  V30 53 H -1.200341 4.224696 2.783626 0
M  V30 54 H -1.952672 6.259537 1.904924 0
M  V30 55 H -3.886035 6.443685 0.470705 0
M  V30 56 H -2.533543 5.795113 -0.455298 0
M  V30 57 H -4.560711 4.540245 -0.968894 0
M  V30 58 H -3.651676 3.411767 0.138765 0
M  V30 59 H -5.979240 3.673343 0.858329 0
M  V30 60 H -5.849505 5.456191 0.722708 0
M  V30 61 H -4.824860 3.515848 2.859654 0
M  V30 62 H -5.716780 5.046732 3.018516 0
M  V30 63 H -3.889631 6.383185 3.042692 0
M  V30 64 H -3.183887 4.847093 3.667501 0
M  V30 65 H -0.738655 1.430610 0.729655 0
M  V30 66 H -1.251452 -0.443979 -0.120618 0
M  V30 67 H -2.001807 -2.512720 -1.364273 0
M  V30 68 H -1.513528 -2.873191 -4.999314 0
M  V30 69 H -2.259812 -3.625256 -3.569012 0
M  V30 70 H 0.374694 -4.197451 -4.684456 0
M  V30 71 H 1.962330 -5.474494 -4.868912 0
M  V30 72 H 5.097791 -7.418300 -2.076746 0
M  V30 73 H 6.611956 -9.115483 -1.119471 0
M  V30 74 H 5.778570 -11.296189 -0.464215 0
M  V30 75 H 3.412958 -11.797244 -0.760504 0
M  V30 76 H 1.823559 -10.092129 -1.731680 0
M  V30 77 H 0.353591 -8.111069 -0.357317 0
M  V30 78 H 0.855354 -6.458198 -0.144690 0
M  V30 79 H 0.182323 -1.170913 -4.764132 0
M  V30 80 H 0.873259 0.777242 -3.550195 0
M  V30 END ATOM
M  V30 BEGIN BOND
M  V30 1 1 1 2
M  V30 2 1 2 3
M  V30 3 1 3 4
M  V30 4 1 4 5
M  V30 5 2 5 6
M  V30 6 1 5 7
M  V30 7 1 7 8
M  V30 8 1 8 9
M  V30 9 1 9 10
M  V30 10 1 10 11
M  V30 11 1 11 12
M  V30 12 1 12 13
M  V30 13 1 13 14
M  V30 14 1 14 15
M  V30 15 1 7 16
M  V30 16 1 16 17
M  V30 17 2 17 18
M  V30 18 1 17 19
M  V30 19 2 19 20
M  V30 20 1 20 21
M  V30 21 2 21 22
M  V30 22 1 22 23
M  V30 23 1 23 24
M  V30 24 1 24 25
M  V30 25 2 25 26
M  V30 26 1 25 27
M  V30 27 1 27 28
M  V30 28 2 28 29
M  V30 29 1 29 30
M  V30 30 1 30 31
M  V30 31 2 31 32
M  V30 32 1 32 33
M  V30 33 2 33 34
M  V30 34 1 34 35
M  V30 35 2 35 36
M  V30 36 1 30 37
M  V30 37 1 37 38
M  V30 38 1 22 39
M  V30 39 2 39 40
M  V30 40 1 15 10
M  V30 41 1 40 19
M  V30 42 2 37 27
M  V30 43 1 36 31
M  V30 44 1 1 41
M  V30 45 1 1 42
M  V30 46 1 1 43
M  V30 47 1 2 44
M  V30 48 1 2 45
M  V30 49 1 3 46
M  V30 50 1 3 47
M  V30 51 1 4 48
M  V30 52 1 7 49 CFG=3
M  V30 53 1 8 50
M  V30 54 1 8 51
M  V30 55 1 9 52
M  V30 56 1 9 53
M  V30 57 1 10 54
M  V30 58 1 11 55
M  V30 59 1 11 56
M  V30 60 1 12 57
M  V30 61 1 12 58
M  V30 62 1 13 59
M  V30 63 1 13 60
M  V30 64 1 14 61
M  V30 65 1 14 62
M  V30 66 1 15 63
M  V30 67 1 15 64
M  V30 68 1 16 65
M  V30 69 1 20 66
M  V30 70 1 21 67
M  V30 71 1 23 68
M  V30 72 1 23 69
M  V30 73 1 24 70
M  V30 74 1 28 71
M  V30 75 1 32 72
M  V30 76 1 33 73
M  V30 77 1 34 74
M  V30 78 1 35 75
M  V30 79 1 36 76
M  V30 80 1 38 77
M  V30 81 1 38 78
M  V30 82 1 39 79
M  V30 83 1 40 80
M  V30 END BOND
M  V30 END CTAB
M  END
>  <Dataset>  (510) 
ChEMBL_Kinases

>  <Ligand_Instance>  (510) 
nan

>  <PDB_ID>  (510) 
nan

>  <Standardized_SMILES>  (510) 
CCCNC(=O)[C@H](CCC1CCCCC1)NC(=O)c1ccc(CNC(=O)c2cnn(-c3ccccc3)c2N)cc1

>  <Name>  (510) 
nan

>  <Pocket>  (510) 
nan

>  <ATP_Site>  (510) 
nan

>  <Peripheral>  (510) 
nan

>  <Num_H_Atoms_ProtBoundConf>  (510) 
nan

>  <Num_Resolved_Atoms>  (510) 
nan

>  <Num_Not_Resolved_Atoms>  (510) 
nan

$$$$
CHEMBL4216289
     RDKit          3D

  0  0  0  0  0  0  0  0  0  0999 V3000
M  V30 BEGIN CTAB
M  V30 COUNTS 44 46 0 0 0
M  V30 BEGIN ATOM
M  V30 1 C -2.842282 -5.482339 0.239998 0
M  V30 2 N -1.836581 -5.076766 -0.703457 0
M  V30 3 C -1.535643 -5.267991 -2.130486 0
M  V30 4 C -0.680849 -4.040983 -2.465832 0
M  V30 5 C 0.180411 -3.928682 -1.250287 0 CFG=1
M  V30 6 O 1.255506 -4.814174 -1.230404 0
M  V30 7 C 0.643362 -2.539580 -1.173095 0
M  V30 8 C 1.042222 -1.395920 -1.098153 0
M  V30 9 C 1.538756 -0.045472 -1.012704 0
M  V30 10 C 2.190964 0.588163 -2.051061 0
M  V30 11 C 2.660783 1.881894 -1.953752 0
M  V30 12 C 2.451535 2.533733 -0.757324 0
M  V30 13 C 1.812921 1.989529 0.336350 0
M  V30 14 C 1.594382 2.686225 1.601489 0
M  V30 15 C 2.035760 3.978847 1.769323 0
M  V30 16 C 1.790305 4.563368 2.989360 0
M  V30 17 C 1.132669 3.805112 3.915985 0
M  V30 18 N 0.889384 4.430154 5.166432 0
M  V30 19 C 0.679655 2.512036 3.777727 0
M  V30 20 C -0.016998 1.772259 4.823728 0
M  V30 21 N -0.421654 0.450433 4.532785 0
M  V30 22 O -0.180976 2.427437 5.905148 0
M  V30 23 N 0.943258 1.983264 2.567200 0
M  V30 24 C 1.384670 0.692590 0.128877 0
M  V30 25 C -0.801214 -4.247208 -0.166102 0
M  V30 26 O -0.549544 -3.748619 0.975799 0
M  V30 27 H -3.576837 -6.171446 -0.229868 0
M  V30 28 H -2.422912 -6.048395 1.109915 0
M  V30 29 H -3.417764 -4.634631 0.652484 0
M  V30 30 H -0.988058 -6.197861 -2.309776 0
M  V30 31 H -2.514567 -5.252775 -2.646031 0
M  V30 32 H -1.331307 -3.146831 -2.496376 0
M  V30 33 H -0.063772 -4.182056 -3.360007 0
M  V30 34 H 0.875825 -5.694872 -1.540621 0
M  V30 35 H 2.342770 0.056490 -2.978439 0
M  V30 36 H 3.176558 2.380073 -2.777918 0
M  V30 37 H 2.827131 3.543938 -0.704080 0
M  V30 38 H 2.553115 4.548751 1.013421 0
M  V30 39 H 2.107869 5.577026 3.194564 0
M  V30 40 H 1.735835 4.132523 5.735150 0
M  V30 41 H 0.625911 4.918171 6.025520 0
M  V30 42 H -1.369978 0.825206 4.258111 0
M  V30 43 H -1.391988 0.777179 4.245072 0
M  V30 44 H 0.869252 0.191379 0.948921 0
M  V30 END ATOM
M  V30 BEGIN BOND
M  V30 1 1 1 2
M  V30 2 1 2 3
M  V30 3 1 3 4
M  V30 4 1 4 5
M  V30 5 1 5 6
M  V30 6 1 5 7 CFG=1
M  V30 7 3 7 8
M  V30 8 1 8 9
M  V30 9 2 9 10
M  V30 10 1 10 11
M  V30 11 2 11 12
M  V30 12 1 12 13
M  V30 13 1 13 14
M  V30 14 2 14 15
M  V30 15 1 15 16
M  V30 16 2 16 17
M  V30 17 1 17 18
M  V30 18 1 17 19
M  V30 19 1 19 20
M  V30 20 1 20 21
M  V30 21 2 20 22
M  V30 22 2 19 23
M  V30 23 2 13 24
M  V30 24 1 5 25
M  V30 25 2 25 26
M  V30 26 1 25 2
M  V30 27 1 24 9
M  V30 28 1 23 14
M  V30 29 1 1 27
M  V30 30 1 1 28
M  V30 31 1 1 29
M  V30 32 1 3 30
M  V30 33 1 3 31
M  V30 34 1 4 32
M  V30 35 1 4 33
M  V30 36 1 6 34
M  V30 37 1 10 35
M  V30 38 1 11 36
M  V30 39 1 12 37
M  V30 40 1 15 38
M  V30 41 1 16 39
M  V30 42 1 18 40
M  V30 43 1 18 41
M  V30 44 1 21 42
M  V30 45 1 21 43
M  V30 46 1 24 44
M  V30 END BOND
M  V30 END CTAB
M  END
>  <Dataset>  (511) 
ChEMBL_Kinases

>  <Ligand_Instance>  (511) 
nan

>  <PDB_ID>  (511) 
nan

>  <Standardized_SMILES>  (511) 
CN1CC[C@@](O)(C#Cc2cccc(-c3ccc(N)c(C(N)=O)n3)c2)C1=O

>  <Name>  (511) 
nan

>  <Pocket>  (511) 
nan

>  <ATP_Site>  (511) 
nan

>  <Peripheral>  (511) 
nan

>  <Num_H_Atoms_ProtBoundConf>  (511) 
nan

>  <Num_Resolved_Atoms>  (511) 
nan

>  <Num_Not_Resolved_Atoms>  (511) 
nan

$$$$
CHEMBL4216137
     RDKit          3D

  0  0  0  0  0  0  0  0  0  0999 V3000
M  V30 BEGIN CTAB
M  V30 COUNTS 47 51 0 0 0
M  V30 BEGIN ATOM
M  V30 1 O 0.721119 -2.303934 3.571947 0
M  V30 2 C 0.618995 -1.202688 2.951576 0
M  V30 3 C 1.952290 -0.725364 2.378199 0
M  V30 4 C 1.973803 -0.998389 0.928534 0
M  V30 5 C 1.340693 -2.210696 0.606849 0
M  V30 6 C 1.181668 -2.679572 -0.689139 0
M  V30 7 C 1.649323 -1.960528 -1.749325 0
M  V30 8 C 2.277197 -0.767719 -1.475785 0
M  V30 9 C 2.816668 0.061265 -2.436722 0
M  V30 10 C 3.463340 1.251109 -2.175253 0
M  V30 11 C 3.584393 1.651639 -0.838557 0
M  V30 12 C 3.056674 0.847946 0.145707 0
M  V30 13 C 2.422219 -0.325903 -0.183263 0
M  V30 14 O 1.871690 0.689062 2.622336 0
M  V30 15 C 0.703336 1.389234 2.507257 0
M  V30 16 C 0.812264 2.744332 2.276772 0
M  V30 17 C -0.355527 3.504552 2.152878 0
M  V30 18 C -1.638960 2.955183 2.251890 0
M  V30 19 C -1.689391 1.596357 2.482542 0
M  V30 20 C -0.551991 0.835838 2.606069 0
M  V30 21 N -0.618375 -0.546981 2.842452 0
M  V30 22 C -1.859579 -1.269749 2.976132 0
M  V30 23 C -2.359171 -1.863930 1.735043 0
M  V30 24 C -3.203272 -1.331520 0.787492 0
M  V30 25 C -3.599657 -1.994296 -0.339692 0
M  V30 26 C -3.159840 -3.270382 -0.592238 0
M  V30 27 F -3.533760 -3.950733 -1.696737 0
M  V30 28 C -2.316936 -3.872462 0.301483 0
M  V30 29 C -1.955299 -3.167442 1.404777 0
M  V30 30 H 2.780764 -1.135231 2.951506 0
M  V30 31 H 0.919612 -2.894696 1.334527 0
M  V30 32 H 0.694407 -3.611174 -0.931287 0
M  V30 33 H 1.604075 -2.183642 -2.792523 0
M  V30 34 H 2.738278 -0.223140 -3.478488 0
M  V30 35 H 3.861633 1.847116 -3.005172 0
M  V30 36 H 4.102161 2.595900 -0.678597 0
M  V30 37 H 3.217379 1.228056 1.112896 0
M  V30 38 H 1.767364 3.255097 2.185872 0
M  V30 39 H -0.234230 4.564519 1.972337 0
M  V30 40 H -2.507802 3.591093 2.148021 0
M  V30 41 H -2.643044 1.120931 2.573471 0
M  V30 42 H -1.630426 -2.114799 3.687874 0
M  V30 43 H -2.621451 -0.682445 3.525828 0
M  V30 44 H -3.557286 -0.346478 0.962409 0
M  V30 45 H -4.272958 -1.491089 -1.036935 0
M  V30 46 H -1.953650 -4.871608 0.133962 0
M  V30 47 H -1.278654 -3.676907 2.102671 0
M  V30 END ATOM
M  V30 BEGIN BOND
M  V30 1 2 1 2
M  V30 2 1 2 3
M  V30 3 1 3 4
M  V30 4 2 4 5
M  V30 5 1 5 6
M  V30 6 2 6 7
M  V30 7 1 7 8
M  V30 8 2 8 9
M  V30 9 1 9 10
M  V30 10 2 10 11
M  V30 11 1 11 12
M  V30 12 2 12 13
M  V30 13 1 3 14
M  V30 14 1 14 15
M  V30 15 2 15 16
M  V30 16 1 16 17
M  V30 17 2 17 18
M  V30 18 1 18 19
M  V30 19 2 19 20
M  V30 20 1 20 21
M  V30 21 1 21 22
M  V30 22 1 22 23
M  V30 23 2 23 24
M  V30 24 1 24 25
M  V30 25 2 25 26
M  V30 26 1 26 27
M  V30 27 1 26 28
M  V30 28 2 28 29
M  V30 29 1 21 2
M  V30 30 1 29 23
M  V30 31 1 13 4
M  V30 32 1 20 15
M  V30 33 1 13 8
M  V30 34 1 3 30
M  V30 35 1 5 31
M  V30 36 1 6 32
M  V30 37 1 7 33
M  V30 38 1 9 34
M  V30 39 1 10 35
M  V30 40 1 11 36
M  V30 41 1 12 37
M  V30 42 1 16 38
M  V30 43 1 17 39
M  V30 44 1 18 40
M  V30 45 1 19 41
M  V30 46 1 22 42
M  V30 47 1 22 43
M  V30 48 1 24 44
M  V30 49 1 25 45
M  V30 50 1 28 46
M  V30 51 1 29 47
M  V30 END BOND
M  V30 END CTAB
M  END
>  <Dataset>  (512) 
ChEMBL_Kinases

>  <Ligand_Instance>  (512) 
nan

>  <PDB_ID>  (512) 
nan

>  <Standardized_SMILES>  (512) 
O=C1C(c2cccc3ccccc23)Oc2ccccc2N1Cc1ccc(F)cc1

>  <Name>  (512) 
nan

>  <Pocket>  (512) 
nan

>  <ATP_Site>  (512) 
nan

>  <Peripheral>  (512) 
nan

>  <Num_H_Atoms_ProtBoundConf>  (512) 
nan

>  <Num_Resolved_Atoms>  (512) 
nan

>  <Num_Not_Resolved_Atoms>  (512) 
nan

$$$$
CHEMBL4778609
     RDKit          3D

  0  0  0  0  0  0  0  0  0  0999 V3000
M  V30 BEGIN CTAB
M  V30 COUNTS 46 49 0 0 0
M  V30 BEGIN ATOM
M  V30 1 C 3.830581 -2.692185 3.395463 0
M  V30 2 S 4.832088 -2.693085 1.952982 0
M  V30 3 O 5.981740 -3.642430 2.203226 0
M  V30 4 O 4.048931 -3.270982 0.806251 0
M  V30 5 N 5.512701 -1.180750 1.556835 0
M  V30 6 C 4.775957 -0.003880 1.237881 0
M  V30 7 C 5.105101 0.814041 0.167277 0
M  V30 8 C 4.344094 1.952578 -0.092698 0
M  V30 9 C 3.261683 2.291779 0.693345 0
M  V30 10 C 2.899714 1.494975 1.778009 0
M  V30 11 C 1.747411 1.838445 2.630715 0
M  V30 12 C 0.493960 1.231684 2.136230 0
M  V30 13 O 0.702405 0.561678 1.100369 0
M  V30 14 N -0.800645 1.310683 2.649003 0
M  V30 15 C -1.976181 0.712680 2.137276 0
M  V30 16 N -2.434104 0.066409 1.271673 0
M  V30 17 C -3.647747 -0.371171 1.079143 0
M  V30 18 C -4.294100 -1.145687 0.030515 0
M  V30 19 C -5.537775 -1.753228 -0.003650 0
M  V30 20 N -5.803203 -2.365185 -1.143896 0
M  V30 21 C -4.761777 -2.209368 -1.946466 0
M  V30 22 N -4.575809 -2.644717 -3.197643 0
M  V30 23 C -3.443426 -2.377947 -3.867060 0
M  V30 24 C -2.451786 -1.631874 -3.234146 0
M  V30 25 C -2.698857 -1.212214 -1.949374 0
M  V30 26 Cl -1.451983 -0.260590 -1.216689 0
M  V30 27 C -3.833348 -1.459281 -1.226319 0
M  V30 28 C -4.550378 0.032531 2.136303 0
M  V30 29 S -3.401309 1.006754 3.240552 0
M  V30 30 C 3.684944 0.380930 1.991425 0
M  V30 31 H 2.757507 -2.523382 3.164060 0
M  V30 32 H 4.224173 -2.039535 4.201771 0
M  V30 33 H 3.847871 -3.735173 3.824032 0
M  V30 34 H 6.545676 -0.984188 1.513321 0
M  V30 35 H 5.957131 0.546288 -0.450790 0
M  V30 36 H 4.584523 2.601850 -0.921518 0
M  V30 37 H 2.653721 3.184261 0.501068 0
M  V30 38 H 1.692733 2.944018 2.668975 0
M  V30 39 H 1.926231 1.513473 3.684802 0
M  V30 40 H -0.732374 1.915398 3.508285 0
M  V30 41 H -6.269103 -1.753466 0.817486 0
M  V30 42 H -6.686418 -2.886416 -1.377269 0
M  V30 43 H -3.365833 -2.763446 -4.873524 0
M  V30 44 H -1.542024 -1.417540 -3.773353 0
M  V30 45 H -5.691569 -0.184079 2.267230 0
M  V30 46 H 3.427169 -0.245122 2.816793 0
M  V30 END ATOM
M  V30 BEGIN BOND
M  V30 1 1 1 2
M  V30 2 2 2 3
M  V30 3 2 2 4
M  V30 4 1 2 5
M  V30 5 1 5 6
M  V30 6 2 6 7
M  V30 7 1 7 8
M  V30 8 2 8 9
M  V30 9 1 9 10
M  V30 10 1 10 11
M  V30 11 1 11 12
M  V30 12 2 12 13
M  V30 13 1 12 14
M  V30 14 1 14 15
M  V30 15 2 15 16
M  V30 16 1 16 17
M  V30 17 1 17 18
M  V30 18 2 18 19
M  V30 19 1 19 20
M  V30 20 1 20 21
M  V30 21 2 21 22
M  V30 22 1 22 23
M  V30 23 2 23 24
M  V30 24 1 24 25
M  V30 25 1 25 26
M  V30 26 2 25 27
M  V30 27 2 17 28
M  V30 28 1 28 29
M  V30 29 2 10 30
M  V30 30 1 30 6
M  V30 31 1 29 15
M  V30 32 1 27 18
M  V30 33 1 27 21
M  V30 34 1 1 31
M  V30 35 1 1 32
M  V30 36 1 1 33
M  V30 37 1 5 34
M  V30 38 1 7 35
M  V30 39 1 8 36
M  V30 40 1 9 37
M  V30 41 1 11 38
M  V30 42 1 11 39
M  V30 43 1 14 40
M  V30 44 1 19 41
M  V30 45 1 20 42
M  V30 46 1 23 43
M  V30 47 1 24 44
M  V30 48 1 28 45
M  V30 49 1 30 46
M  V30 END BOND
M  V30 END CTAB
M  END
>  <Dataset>  (513) 
ChEMBL_Kinases

>  <Ligand_Instance>  (513) 
nan

>  <PDB_ID>  (513) 
nan

>  <Standardized_SMILES>  (513) 
CS(=O)(=O)Nc1cccc(CC(=O)Nc2nc(-c3c[nH]c4nccc(Cl)c34)cs2)c1

>  <Name>  (513) 
nan

>  <Pocket>  (513) 
nan

>  <ATP_Site>  (513) 
nan

>  <Peripheral>  (513) 
nan

>  <Num_H_Atoms_ProtBoundConf>  (513) 
nan

>  <Num_Resolved_Atoms>  (513) 
nan

>  <Num_Not_Resolved_Atoms>  (513) 
nan

$$$$
CHEMBL4778611
     RDKit          3D

  0  0  0  0  0  0  0  0  0  0999 V3000
M  V30 BEGIN CTAB
M  V30 COUNTS 44 47 0 0 0
M  V30 BEGIN ATOM
M  V30 1 C 3.246657 -2.631161 1.818318 0
M  V30 2 C 2.761595 -2.128532 0.500385 0
M  V30 3 C 2.059555 -3.042024 -0.268931 0
M  V30 4 C 1.578827 -2.646311 -1.503987 0
M  V30 5 C 1.844194 -1.339976 -1.879699 0
M  V30 6 N 2.532469 -0.498490 -1.087942 0
M  V30 7 C 3.016373 -0.832866 0.110916 0
M  V30 8 C 3.779741 0.106284 0.984613 0
M  V30 9 N 3.894884 1.399803 0.321512 0
M  V30 10 C 2.746983 2.161578 -0.041748 0
M  V30 11 N 2.778958 3.358447 -0.654820 0
M  V30 12 C 1.649388 4.028804 -0.971475 0
M  V30 13 C 0.392422 3.493065 -0.668110 0
M  V30 14 C 0.374361 2.264671 -0.039230 0
M  V30 15 C -0.905255 1.642550 0.309021 0
M  V30 16 C -2.186176 2.114737 0.097258 0
M  V30 17 N -3.060760 1.190286 0.590914 0
M  V30 18 N -2.357831 0.167336 1.098111 0
M  V30 19 C -2.786945 -1.038651 1.725529 0
M  V30 20 C -2.067129 -1.549337 2.812389 0
M  V30 21 C -2.363232 -2.696217 3.511090 0
M  V30 22 C -3.469735 -3.393485 3.091988 0
M  V30 23 C -4.235858 -2.941105 2.012180 0
M  V30 24 C -3.879773 -1.776939 1.353520 0
M  V30 25 F -4.614995 -1.336558 0.311996 0
M  V30 26 C -1.044133 0.419651 0.938247 0
M  V30 27 N 1.536992 1.651511 0.247385 0
M  V30 28 H 4.250372 -3.065270 1.789511 0
M  V30 29 H 3.215485 -1.827472 2.600345 0
M  V30 30 H 2.563284 -3.428220 2.232570 0
M  V30 31 H 1.877068 -4.054683 0.068734 0
M  V30 32 H 1.025467 -3.277850 -2.171759 0
M  V30 33 H 1.533319 -0.896112 -2.808750 0
M  V30 34 H 3.327858 0.179200 1.988626 0
M  V30 35 H 4.805500 -0.294979 1.069488 0
M  V30 36 H 4.813687 1.835252 0.078558 0
M  V30 37 H 1.697250 4.992742 -1.465760 0
M  V30 38 H -0.532849 3.997668 -0.904720 0
M  V30 39 H -2.446171 3.047596 -0.374194 0
M  V30 40 H -1.191202 -0.986262 3.134795 0
M  V30 41 H -1.739576 -2.998625 4.334491 0
M  V30 42 H -3.748384 -4.308324 3.610659 0
M  V30 43 H -5.083141 -3.533192 1.740392 0
M  V30 44 H -0.191660 -0.199360 1.235174 0
M  V30 END ATOM
M  V30 BEGIN BOND
M  V30 1 1 1 2
M  V30 2 2 2 3
M  V30 3 1 3 4
M  V30 4 2 4 5
M  V30 5 1 5 6
M  V30 6 2 6 7
M  V30 7 1 7 8
M  V30 8 1 8 9
M  V30 9 1 9 10
M  V30 10 2 10 11
M  V30 11 1 11 12
M  V30 12 2 12 13
M  V30 13 1 13 14
M  V30 14 1 14 15
M  V30 15 1 15 16
M  V30 16 2 16 17
M  V30 17 1 17 18
M  V30 18 1 18 19
M  V30 19 2 19 20
M  V30 20 1 20 21
M  V30 21 2 21 22
M  V30 22 1 22 23
M  V30 23 2 23 24
M  V30 24 1 24 25
M  V30 25 1 18 26
M  V30 26 2 14 27
M  V30 27 1 7 2
M  V30 28 1 27 10
M  V30 29 2 26 15
M  V30 30 1 24 19
M  V30 31 1 1 28
M  V30 32 1 1 29
M  V30 33 1 1 30
M  V30 34 1 3 31
M  V30 35 1 4 32
M  V30 36 1 5 33
M  V30 37 1 8 34
M  V30 38 1 8 35
M  V30 39 1 9 36
M  V30 40 1 12 37
M  V30 41 1 13 38
M  V30 42 1 16 39
M  V30 43 1 20 40
M  V30 44 1 21 41
M  V30 45 1 22 42
M  V30 46 1 23 43
M  V30 47 1 26 44
M  V30 END BOND
M  V30 END CTAB
M  END
>  <Dataset>  (514) 
ChEMBL_Kinases

>  <Ligand_Instance>  (514) 
nan

>  <PDB_ID>  (514) 
nan

>  <Standardized_SMILES>  (514) 
Cc1cccnc1CNc1nccc(-c2cnn(-c3ccccc3F)c2)n1

>  <Name>  (514) 
nan

>  <Pocket>  (514) 
nan

>  <ATP_Site>  (514) 
nan

>  <Peripheral>  (514) 
nan

>  <Num_H_Atoms_ProtBoundConf>  (514) 
nan

>  <Num_Resolved_Atoms>  (514) 
nan

>  <Num_Not_Resolved_Atoms>  (514) 
nan

$$$$
CHEMBL4778668
     RDKit          3D

  0  0  0  0  0  0  0  0  0  0999 V3000
M  V30 BEGIN CTAB
M  V30 COUNTS 120 126 0 0 0
M  V30 BEGIN ATOM
M  V30 1 C 6.103460 2.470694 0.499601 0
M  V30 2 C 6.151616 1.008305 0.230836 0
M  V30 3 C 5.183523 0.146419 0.971240 0
M  V30 4 C 6.408939 0.619431 -1.174065 0
M  V30 5 C 7.587918 0.094181 -1.734878 0
M  V30 6 C 7.471267 -0.186755 -3.067478 0
M  V30 7 N 6.207631 0.163824 -3.354924 0
M  V30 8 N 5.600256 0.086854 -4.527106 0
M  V30 9 C 4.329998 0.474224 -4.686165 0
M  V30 10 N 3.647661 0.955272 -3.632864 0
M  V30 11 C 4.273634 1.029230 -2.448474 0
M  V30 12 N 3.503980 1.571551 -1.363684 0
M  V30 13 C 2.151876 1.968112 -1.704383 0 CFG=1
M  V30 14 C 1.290253 2.409502 -0.567534 0
M  V30 15 C 0.002494 2.944857 -1.149578 0
M  V30 16 C -0.278364 2.490110 -2.543802 0 CFG=1
M  V30 17 N -1.513055 3.061867 -2.967577 0
M  V30 18 C -2.666933 2.713231 -2.207670 0
M  V30 19 C -2.919577 1.249041 -2.279420 0
M  V30 20 N -2.589187 0.722775 -3.565470 0
M  V30 21 C -2.167502 -0.608775 -3.931952 0
M  V30 22 O -1.915313 -0.864972 -5.151769 0
M  V30 23 C -2.034793 -1.663822 -2.871045 0
M  V30 24 C -1.507925 -2.915129 -3.595290 0
M  V30 25 O -1.354850 -3.955331 -2.720765 0
M  V30 26 C -0.933608 -5.094110 -3.341984 0
M  V30 27 C 0.399213 -4.935285 -4.001071 0
M  V30 28 O 1.409932 -4.650190 -3.261242 0
M  V30 29 C 1.813376 -3.754683 -2.466389 0
M  V30 30 C 1.172645 -3.411261 -1.146865 0
M  V30 31 O 1.119110 -4.461233 -0.271597 0
M  V30 32 C 0.526186 -4.136473 0.916894 0
M  V30 33 C 1.170501 -3.041716 1.700306 0
M  V30 34 O 0.439043 -2.836047 2.894271 0
M  V30 35 C 0.992397 -1.816044 3.662723 0
M  V30 36 C 0.126716 -1.697325 4.923434 0
M  V30 37 N -1.227265 -1.385097 4.591027 0
M  V30 38 C -2.197899 -1.235962 5.640525 0
M  V30 39 C -1.824419 -1.390888 6.957228 0
M  V30 40 C -2.726737 -1.255414 7.992094 0
M  V30 41 C -4.037089 -0.960137 7.756891 0
M  V30 42 C -4.433886 -0.799479 6.426526 0
M  V30 43 C -3.509832 -0.939880 5.395583 0
M  V30 44 C -4.196227 -0.721772 4.128587 0
M  V30 45 O -3.695901 -0.764369 2.975343 0
M  V30 46 N -5.561788 -0.442632 4.370963 0
M  V30 47 C -6.567577 -0.171629 3.355731 0
M  V30 48 C -6.665146 -1.423145 2.487725 0
M  V30 49 C -7.703843 -1.308662 1.422082 0
M  V30 50 C -7.889048 0.063670 0.925507 0
M  V30 51 O -8.792566 0.238684 0.074070 0
M  V30 52 N -7.098450 1.159356 1.369391 0
M  V30 53 C -6.195756 0.952295 2.473820 0
M  V30 54 O -5.201182 1.683407 2.630553 0
M  V30 55 C -5.709925 -0.489739 5.781540 0
M  V30 56 O -6.790568 -0.293869 6.424812 0
M  V30 57 C -2.712619 1.711586 -4.619579 0
M  V30 58 C -1.810251 2.899014 -4.375226 0
M  V30 59 C 0.822958 3.007701 -3.462109 0
M  V30 60 C 2.127698 3.108091 -2.700912 0
M  V30 61 C 5.579660 0.634503 -2.263317 0
M  V30 62 H 7.044558 2.935594 0.854226 0
M  V30 63 H 5.335245 2.740913 1.282205 0
M  V30 64 H 5.886246 2.993178 -0.459985 0
M  V30 65 H 7.147355 0.712582 0.737396 0
M  V30 66 H 5.593315 -0.575046 1.672647 0
M  V30 67 H 4.453106 0.762908 1.572361 0
M  V30 68 H 4.636273 -0.466821 0.196212 0
M  V30 69 H 8.524393 -0.083556 -1.182003 0
M  V30 70 H 8.243047 -0.595074 -3.701435 0
M  V30 71 H 3.860604 0.399737 -5.651674 0
M  V30 72 H 3.522898 1.819457 -0.368863 0
M  V30 73 H 1.597385 1.115884 -2.196093 0
M  V30 74 H 1.079674 1.610198 0.170546 0
M  V30 75 H 1.735704 3.239543 0.025496 0
M  V30 76 H 0.028889 4.074173 -1.186060 0
M  V30 77 H -0.802390 2.710806 -0.438189 0
M  V30 78 H -0.375588 1.385856 -2.618489 0
M  V30 79 H -3.541430 3.211763 -2.709186 0
M  V30 80 H -2.662886 3.116802 -1.175148 0
M  V30 81 H -2.416354 0.662394 -1.491507 0
M  V30 82 H -4.020132 1.072749 -2.099981 0
M  V30 83 H -1.311411 -1.306867 -2.113925 0
M  V30 84 H -2.995771 -1.912502 -2.412126 0
M  V30 85 H -0.543817 -2.551918 -4.050916 0
M  V30 86 H -2.201503 -3.150216 -4.415409 0
M  V30 87 H -0.800326 -5.891665 -2.555369 0
M  V30 88 H -1.673124 -5.460397 -4.110218 0
M  V30 89 H 0.598322 -5.918638 -4.617295 0
M  V30 90 H 0.203857 -4.173461 -4.856684 0
M  V30 91 H 2.955530 -3.909392 -2.271728 0
M  V30 92 H 1.904046 -2.696712 -2.961493 0
M  V30 93 H 0.281902 -2.803838 -1.202498 0
M  V30 94 H 1.928841 -2.690336 -0.646909 0
M  V30 95 H -0.516119 -3.793852 0.674014 0
M  V30 96 H 0.450635 -5.044110 1.549813 0
M  V30 97 H 2.196033 -3.272566 2.030938 0
M  V30 98 H 1.203102 -2.077643 1.155289 0
M  V30 99 H 2.039218 -1.995826 3.935907 0
M  V30 100 H 0.962767 -0.848868 3.125069 0
M  V30 101 H 0.240471 -2.627956 5.515150 0
M  V30 102 H 0.560752 -0.874321 5.547996 0
M  V30 103 H -1.503984 -1.268497 3.607218 0
M  V30 104 H -0.814481 -1.624752 7.254734 0
M  V30 105 H -2.500331 -1.363962 9.054749 0
M  V30 106 H -4.804163 -0.837199 8.498142 0
M  V30 107 H -7.560985 0.015929 3.819635 0
M  V30 108 H -6.931093 -2.271071 3.167852 0
M  V30 109 H -5.680704 -1.623552 2.050517 0
M  V30 110 H -7.440743 -2.031348 0.611425 0
M  V30 111 H -8.694836 -1.663371 1.811018 0
M  V30 112 H -7.157394 2.116949 0.910357 0
M  V30 113 H -2.444163 1.285087 -5.610952 0
M  V30 114 H -3.781771 1.999112 -4.677238 0
M  V30 115 H -0.875793 2.839244 -4.940818 0
M  V30 116 H -2.355077 3.807485 -4.703467 0
M  V30 117 H 0.939994 2.221771 -4.245742 0
M  V30 118 H 0.551721 3.934942 -3.981292 0
M  V30 119 H 2.083682 4.076152 -2.127198 0
M  V30 120 H 2.977112 3.181527 -3.363277 0
M  V30 END ATOM
M  V30 BEGIN BOND
M  V30 1 1 1 2
M  V30 2 1 2 3
M  V30 3 1 2 4
M  V30 4 1 4 5
M  V30 5 2 5 6
M  V30 6 1 6 7
M  V30 7 1 7 8
M  V30 8 2 8 9
M  V30 9 1 9 10
M  V30 10 2 10 11
M  V30 11 1 11 12
M  V30 12 1 12 13
M  V30 13 1 13 14
M  V30 14 1 14 15
M  V30 15 1 15 16
M  V30 16 1 16 17
M  V30 17 1 17 18
M  V30 18 1 18 19
M  V30 19 1 19 20
M  V30 20 1 20 21
M  V30 21 2 21 22
M  V30 22 1 21 23
M  V30 23 1 23 24
M  V30 24 1 24 25
M  V30 25 1 25 26
M  V30 26 1 26 27
M  V30 27 1 27 28
M  V30 28 1 28 29
M  V30 29 1 29 30
M  V30 30 1 30 31
M  V30 31 1 31 32
M  V30 32 1 32 33
M  V30 33 1 33 34
M  V30 34 1 34 35
M  V30 35 1 35 36
M  V30 36 1 36 37
M  V30 37 1 37 38
M  V30 38 2 38 39
M  V30 39 1 39 40
M  V30 40 2 40 41
M  V30 41 1 41 42
M  V30 42 2 42 43
M  V30 43 1 43 44
M  V30 44 2 44 45
M  V30 45 1 44 46
M  V30 46 1 46 47
M  V30 47 1 47 48
M  V30 48 1 48 49
M  V30 49 1 49 50
M  V30 50 2 50 51
M  V30 51 1 50 52
M  V30 52 1 52 53
M  V30 53 2 53 54
M  V30 54 1 46 55
M  V30 55 2 55 56
M  V30 56 1 20 57
M  V30 57 1 57 58
M  V30 58 1 16 59
M  V30 59 1 59 60
M  V30 60 1 11 61
M  V30 61 2 61 4
M  V30 62 1 61 7
M  V30 63 1 60 13
M  V30 64 1 58 17
M  V30 65 1 43 38
M  V30 66 1 53 47
M  V30 67 1 55 42
M  V30 68 1 1 62
M  V30 69 1 1 63
M  V30 70 1 1 64
M  V30 71 1 2 65
M  V30 72 1 3 66
M  V30 73 1 3 67
M  V30 74 1 3 68
M  V30 75 1 5 69
M  V30 76 1 6 70
M  V30 77 1 9 71
M  V30 78 1 12 72
M  V30 79 1 13 73 CFG=3
M  V30 80 1 14 74
M  V30 81 1 14 75
M  V30 82 1 15 76
M  V30 83 1 15 77
M  V30 84 1 16 78 CFG=1
M  V30 85 1 18 79
M  V30 86 1 18 80
M  V30 87 1 19 81
M  V30 88 1 19 82
M  V30 89 1 23 83
M  V30 90 1 23 84
M  V30 91 1 24 85
M  V30 92 1 24 86
M  V30 93 1 26 87
M  V30 94 1 26 88
M  V30 95 1 27 89
M  V30 96 1 27 90
M  V30 97 1 29 91
M  V30 98 1 29 92
M  V30 99 1 30 93
M  V30 100 1 30 94
M  V30 101 1 32 95
M  V30 102 1 32 96
M  V30 103 1 33 97
M  V30 104 1 33 98
M  V30 105 1 35 99
M  V30 106 1 35 100
M  V30 107 1 36 101
M  V30 108 1 36 102
M  V30 109 1 37 103
M  V30 110 1 39 104
M  V30 111 1 40 105
M  V30 112 1 41 106
M  V30 113 1 47 107
M  V30 114 1 48 108
M  V30 115 1 48 109
M  V30 116 1 49 110
M  V30 117 1 49 111
M  V30 118 1 52 112
M  V30 119 1 57 113
M  V30 120 1 57 114
M  V30 121 1 58 115
M  V30 122 1 58 116
M  V30 123 1 59 117
M  V30 124 1 59 118
M  V30 125 1 60 119
M  V30 126 1 60 120
M  V30 END BOND
M  V30 END CTAB
M  END
>  <Dataset>  (515) 
ChEMBL_Kinases

>  <Ligand_Instance>  (515) 
nan

>  <PDB_ID>  (515) 
nan

>  <Standardized_SMILES>  (515) 
CC(C)c1ccn2ncnc(N[C@H]3CC[C@@H](N4CCN(C(=O)CCOCCOCCOCCOCCNc5cccc6c5C(=O)N(C5CCC(=O)NC5=O)C6=O)CC4)CC3)c12

>  <Name>  (515) 
nan

>  <Pocket>  (515) 
nan

>  <ATP_Site>  (515) 
nan

>  <Peripheral>  (515) 
nan

>  <Num_H_Atoms_ProtBoundConf>  (515) 
nan

>  <Num_Resolved_Atoms>  (515) 
nan

>  <Num_Not_Resolved_Atoms>  (515) 
nan

$$$$
CHEMBL4216080
     RDKit          3D

  0  0  0  0  0  0  0  0  0  0999 V3000
M  V30 BEGIN CTAB
M  V30 COUNTS 55 58 0 0 0
M  V30 BEGIN ATOM
M  V30 1 C 1.667081 -1.793269 4.187619 0
M  V30 2 C 3.023052 -1.167382 3.958203 0
M  V30 3 N 3.089981 -0.507423 2.629518 0
M  V30 4 C 4.454922 0.049268 2.581580 0
M  V30 5 C 4.588977 1.171694 3.584341 0
M  V30 6 C 2.958693 -1.564837 1.669201 0
M  V30 7 C 2.903357 -1.117598 0.243122 0
M  V30 8 N 1.755983 -0.287554 0.001190 0
M  V30 9 C 1.247073 0.921081 0.459290 0
M  V30 10 O 1.931234 1.510007 1.331612 0
M  V30 11 C 0.029729 1.554584 0.037614 0
M  V30 12 C -0.321201 2.752868 0.612819 0
M  V30 13 C -1.472883 3.443297 0.274776 0
M  V30 14 C -2.340559 2.935018 -0.686081 0
M  V30 15 C -1.985557 1.744952 -1.252712 0
M  V30 16 C -2.919349 1.223515 -2.267289 0
M  V30 17 C -3.589866 1.785548 -3.330879 0
M  V30 18 N -4.327643 0.837840 -3.940688 0
M  V30 19 C -4.129454 -0.333930 -3.266694 0
M  V30 20 C -4.653199 -1.592102 -3.490029 0
M  V30 21 C -4.308353 -2.646724 -2.668769 0
M  V30 22 C -3.435548 -2.359383 -1.648945 0
M  V30 23 C -2.893836 -3.271543 -0.623151 0
M  V30 24 C -3.275073 -4.549230 -0.632111 0
M  V30 25 C -2.913840 -5.534985 0.194762 0
M  V30 26 C -1.987803 -5.004375 1.175583 0
M  V30 27 S -1.821822 -3.149270 0.695660 0
M  V30 28 N -2.948129 -1.119855 -1.465924 0
M  V30 29 N -3.268439 -0.091027 -2.246114 0
M  V30 30 C -0.836162 1.064571 -0.909409 0
M  V30 31 H 1.765610 -2.890652 4.165939 0
M  V30 32 H 1.351663 -1.467709 5.222914 0
M  V30 33 H 0.931981 -1.391535 3.458072 0
M  V30 34 H 3.803370 -1.943587 4.019318 0
M  V30 35 H 3.244741 -0.363766 4.704725 0
M  V30 36 H 4.703409 0.428369 1.586854 0
M  V30 37 H 5.133909 -0.794240 2.816786 0
M  V30 38 H 3.601026 1.625204 3.811273 0
M  V30 39 H 4.956899 0.743765 4.537644 0
M  V30 40 H 5.334663 1.940093 3.242108 0
M  V30 41 H 3.759790 -2.333508 1.800060 0
M  V30 42 H 2.006794 -2.115525 1.894032 0
M  V30 43 H 2.928332 -2.005392 -0.398536 0
M  V30 44 H 3.840786 -0.512026 0.015381 0
M  V30 45 H 1.103411 -0.694665 -0.727452 0
M  V30 46 H 0.294350 3.241879 1.383547 0
M  V30 47 H -1.718797 4.382450 0.746926 0
M  V30 48 H -3.236716 3.473655 -0.948071 0
M  V30 49 H -3.468488 2.837270 -3.551318 0
M  V30 50 H -5.342067 -1.833675 -4.290226 0
M  V30 51 H -4.619582 -3.661494 -2.705928 0
M  V30 52 H -3.963606 -5.096932 -1.304302 0
M  V30 53 H -2.816573 -6.484724 0.674789 0
M  V30 54 H -1.251172 -5.067662 2.136618 0
M  V30 55 H -0.620015 0.139718 -1.392001 0
M  V30 END ATOM
M  V30 BEGIN BOND
M  V30 1 1 1 2
M  V30 2 1 2 3
M  V30 3 1 3 4
M  V30 4 1 4 5
M  V30 5 1 3 6
M  V30 6 1 6 7
M  V30 7 1 7 8
M  V30 8 1 8 9
M  V30 9 2 9 10
M  V30 10 1 9 11
M  V30 11 2 11 12
M  V30 12 1 12 13
M  V30 13 2 13 14
M  V30 14 1 14 15
M  V30 15 1 15 16
M  V30 16 2 16 17
M  V30 17 1 17 18
M  V30 18 2 18 19
M  V30 19 1 19 20
M  V30 20 2 20 21
M  V30 21 1 21 22
M  V30 22 1 22 23
M  V30 23 2 23 24
M  V30 24 1 24 25
M  V30 25 2 25 26
M  V30 26 1 26 27
M  V30 27 2 22 28
M  V30 28 1 28 29
M  V30 29 2 15 30
M  V30 30 1 30 11
M  V30 31 1 29 16
M  V30 32 1 29 19
M  V30 33 1 27 23
M  V30 34 1 1 31
M  V30 35 1 1 32
M  V30 36 1 1 33
M  V30 37 1 2 34
M  V30 38 1 2 35
M  V30 39 1 4 36
M  V30 40 1 4 37
M  V30 41 1 5 38
M  V30 42 1 5 39
M  V30 43 1 5 40
M  V30 44 1 6 41
M  V30 45 1 6 42
M  V30 46 1 7 43
M  V30 47 1 7 44
M  V30 48 1 8 45
M  V30 49 1 12 46
M  V30 50 1 13 47
M  V30 51 1 14 48
M  V30 52 1 17 49
M  V30 53 1 20 50
M  V30 54 1 21 51
M  V30 55 1 24 52
M  V30 56 1 25 53
M  V30 57 1 26 54
M  V30 58 1 30 55
M  V30 END BOND
M  V30 END CTAB
M  END
>  <Dataset>  (516) 
ChEMBL_Kinases

>  <Ligand_Instance>  (516) 
nan

>  <PDB_ID>  (516) 
nan

>  <Standardized_SMILES>  (516) 
CCN(CC)CCNC(=O)c1cccc(-c2cnc3ccc(-c4cccs4)nn23)c1

>  <Name>  (516) 
nan

>  <Pocket>  (516) 
nan

>  <ATP_Site>  (516) 
nan

>  <Peripheral>  (516) 
nan

>  <Num_H_Atoms_ProtBoundConf>  (516) 
nan

>  <Num_Resolved_Atoms>  (516) 
nan

>  <Num_Not_Resolved_Atoms>  (516) 
nan

$$$$
CHEMBL4216063
     RDKit          3D

  0  0  0  0  0  0  0  0  0  0999 V3000
M  V30 BEGIN CTAB
M  V30 COUNTS 21 22 0 0 0
M  V30 BEGIN ATOM
M  V30 1 C 0.969233 2.704732 2.197583 0
M  V30 2 N 1.248395 1.299581 1.927938 0
M  V30 3 C 2.170539 0.571905 2.601975 0
M  V30 4 C 2.158166 -0.709816 2.076564 0
M  V30 5 C 1.200803 -0.699314 1.078936 0
M  V30 6 C 0.729228 -1.662191 0.200525 0
M  V30 7 C -0.264578 -1.335281 -0.708688 0
M  V30 8 N -0.655613 -2.396667 -1.542277 0
M  V30 9 C -0.809918 -0.085565 -0.779699 0
M  V30 10 C -0.344516 0.895726 0.099611 0
M  V30 11 C 0.636627 0.557649 0.991117 0
M  V30 12 H 0.005795 2.743008 2.751821 0
M  V30 13 H 1.740314 3.139487 2.835032 0
M  V30 14 H 0.808664 3.224006 1.232333 0
M  V30 15 H 2.817984 0.889441 3.406452 0
M  V30 16 H 2.770053 -1.569018 2.373337 0
M  V30 17 H 1.178910 -2.632309 0.283236 0
M  V30 18 H -1.501237 -2.727203 -1.004509 0
M  V30 19 H -0.462528 -2.944391 -2.407434 0
M  V30 20 H -1.593002 0.127260 -1.514038 0
M  V30 21 H -0.755478 1.894125 0.068742 0
M  V30 END ATOM
M  V30 BEGIN BOND
M  V30 1 1 1 2
M  V30 2 1 2 3
M  V30 3 2 3 4
M  V30 4 1 4 5
M  V30 5 2 5 6
M  V30 6 1 6 7
M  V30 7 1 7 8
M  V30 8 2 7 9
M  V30 9 1 9 10
M  V30 10 2 10 11
M  V30 11 1 11 2
M  V30 12 1 11 5
M  V30 13 1 1 12
M  V30 14 1 1 13
M  V30 15 1 1 14
M  V30 16 1 3 15
M  V30 17 1 4 16
M  V30 18 1 6 17
M  V30 19 1 8 18
M  V30 20 1 8 19
M  V30 21 1 9 20
M  V30 22 1 10 21
M  V30 END BOND
M  V30 END CTAB
M  END
>  <Dataset>  (517) 
ChEMBL_Kinases

>  <Ligand_Instance>  (517) 
nan

>  <PDB_ID>  (517) 
nan

>  <Standardized_SMILES>  (517) 
Cn1ccc2cc(N)ccc21

>  <Name>  (517) 
nan

>  <Pocket>  (517) 
nan

>  <ATP_Site>  (517) 
nan

>  <Peripheral>  (517) 
nan

>  <Num_H_Atoms_ProtBoundConf>  (517) 
nan

>  <Num_Resolved_Atoms>  (517) 
nan

>  <Num_Not_Resolved_Atoms>  (517) 
nan

$$$$
CHEMBL4215555
     RDKit          3D

  0  0  0  0  0  0  0  0  0  0999 V3000
M  V30 BEGIN CTAB
M  V30 COUNTS 41 45 0 0 0
M  V30 BEGIN ATOM
M  V30 1 C 1.869024 -5.938105 1.230838 0
M  V30 2 C 0.948000 -4.851160 0.810672 0
M  V30 3 C -0.345964 -4.908408 1.322630 0
M  V30 4 C -1.221687 -3.923115 0.956656 0
M  V30 5 C -0.881023 -2.874703 0.102944 0
M  V30 6 C 0.422500 -2.858691 -0.383814 0
M  V30 7 N 0.853904 -1.811067 -1.270086 0
M  V30 8 C 1.250407 -1.957698 -2.543695 0
M  V30 9 N 1.565291 -0.740568 -3.003409 0
M  V30 10 C 1.385004 0.205073 -2.060663 0
M  V30 11 C 1.539219 1.573142 -1.966437 0
M  V30 12 C 1.232815 2.202180 -0.768879 0
M  V30 13 C 0.772482 1.491718 0.345396 0
M  V30 14 C 0.516101 2.363821 1.490722 0
M  V30 15 C 1.455223 3.339520 1.820776 0
M  V30 16 C 1.260685 4.188414 2.893106 0
M  V30 17 N 0.160246 4.109952 3.662067 0
M  V30 18 C -0.762533 3.176775 3.365478 0
M  V30 19 N -1.956272 2.850590 3.937938 0
M  V30 20 C -2.537121 1.815761 3.265588 0
M  V30 21 C -1.687618 1.471439 2.232557 0
M  V30 22 C -0.598562 2.314286 2.302114 0
M  V30 23 C 0.622924 0.124629 0.237336 0
M  V30 24 C 0.931059 -0.487501 -0.958528 0
M  V30 25 C 1.330992 -3.837741 -0.034139 0
M  V30 26 H 1.338481 -6.904047 1.134708 0
M  V30 27 H 2.828297 -5.911319 0.686538 0
M  V30 28 H 2.080598 -5.761369 2.313671 0
M  V30 29 H -0.722978 -5.677600 1.995347 0
M  V30 30 H -2.256756 -3.910947 1.325854 0
M  V30 31 H -1.594208 -2.106289 -0.171444 0
M  V30 32 H 1.290789 -2.918168 -3.064588 0
M  V30 33 H 1.895028 2.115993 -2.830313 0
M  V30 34 H 1.386635 3.280866 -0.793171 0
M  V30 35 H 2.369572 3.473896 1.256942 0
M  V30 36 H 1.960878 4.958511 3.185445 0
M  V30 37 H -2.409003 3.301576 4.778799 0
M  V30 38 H -3.490579 1.378758 3.531277 0
M  V30 39 H -1.871806 0.681302 1.517866 0
M  V30 40 H 0.269487 -0.330225 1.130544 0
M  V30 41 H 2.353304 -3.805534 -0.429561 0
M  V30 END ATOM
M  V30 BEGIN BOND
M  V30 1 1 1 2
M  V30 2 2 2 3
M  V30 3 1 3 4
M  V30 4 2 4 5
M  V30 5 1 5 6
M  V30 6 1 6 7
M  V30 7 1 7 8
M  V30 8 2 8 9
M  V30 9 1 9 10
M  V30 10 2 10 11
M  V30 11 1 11 12
M  V30 12 2 12 13
M  V30 13 1 13 14
M  V30 14 2 14 15
M  V30 15 1 15 16
M  V30 16 2 16 17
M  V30 17 1 17 18
M  V30 18 1 18 19
M  V30 19 1 19 20
M  V30 20 2 20 21
M  V30 21 1 21 22
M  V30 22 1 13 23
M  V30 23 2 23 24
M  V30 24 2 6 25
M  V30 25 1 25 2
M  V30 26 1 24 7
M  V30 27 1 24 10
M  V30 28 1 22 14
M  V30 29 2 22 18
M  V30 30 1 1 26
M  V30 31 1 1 27
M  V30 32 1 1 28
M  V30 33 1 3 29
M  V30 34 1 4 30
M  V30 35 1 5 31
M  V30 36 1 8 32
M  V30 37 1 11 33
M  V30 38 1 12 34
M  V30 39 1 15 35
M  V30 40 1 16 36
M  V30 41 1 19 37
M  V30 42 1 20 38
M  V30 43 1 21 39
M  V30 44 1 23 40
M  V30 45 1 25 41
M  V30 END BOND
M  V30 END CTAB
M  END
>  <Dataset>  (518) 
ChEMBL_Kinases

>  <Ligand_Instance>  (518) 
nan

>  <PDB_ID>  (518) 
nan

>  <Standardized_SMILES>  (518) 
Cc1cccc(-n2cnc3ccc(-c4ccnc5[nH]ccc45)cc32)c1

>  <Name>  (518) 
nan

>  <Pocket>  (518) 
nan

>  <ATP_Site>  (518) 
nan

>  <Peripheral>  (518) 
nan

>  <Num_H_Atoms_ProtBoundConf>  (518) 
nan

>  <Num_Resolved_Atoms>  (518) 
nan

>  <Num_Not_Resolved_Atoms>  (518) 
nan

$$$$
CHEMBL4216004
     RDKit          3D

  0  0  0  0  0  0  0  0  0  0999 V3000
M  V30 BEGIN CTAB
M  V30 COUNTS 49 52 0 0 0
M  V30 BEGIN ATOM
M  V30 1 C 2.644599 -4.751376 2.033997 0
M  V30 2 N 3.522729 -3.811578 1.333272 0
M  V30 3 C 3.443823 -3.786334 -0.104299 0
M  V30 4 C 4.634041 -2.940675 -0.475886 0
M  V30 5 C 4.763010 -2.007288 0.729735 0 CFG=1
M  V30 6 O 5.986404 -1.393633 0.812475 0
M  V30 7 C 3.773138 -0.908562 0.619596 0
M  V30 8 C 2.953884 -0.026163 0.518978 0
M  V30 9 C 1.962818 1.011119 0.409104 0
M  V30 10 C 2.283914 2.351905 0.440204 0
M  V30 11 C 1.318209 3.356387 0.333138 0
M  V30 12 N 0.010496 2.988089 0.192798 0
M  V30 13 C -0.339490 1.674449 0.158506 0
M  V30 14 N -1.709864 1.307443 0.011374 0
M  V30 15 N -2.412406 1.207985 -1.114704 0
M  V30 16 C -3.680661 0.832756 -0.829585 0
M  V30 17 C -4.794748 0.601556 -1.745109 0
M  V30 18 N -4.593688 0.775015 -3.142369 0
M  V30 19 O -5.933597 0.257114 -1.398699 0
M  V30 20 C -3.731118 0.704647 0.522422 0
M  V30 21 C -2.492863 1.002422 1.056419 0
M  V30 22 C -2.373445 0.911191 2.529203 0
M  V30 23 C -2.934688 -0.427832 2.961711 0
M  V30 24 C -4.330318 -0.659977 2.471589 0
M  V30 25 C -4.804974 0.329228 1.447098 0
M  V30 26 C 0.644408 0.710072 0.267430 0
M  V30 27 C 4.476029 -2.887862 1.893084 0
M  V30 28 O 4.804595 -3.031872 3.108161 0
M  V30 29 H 2.657164 -4.570998 3.117455 0
M  V30 30 H 2.943600 -5.794262 1.840705 0
M  V30 31 H 1.596087 -4.635279 1.698476 0
M  V30 32 H 2.486140 -3.324510 -0.435377 0
M  V30 33 H 3.594799 -4.787387 -0.565916 0
M  V30 34 H 4.326061 -2.361398 -1.379316 0
M  V30 35 H 5.548510 -3.507280 -0.647369 0
M  V30 36 H 6.614466 -1.825865 0.184544 0
M  V30 37 H 3.312937 2.649997 0.550603 0
M  V30 38 H 1.583728 4.405530 0.359009 0
M  V30 39 H -3.688270 0.378214 -3.523542 0
M  V30 40 H -3.971036 0.612170 -3.956654 0
M  V30 41 H -1.325631 0.965587 2.864622 0
M  V30 42 H -3.014457 1.691086 2.992016 0
M  V30 43 H -2.230811 -1.237507 2.661443 0
M  V30 44 H -2.984945 -0.474508 4.079319 0
M  V30 45 H -5.082300 -0.723651 3.286145 0
M  V30 46 H -4.341459 -1.669884 1.976818 0
M  V30 47 H -5.643935 -0.134349 0.887702 0
M  V30 48 H -5.250279 1.198219 1.974397 0
M  V30 49 H 0.372292 -0.349601 0.240875 0
M  V30 END ATOM
M  V30 BEGIN BOND
M  V30 1 1 1 2
M  V30 2 1 2 3
M  V30 3 1 3 4
M  V30 4 1 4 5
M  V30 5 1 5 6
M  V30 6 1 5 7 CFG=3
M  V30 7 3 7 8
M  V30 8 1 8 9
M  V30 9 2 9 10
M  V30 10 1 10 11
M  V30 11 2 11 12
M  V30 12 1 12 13
M  V30 13 1 13 14
M  V30 14 1 14 15
M  V30 15 2 15 16
M  V30 16 1 16 17
M  V30 17 1 17 18
M  V30 18 2 17 19
M  V30 19 1 16 20
M  V30 20 2 20 21
M  V30 21 1 21 22
M  V30 22 1 22 23
M  V30 23 1 23 24
M  V30 24 1 24 25
M  V30 25 2 13 26
M  V30 26 1 5 27
M  V30 27 2 27 28
M  V30 28 1 27 2
M  V30 29 1 26 9
M  V30 30 1 21 14
M  V30 31 1 25 20
M  V30 32 1 1 29
M  V30 33 1 1 30
M  V30 34 1 1 31
M  V30 35 1 3 32
M  V30 36 1 3 33
M  V30 37 1 4 34
M  V30 38 1 4 35
M  V30 39 1 6 36
M  V30 40 1 10 37
M  V30 41 1 11 38
M  V30 42 1 18 39
M  V30 43 1 18 40
M  V30 44 1 22 41
M  V30 45 1 22 42
M  V30 46 1 23 43
M  V30 47 1 23 44
M  V30 48 1 24 45
M  V30 49 1 24 46
M  V30 50 1 25 47
M  V30 51 1 25 48
M  V30 52 1 26 49
M  V30 END BOND
M  V30 END CTAB
M  END
>  <Dataset>  (519) 
ChEMBL_Kinases

>  <Ligand_Instance>  (519) 
nan

>  <PDB_ID>  (519) 
nan

>  <Standardized_SMILES>  (519) 
CN1CC[C@@](O)(C#Cc2ccnc(-n3nc(C(N)=O)c4c3CCCC4)c2)C1=O

>  <Name>  (519) 
nan

>  <Pocket>  (519) 
nan

>  <ATP_Site>  (519) 
nan

>  <Peripheral>  (519) 
nan

>  <Num_H_Atoms_ProtBoundConf>  (519) 
nan

>  <Num_Resolved_Atoms>  (519) 
nan

>  <Num_Not_Resolved_Atoms>  (519) 
nan

$$$$
CHEMBL4215989
     RDKit          3D

  0  0  0  0  0  0  0  0  0  0999 V3000
M  V30 BEGIN CTAB
M  V30 COUNTS 59 62 0 0 0
M  V30 BEGIN ATOM
M  V30 1 C 1.891485 -3.951628 3.039820 0
M  V30 2 C 1.580300 -2.504047 3.130949 0
M  V30 3 C 1.919775 -1.768631 4.240940 0
M  V30 4 C 1.663340 -0.422989 4.383608 0
M  V30 5 C 1.024555 0.218489 3.339058 0
M  V30 6 N 0.632487 1.602338 3.213991 0
M  V30 7 C 1.594504 2.485375 2.652390 0
M  V30 8 O 2.685757 1.939470 2.334808 0
M  V30 9 C 1.415696 3.922974 2.426099 0
M  V30 10 C 2.514813 4.582083 1.918801 0
M  V30 11 C 2.358537 5.952444 1.685874 0
M  V30 12 C 1.154455 6.562681 1.963543 0
M  V30 13 C 0.054603 5.869492 2.478138 0
M  V30 14 C -1.206444 6.607513 2.742909 0
M  V30 15 F -2.192804 5.614160 2.832713 0
M  V30 16 F -1.118851 7.199187 3.963756 0
M  V30 17 F -1.505480 7.476596 1.713642 0
M  V30 18 C 0.206414 4.516592 2.709233 0
M  V30 19 C 0.678031 -0.531798 2.206301 0
M  V30 20 C 0.944925 -1.901628 2.074619 0
M  V30 21 N 0.546718 -2.564738 0.879647 0
M  V30 22 C -0.808005 -3.068537 0.989943 0
M  V30 23 C -1.280120 -3.727260 -0.262928 0
M  V30 24 C -2.575913 -4.190967 -0.186765 0
M  V30 25 N -3.050061 -4.806404 -1.313092 0
M  V30 26 C -2.284565 -4.942203 -2.420475 0
M  V30 27 N -2.822141 -5.590385 -3.568172 0
M  V30 28 C -3.511775 -4.573159 -4.305229 0
M  V30 29 C -2.679400 -3.421655 -4.752406 0
M  V30 30 O -1.636081 -3.770629 -5.584325 0
M  V30 31 N -1.024994 -4.463682 -2.422880 0
M  V30 32 C -0.455913 -3.838254 -1.363286 0
M  V30 33 N 0.872380 -3.330092 -1.380825 0
M  V30 34 C 1.669364 -3.497672 -2.579473 0
M  V30 35 C 1.417065 -2.670062 -0.240479 0
M  V30 36 O 2.585456 -2.207768 -0.211723 0
M  V30 37 H 1.462776 -4.401850 2.145076 0
M  V30 38 H 1.522832 -4.410415 3.994772 0
M  V30 39 H 3.005325 -4.097043 3.093337 0
M  V30 40 H 2.429111 -2.219723 5.103263 0
M  V30 41 H 1.883859 0.228145 5.193221 0
M  V30 42 H -0.296830 2.036974 3.495317 0
M  V30 43 H 3.461952 4.129037 1.694715 0
M  V30 44 H 3.205251 6.493353 1.288638 0
M  V30 45 H 1.090878 7.642249 1.760302 0
M  V30 46 H -0.635614 4.004328 3.098716 0
M  V30 47 H 0.167872 -0.076383 1.340669 0
M  V30 48 H -0.833579 -3.845505 1.773124 0
M  V30 49 H -1.514235 -2.261364 1.299936 0
M  V30 50 H -3.205332 -4.096344 0.679198 0
M  V30 51 H -2.721139 -6.594308 -3.800562 0
M  V30 52 H -4.025176 -5.089154 -5.146918 0
M  V30 53 H -4.338150 -4.146689 -3.673594 0
M  V30 54 H -3.381262 -2.688900 -5.232083 0
M  V30 55 H -2.252549 -2.867403 -3.891618 0
M  V30 56 H -1.077527 -2.950707 -5.727138 0
M  V30 57 H 1.832334 -4.580594 -2.773220 0
M  V30 58 H 1.049359 -3.129923 -3.445633 0
M  V30 59 H 2.580600 -2.897923 -2.588697 0
M  V30 END ATOM
M  V30 BEGIN BOND
M  V30 1 1 1 2
M  V30 2 2 2 3
M  V30 3 1 3 4
M  V30 4 2 4 5
M  V30 5 1 5 6
M  V30 6 1 6 7
M  V30 7 2 7 8
M  V30 8 1 7 9
M  V30 9 2 9 10
M  V30 10 1 10 11
M  V30 11 2 11 12
M  V30 12 1 12 13
M  V30 13 1 13 14
M  V30 14 1 14 15
M  V30 15 1 14 16
M  V30 16 1 14 17
M  V30 17 2 13 18
M  V30 18 1 5 19
M  V30 19 2 19 20
M  V30 20 1 20 21
M  V30 21 1 21 22
M  V30 22 1 22 23
M  V30 23 2 23 24
M  V30 24 1 24 25
M  V30 25 2 25 26
M  V30 26 1 26 27
M  V30 27 1 27 28
M  V30 28 1 28 29
M  V30 29 1 29 30
M  V30 30 1 26 31
M  V30 31 2 31 32
M  V30 32 1 32 33
M  V30 33 1 33 34
M  V30 34 1 33 35
M  V30 35 2 35 36
M  V30 36 1 20 2
M  V30 37 1 35 21
M  V30 38 1 18 9
M  V30 39 1 32 23
M  V30 40 1 1 37
M  V30 41 1 1 38
M  V30 42 1 1 39
M  V30 43 1 3 40
M  V30 44 1 4 41
M  V30 45 1 6 42
M  V30 46 1 10 43
M  V30 47 1 11 44
M  V30 48 1 12 45
M  V30 49 1 18 46
M  V30 50 1 19 47
M  V30 51 1 22 48
M  V30 52 1 22 49
M  V30 53 1 24 50
M  V30 54 1 27 51
M  V30 55 1 28 52
M  V30 56 1 28 53
M  V30 57 1 29 54
M  V30 58 1 29 55
M  V30 59 1 30 56
M  V30 60 1 34 57
M  V30 61 1 34 58
M  V30 62 1 34 59
M  V30 END BOND
M  V30 END CTAB
M  END
>  <Dataset>  (520) 
ChEMBL_Kinases

>  <Ligand_Instance>  (520) 
nan

>  <PDB_ID>  (520) 
nan

>  <Standardized_SMILES>  (520) 
Cc1ccc(NC(=O)c2cccc(C(F)(F)F)c2)cc1N1Cc2cnc(NCCO)nc2N(C)C1=O

>  <Name>  (520) 
nan

>  <Pocket>  (520) 
nan

>  <ATP_Site>  (520) 
nan

>  <Peripheral>  (520) 
nan

>  <Num_H_Atoms_ProtBoundConf>  (520) 
nan

>  <Num_Resolved_Atoms>  (520) 
nan

>  <Num_Not_Resolved_Atoms>  (520) 
nan

$$$$
CHEMBL4215916
     RDKit          3D

  0  0  0  0  0  0  0  0  0  0999 V3000
M  V30 BEGIN CTAB
M  V30 COUNTS 74 79 0 0 0
M  V30 BEGIN ATOM
M  V30 1 C 7.396382 -2.667789 3.552041 0
M  V30 2 C 6.635120 -3.283004 2.432910 0
M  V30 3 C 5.289718 -3.003498 2.306882 0
M  V30 4 C 4.593807 -3.587482 1.255841 0
M  V30 5 C 5.173205 -4.436764 0.324008 0
M  V30 6 N 4.406879 -5.014995 -0.738494 0
M  V30 7 C 3.043943 -4.642506 -0.721155 0
M  V30 8 N 2.058251 -5.317521 -0.057699 0
M  V30 9 C 0.767884 -4.929838 -0.060573 0
M  V30 10 C 0.400717 -3.782338 -0.773295 0
M  V30 11 C 1.401838 -3.102555 -1.442461 0
M  V30 12 N 2.666061 -3.542976 -1.398146 0
M  V30 13 N 1.009238 -1.931450 -2.141597 0
M  V30 14 C 2.059941 -1.258312 -2.826470 0
M  V30 15 C 2.218453 -1.714797 -4.131966 0
M  V30 16 C 3.218358 -1.130741 -4.903819 0
M  V30 17 C 4.024022 -0.134000 -4.390969 0
M  V30 18 C 3.864030 0.325044 -3.076560 0
M  V30 19 C 2.875990 -0.263101 -2.338328 0
M  V30 20 C -0.329651 -1.438043 -2.180995 0
M  V30 21 O -0.620935 -0.395405 -2.817654 0
M  V30 22 N -1.310549 -2.211369 -1.446762 0
M  V30 23 C -2.611795 -1.610775 -1.497911 0
M  V30 24 C -2.915220 -0.720058 -0.461153 0
M  V30 25 C -4.129004 -0.040095 -0.374142 0
M  V30 26 N -4.282351 0.827372 0.748680 0
M  V30 27 C -3.842288 2.169583 0.754425 0
M  V30 28 O -3.297369 2.549740 -0.317726 0
M  V30 29 C -3.970723 3.106180 1.868799 0
M  V30 30 C -3.458644 4.384282 1.651295 0
M  V30 31 C -3.589674 5.251681 2.711745 0
M  V30 32 C -4.179661 4.940133 3.940067 0
M  V30 33 C -4.228430 6.005313 4.957119 0
M  V30 34 C -4.655447 3.651293 4.056960 0
M  V30 35 C -5.282999 3.297947 5.347989 0
M  V30 36 F -4.393901 3.434587 6.406744 0
M  V30 37 F -5.764691 2.012134 5.256112 0
M  V30 38 F -6.411277 4.085351 5.614223 0
M  V30 39 C -4.555936 2.733484 3.033475 0
M  V30 40 C -5.082130 -0.260597 -1.366983 0
M  V30 41 C -4.774848 -1.152514 -2.401553 0
M  V30 42 C -3.568895 -1.815516 -2.470996 0
M  V30 43 C -3.219861 -2.754063 -3.542413 0
M  V30 44 C -1.051332 -3.441212 -0.725522 0
M  V30 45 C 6.509102 -4.660461 0.521669 0
M  V30 46 N 7.213087 -4.099870 1.543848 0
M  V30 47 H 7.953420 -1.803161 3.139160 0
M  V30 48 H 6.712393 -2.287118 4.344478 0
M  V30 49 H 8.084328 -3.422188 4.013392 0
M  V30 50 H 4.803902 -2.345109 3.017517 0
M  V30 51 H 3.545014 -3.339505 1.197057 0
M  V30 52 H 4.948601 -5.634728 -1.388089 0
M  V30 53 H 0.031572 -5.511963 0.486365 0
M  V30 54 H 1.616806 -2.493393 -4.589058 0
M  V30 55 H 3.357006 -1.479723 -5.934820 0
M  V30 56 H 4.808764 0.331460 -4.983793 0
M  V30 57 H 4.466451 1.102179 -2.624590 0
M  V30 58 H 2.637169 -0.014388 -1.311783 0
M  V30 59 H -2.171524 -0.552545 0.308133 0
M  V30 60 H -4.755900 0.499033 1.643309 0
M  V30 61 H -2.989623 4.698783 0.731421 0
M  V30 62 H -3.196067 6.251114 2.561117 0
M  V30 63 H -4.975051 6.776882 4.631077 0
M  V30 64 H -3.240544 6.539120 5.072130 0
M  V30 65 H -4.566464 5.667585 5.938573 0
M  V30 66 H -4.956494 1.758046 3.226461 0
M  V30 67 H -6.006627 0.278577 -1.271284 0
M  V30 68 H -5.523474 -1.313861 -3.167966 0
M  V30 69 H -3.665523 -3.748556 -3.278809 0
M  V30 70 H -3.758554 -2.432939 -4.460934 0
M  V30 71 H -2.138584 -2.805388 -3.714875 0
M  V30 72 H -1.632456 -4.297067 -1.174245 0
M  V30 73 H -1.435875 -3.333280 0.311524 0
M  V30 74 H 6.985131 -5.333551 -0.209493 0
M  V30 END ATOM
M  V30 BEGIN BOND
M  V30 1 1 1 2
M  V30 2 2 2 3
M  V30 3 1 3 4
M  V30 4 2 4 5
M  V30 5 1 5 6
M  V30 6 1 6 7
M  V30 7 2 7 8
M  V30 8 1 8 9
M  V30 9 2 9 10
M  V30 10 1 10 11
M  V30 11 2 11 12
M  V30 12 1 11 13
M  V30 13 1 13 14
M  V30 14 2 14 15
M  V30 15 1 15 16
M  V30 16 2 16 17
M  V30 17 1 17 18
M  V30 18 2 18 19
M  V30 19 1 13 20
M  V30 20 2 20 21
M  V30 21 1 20 22
M  V30 22 1 22 23
M  V30 23 2 23 24
M  V30 24 1 24 25
M  V30 25 1 25 26
M  V30 26 1 26 27
M  V30 27 2 27 28
M  V30 28 1 27 29
M  V30 29 2 29 30
M  V30 30 1 30 31
M  V30 31 2 31 32
M  V30 32 1 32 33
M  V30 33 1 32 34
M  V30 34 1 34 35
M  V30 35 1 35 36
M  V30 36 1 35 37
M  V30 37 1 35 38
M  V30 38 2 34 39
M  V30 39 2 25 40
M  V30 40 1 40 41
M  V30 41 2 41 42
M  V30 42 1 42 43
M  V30 43 1 22 44
M  V30 44 1 5 45
M  V30 45 2 45 46
M  V30 46 1 46 2
M  V30 47 1 12 7
M  V30 48 1 19 14
M  V30 49 1 42 23
M  V30 50 1 44 10
M  V30 51 1 39 29
M  V30 52 1 1 47
M  V30 53 1 1 48
M  V30 54 1 1 49
M  V30 55 1 3 50
M  V30 56 1 4 51
M  V30 57 1 6 52
M  V30 58 1 9 53
M  V30 59 1 15 54
M  V30 60 1 16 55
M  V30 61 1 17 56
M  V30 62 1 18 57
M  V30 63 1 19 58
M  V30 64 1 24 59
M  V30 65 1 26 60
M  V30 66 1 30 61
M  V30 67 1 31 62
M  V30 68 1 33 63
M  V30 69 1 33 64
M  V30 70 1 33 65
M  V30 71 1 39 66
M  V30 72 1 40 67
M  V30 73 1 41 68
M  V30 74 1 43 69
M  V30 75 1 43 70
M  V30 76 1 43 71
M  V30 77 1 44 72
M  V30 78 1 44 73
M  V30 79 1 45 74
M  V30 END BOND
M  V30 END CTAB
M  END
>  <Dataset>  (521) 
ChEMBL_Kinases

>  <Ligand_Instance>  (521) 
nan

>  <PDB_ID>  (521) 
nan

>  <Standardized_SMILES>  (521) 
Cc1ccc(Nc2ncc3c(n2)N(c2ccccc2)C(=O)N(c2cc(NC(=O)c4ccc(C)c(C(F)(F)F)c4)ccc2C)C3)cn1

>  <Name>  (521) 
nan

>  <Pocket>  (521) 
nan

>  <ATP_Site>  (521) 
nan

>  <Peripheral>  (521) 
nan

>  <Num_H_Atoms_ProtBoundConf>  (521) 
nan

>  <Num_Resolved_Atoms>  (521) 
nan

>  <Num_Not_Resolved_Atoms>  (521) 
nan

$$$$
CHEMBL4215910
     RDKit          3D

  0  0  0  0  0  0  0  0  0  0999 V3000
M  V30 BEGIN CTAB
M  V30 COUNTS 83 87 0 0 0
M  V30 BEGIN ATOM
M  V30 1 C -0.543691 -6.127063 3.448715 0
M  V30 2 O -0.071062 -4.784414 3.579477 0
M  V30 3 C 0.045602 -4.053353 2.407184 0
M  V30 4 C -0.273540 -4.575199 1.153365 0
M  V30 5 C -0.163047 -3.862816 -0.020370 0
M  V30 6 C -0.526487 -4.524168 -1.257711 0
M  V30 7 O -0.967850 -5.691342 -1.303473 0
M  V30 8 N -0.394700 -3.862555 -2.502429 0
M  V30 9 C -0.691866 -4.319961 -3.845293 0
M  V30 10 C 0.569431 -4.388984 -4.693460 0
M  V30 11 C 0.160779 -4.930202 -6.047307 0
M  V30 12 N -0.731533 -3.995916 -6.730394 0
M  V30 13 C -1.990549 -4.618132 -7.094230 0
M  V30 14 C -1.053816 -2.869795 -5.858188 0
M  V30 15 C -1.603504 -3.330306 -4.528613 0
M  V30 16 C 0.280067 -2.582441 0.043068 0
M  V30 17 C 0.607389 -2.029645 1.276443 0
M  V30 18 C 0.499935 -2.742822 2.476367 0
M  V30 19 N 0.869415 -2.109183 3.719421 0
M  V30 20 C 1.311743 -0.761371 3.819640 0
M  V30 21 N 2.429817 -0.326714 4.456859 0
M  V30 22 C 2.751960 0.978759 4.492142 0
M  V30 23 C 1.979379 1.938609 3.893621 0
M  V30 24 C 0.838488 1.503293 3.243516 0
M  V30 25 N 0.586019 0.196448 3.251084 0
M  V30 26 N -0.076316 2.372532 2.583665 0
M  V30 27 C -1.451199 2.129521 2.401238 0
M  V30 28 C -1.958032 2.069736 0.989672 0
M  V30 29 C -3.325048 1.392019 1.119272 0
M  V30 30 C -3.516928 1.130418 2.604551 0
M  V30 31 C -2.055163 0.952661 3.077013 0
M  V30 32 C 0.514661 3.619997 2.073898 0 CFG=2
M  V30 33 C 1.380319 3.239127 0.896868 0
M  V30 34 C 2.065868 4.428039 0.253588 0
M  V30 35 C 2.896581 3.922169 -0.906022 0
M  V30 36 C 0.969842 5.335573 -0.248757 0
M  V30 37 C 1.340621 4.221303 3.181686 0
M  V30 38 O 1.329147 5.413864 3.573837 0
M  V30 39 N 2.242284 3.330228 3.866059 0
M  V30 40 C 3.433966 3.793250 4.545064 0
M  V30 41 H -1.531060 -6.058623 2.910645 0
M  V30 42 H 0.178983 -6.664843 2.800107 0
M  V30 43 H -0.670662 -6.635299 4.413326 0
M  V30 44 H -0.630713 -5.613493 1.120721 0
M  V30 45 H -0.038492 -2.892533 -2.604702 0
M  V30 46 H -1.099298 -5.359712 -3.848794 0
M  V30 47 H 1.314084 -5.100645 -4.279932 0
M  V30 48 H 1.072073 -3.411140 -4.796092 0
M  V30 49 H -0.415965 -5.861265 -5.881062 0
M  V30 50 H 1.038527 -5.187257 -6.674543 0
M  V30 51 H -2.099348 -5.528347 -6.447701 0
M  V30 52 H -2.011447 -5.001742 -8.130834 0
M  V30 53 H -2.843864 -3.907079 -6.948730 0
M  V30 54 H -1.889129 -2.329864 -6.360931 0
M  V30 55 H -0.218281 -2.162297 -5.763714 0
M  V30 56 H -2.592149 -3.782304 -4.654660 0
M  V30 57 H -1.692479 -2.399171 -3.910021 0
M  V30 58 H 0.384567 -1.978343 -0.852597 0
M  V30 59 H 0.955158 -1.002880 1.248787 0
M  V30 60 H 0.796148 -2.694308 4.557629 0
M  V30 61 H 3.638999 1.307405 4.999631 0
M  V30 62 H -1.989504 3.031619 2.847837 0
M  V30 63 H -1.375106 1.493161 0.284388 0
M  V30 64 H -2.076006 3.101774 0.585117 0
M  V30 65 H -4.107788 2.011101 0.674394 0
M  V30 66 H -3.344043 0.390794 0.633637 0
M  V30 67 H -3.849825 2.095482 3.037882 0
M  V30 68 H -4.141204 0.272052 2.836434 0
M  V30 69 H -1.681323 -0.037894 2.748658 0
M  V30 70 H -2.081820 1.091390 4.175470 0
M  V30 71 H -0.308247 4.281609 1.804339 0
M  V30 72 H 2.099672 2.472335 1.258110 0
M  V30 73 H 0.714395 2.724094 0.176109 0
M  V30 74 H 2.685747 4.972877 0.998315 0
M  V30 75 H 2.503466 2.940901 -1.220738 0
M  V30 76 H 3.941069 3.729193 -0.568734 0
M  V30 77 H 2.867089 4.623171 -1.777148 0
M  V30 78 H 0.479686 5.796858 0.641482 0
M  V30 79 H 0.208755 4.700787 -0.729331 0
M  V30 80 H 1.340612 6.154053 -0.885812 0
M  V30 81 H 3.522348 4.882289 4.295907 0
M  V30 82 H 3.350319 3.720434 5.641329 0
M  V30 83 H 4.363529 3.315832 4.164161 0
M  V30 END ATOM
M  V30 BEGIN BOND
M  V30 1 1 1 2
M  V30 2 1 2 3
M  V30 3 2 3 4
M  V30 4 1 4 5
M  V30 5 1 5 6
M  V30 6 2 6 7
M  V30 7 1 6 8
M  V30 8 1 8 9
M  V30 9 1 9 10
M  V30 10 1 10 11
M  V30 11 1 11 12
M  V30 12 1 12 13
M  V30 13 1 12 14
M  V30 14 1 14 15
M  V30 15 2 5 16
M  V30 16 1 16 17
M  V30 17 2 17 18
M  V30 18 1 18 19
M  V30 19 1 19 20
M  V30 20 2 20 21
M  V30 21 1 21 22
M  V30 22 2 22 23
M  V30 23 1 23 24
M  V30 24 2 24 25
M  V30 25 1 24 26
M  V30 26 1 26 27
M  V30 27 1 27 28
M  V30 28 1 28 29
M  V30 29 1 29 30
M  V30 30 1 30 31
M  V30 31 1 26 32
M  V30 32 1 32 33
M  V30 33 1 33 34
M  V30 34 1 34 35
M  V30 35 1 34 36
M  V30 36 1 32 37
M  V30 37 2 37 38
M  V30 38 1 37 39
M  V30 39 1 39 40
M  V30 40 1 18 3
M  V30 41 1 25 20
M  V30 42 1 31 27
M  V30 43 1 15 9
M  V30 44 1 39 23
M  V30 45 1 1 41
M  V30 46 1 1 42
M  V30 47 1 1 43
M  V30 48 1 4 44
M  V30 49 1 8 45
M  V30 50 1 9 46
M  V30 51 1 10 47
M  V30 52 1 10 48
M  V30 53 1 11 49
M  V30 54 1 11 50
M  V30 55 1 13 51
M  V30 56 1 13 52
M  V30 57 1 13 53
M  V30 58 1 14 54
M  V30 59 1 14 55
M  V30 60 1 15 56
M  V30 61 1 15 57
M  V30 62 1 16 58
M  V30 63 1 17 59
M  V30 64 1 19 60
M  V30 65 1 22 61
M  V30 66 1 27 62
M  V30 67 1 28 63
M  V30 68 1 28 64
M  V30 69 1 29 65
M  V30 70 1 29 66
M  V30 71 1 30 67
M  V30 72 1 30 68
M  V30 73 1 31 69
M  V30 74 1 31 70
M  V30 75 1 32 71 CFG=3
M  V30 76 1 33 72
M  V30 77 1 33 73
M  V30 78 1 34 74
M  V30 79 1 35 75
M  V30 80 1 35 76
M  V30 81 1 35 77
M  V30 82 1 36 78
M  V30 83 1 36 79
M  V30 84 1 36 80
M  V30 85 1 40 81
M  V30 86 1 40 82
M  V30 87 1 40 83
M  V30 END BOND
M  V30 END CTAB
M  END
>  <Dataset>  (522) 
ChEMBL_Kinases

>  <Ligand_Instance>  (522) 
nan

>  <PDB_ID>  (522) 
nan

>  <Standardized_SMILES>  (522) 
COc1cc(C(=O)NC2CCN(C)CC2)ccc1Nc1ncc2c(n1)N(C1CCCC1)[C@H](CC(C)C)C(=O)N2C

>  <Name>  (522) 
nan

>  <Pocket>  (522) 
nan

>  <ATP_Site>  (522) 
nan

>  <Peripheral>  (522) 
nan

>  <Num_H_Atoms_ProtBoundConf>  (522) 
nan

>  <Num_Resolved_Atoms>  (522) 
nan

>  <Num_Not_Resolved_Atoms>  (522) 
nan

$$$$
CHEMBL4215817
     RDKit          3D

  0  0  0  0  0  0  0  0  0  0999 V3000
M  V30 BEGIN CTAB
M  V30 COUNTS 70 74 0 0 0
M  V30 BEGIN ATOM
M  V30 1 C 6.116058 0.262135 4.396716 0
M  V30 2 C 4.929429 0.434722 3.453362 0
M  V30 3 N 4.857525 -0.667073 2.574243 0
M  V30 4 C 4.533395 -1.933233 3.067018 0
M  V30 5 C 3.102088 -2.023310 3.550306 0
M  V30 6 C 5.424706 -0.465321 1.324635 0 CFG=1
M  V30 7 C 5.440014 -1.671605 0.409064 0
M  V30 8 C 4.599559 0.580477 0.562330 0
M  V30 9 N 3.254156 0.036623 0.460891 0
M  V30 10 C 2.263414 0.806017 -0.209543 0
M  V30 11 O 2.696828 1.905997 -0.646334 0
M  V30 12 C 0.876625 0.389485 -0.389106 0
M  V30 13 C 0.362306 -0.803005 0.054316 0
M  V30 14 C -0.946514 -1.205435 -0.111728 0
M  V30 15 C -1.383269 -2.499983 0.397213 0
M  V30 16 C -0.590943 -3.400465 1.095089 0
M  V30 17 N -1.356900 -4.471182 1.384093 0
M  V30 18 N -2.557145 -4.233954 0.886265 0
M  V30 19 C -3.597305 -5.085563 0.977156 0
M  V30 20 C -4.813132 -4.711467 0.403396 0
M  V30 21 C -4.849272 -3.481802 -0.218742 0
M  V30 22 C -6.107354 -3.030474 -0.850724 0
M  V30 23 C -6.417925 -1.909397 -1.509246 0
M  V30 24 C -7.661943 -1.735298 -2.000553 0
M  V30 25 C -8.583870 -2.808269 -1.766954 0
M  V30 26 S -7.555871 -4.077209 -0.801429 0
M  V30 27 N -3.799965 -2.648791 -0.297095 0
M  V30 28 C -2.644624 -3.039845 0.265713 0
M  V30 29 N -1.735281 -0.320612 -0.766180 0
M  V30 30 C -1.268181 0.857365 -1.215577 0
M  V30 31 N -2.199450 1.699746 -1.882714 0
M  V30 32 C -3.606841 1.443085 -2.121811 0
M  V30 33 C -4.198258 2.729697 -1.529142 0
M  V30 34 C -3.234285 3.774420 -2.074593 0 CFG=2
M  V30 35 O -3.821022 4.344590 -3.189878 0
M  V30 36 C -1.970908 3.002183 -2.476812 0
M  V30 37 C 0.033478 1.257299 -1.050415 0
M  V30 38 H 6.626908 -0.705324 4.217714 0
M  V30 39 H 5.792778 0.332288 5.458322 0
M  V30 40 H 6.895940 1.034938 4.254081 0
M  V30 41 H 3.989531 0.607280 4.042057 0
M  V30 42 H 5.126424 1.382446 2.918213 0
M  V30 43 H 5.175767 -2.113461 3.981843 0
M  V30 44 H 4.798098 -2.785348 2.404159 0
M  V30 45 H 2.524531 -2.795150 3.006389 0
M  V30 46 H 3.058332 -2.293868 4.610035 0
M  V30 47 H 2.617407 -1.043726 3.316102 0
M  V30 48 H 6.465798 -0.083555 1.429853 0
M  V30 49 H 4.447331 -2.124210 0.354912 0
M  V30 50 H 5.692211 -1.295240 -0.609170 0
M  V30 51 H 6.240629 -2.388978 0.682520 0
M  V30 52 H 5.078578 0.652508 -0.442469 0
M  V30 53 H 4.653869 1.580906 0.991524 0
M  V30 54 H 2.926625 -0.894194 0.846120 0
M  V30 55 H 1.009878 -1.492943 0.573866 0
M  V30 56 H 0.454199 -3.318588 1.385645 0
M  V30 57 H -3.579754 -6.051054 1.462226 0
M  V30 58 H -5.658421 -5.382282 0.466751 0
M  V30 59 H -5.639803 -1.169311 -1.624531 0
M  V30 60 H -8.022254 -0.876147 -2.544921 0
M  V30 61 H -9.662594 -2.796527 -2.124171 0
M  V30 62 H -3.811488 1.456178 -3.210244 0
M  V30 63 H -3.954346 0.546604 -1.591720 0
M  V30 64 H -4.045251 2.640344 -0.438463 0
M  V30 65 H -5.235487 2.890475 -1.816249 0
M  V30 66 H -2.984872 4.547914 -1.318189 0
M  V30 67 H -3.667433 5.306487 -3.161136 0
M  V30 68 H -1.903681 2.992159 -3.572311 0
M  V30 69 H -1.075990 3.503598 -2.059531 0
M  V30 70 H 0.358984 2.200910 -1.423950 0
M  V30 END ATOM
M  V30 BEGIN BOND
M  V30 1 1 1 2
M  V30 2 1 2 3
M  V30 3 1 3 4
M  V30 4 1 4 5
M  V30 5 1 3 6
M  V30 6 1 6 7
M  V30 7 1 6 8
M  V30 8 1 8 9
M  V30 9 1 9 10
M  V30 10 2 10 11
M  V30 11 1 10 12
M  V30 12 2 12 13
M  V30 13 1 13 14
M  V30 14 1 14 15
M  V30 15 1 15 16
M  V30 16 2 16 17
M  V30 17 1 17 18
M  V30 18 1 18 19
M  V30 19 2 19 20
M  V30 20 1 20 21
M  V30 21 1 21 22
M  V30 22 2 22 23
M  V30 23 1 23 24
M  V30 24 2 24 25
M  V30 25 1 25 26
M  V30 26 2 21 27
M  V30 27 1 27 28
M  V30 28 2 14 29
M  V30 29 1 29 30
M  V30 30 1 30 31
M  V30 31 1 31 32
M  V30 32 1 32 33
M  V30 33 1 33 34
M  V30 34 1 34 35
M  V30 35 1 34 36
M  V30 36 2 30 37
M  V30 37 1 37 12
M  V30 38 2 28 15
M  V30 39 1 36 31
M  V30 40 1 28 18
M  V30 41 1 26 22
M  V30 42 1 1 38
M  V30 43 1 1 39
M  V30 44 1 1 40
M  V30 45 1 2 41
M  V30 46 1 2 42
M  V30 47 1 4 43
M  V30 48 1 4 44
M  V30 49 1 5 45
M  V30 50 1 5 46
M  V30 51 1 5 47
M  V30 52 1 6 48 CFG=1
M  V30 53 1 7 49
M  V30 54 1 7 50
M  V30 55 1 7 51
M  V30 56 1 8 52
M  V30 57 1 8 53
M  V30 58 1 9 54
M  V30 59 1 13 55
M  V30 60 1 16 56
M  V30 61 1 19 57
M  V30 62 1 20 58
M  V30 63 1 23 59
M  V30 64 1 24 60
M  V30 65 1 25 61
M  V30 66 1 32 62
M  V30 67 1 32 63
M  V30 68 1 33 64
M  V30 69 1 33 65
M  V30 70 1 34 66 CFG=1
M  V30 71 1 35 67
M  V30 72 1 36 68
M  V30 73 1 36 69
M  V30 74 1 37 70
M  V30 END BOND
M  V30 END CTAB
M  END
>  <Dataset>  (523) 
ChEMBL_Kinases

>  <Ligand_Instance>  (523) 
nan

>  <PDB_ID>  (523) 
nan

>  <Standardized_SMILES>  (523) 
CCN(CC)[C@@H](C)CNC(=O)c1cc(-c2cnn3ccc(-c4cccs4)nc23)nc(N2CC[C@H](O)C2)c1

>  <Name>  (523) 
nan

>  <Pocket>  (523) 
nan

>  <ATP_Site>  (523) 
nan

>  <Peripheral>  (523) 
nan

>  <Num_H_Atoms_ProtBoundConf>  (523) 
nan

>  <Num_Resolved_Atoms>  (523) 
nan

>  <Num_Not_Resolved_Atoms>  (523) 
nan

$$$$
CHEMBL421578
     RDKit          3D

  0  0  0  0  0  0  0  0  0  0999 V3000
M  V30 BEGIN CTAB
M  V30 COUNTS 44 46 0 0 0
M  V30 BEGIN ATOM
M  V30 1 C -1.246055 -4.552218 -2.871955 0
M  V30 2 S 0.366597 -4.620698 -3.641240 0
M  V30 3 O 0.291105 -4.678780 -5.126686 0
M  V30 4 O 1.008498 -5.904633 -3.180820 0
M  V30 5 N 1.345160 -3.339568 -3.064387 0
M  V30 6 C 1.143640 -1.932113 -3.176650 0
M  V30 7 C 0.779151 -1.331980 -4.348156 0
M  V30 8 C 0.596845 0.039212 -4.433052 0
M  V30 9 C 0.777665 0.865686 -3.325291 0
M  V30 10 C 1.145928 0.284577 -2.128724 0
M  V30 11 C 1.362904 1.084862 -0.926826 0
M  V30 12 C 1.724228 0.592687 0.310749 0
M  V30 13 C 1.822576 1.691657 1.174293 0
M  V30 14 N 2.182790 1.434513 2.526468 0
M  V30 15 C 1.234318 1.270655 3.573879 0
M  V30 16 C -0.109375 1.464471 3.338129 0
M  V30 17 C -1.006367 1.297244 4.373686 0
M  V30 18 C -0.521180 0.939195 5.617734 0
M  V30 19 S -1.738819 0.758745 6.851520 0
M  V30 20 N -2.397520 -0.846677 6.813402 0
M  V30 21 O -2.875550 1.717690 6.668683 0
M  V30 22 O -1.191344 0.985629 8.244089 0
M  V30 23 C 0.824415 0.731114 5.909603 0
M  V30 24 C 1.677606 0.913596 4.829965 0
M  V30 25 N 1.519923 2.799415 0.434208 0
M  V30 26 N 1.250418 2.417995 -0.808346 0
M  V30 27 C 1.317053 -1.084205 -2.087352 0
M  V30 28 H -1.105604 -4.823730 -1.793799 0
M  V30 29 H -1.920743 -5.291239 -3.323791 0
M  V30 30 H -1.658629 -3.515109 -2.917586 0
M  V30 31 H 2.255393 -3.503034 -2.534713 0
M  V30 32 H 0.636874 -1.984902 -5.219374 0
M  V30 33 H 0.308817 0.438589 -5.392129 0
M  V30 34 H 0.631713 1.938660 -3.402099 0
M  V30 35 H 1.881928 -0.460629 0.494004 0
M  V30 36 H 3.206732 1.371295 2.712350 0
M  V30 37 H -0.400173 1.738230 2.347302 0
M  V30 38 H -2.050092 1.453801 4.168330 0
M  V30 39 H -1.622850 -1.476029 6.488246 0
M  V30 40 H -3.106311 -0.872358 6.037655 0
M  V30 41 H 1.150784 0.452759 6.899491 0
M  V30 42 H 2.740963 0.771078 4.968968 0
M  V30 43 H 1.557019 3.693297 0.966426 0
M  V30 44 H 1.607456 -1.599569 -1.168618 0
M  V30 END ATOM
M  V30 BEGIN BOND
M  V30 1 1 1 2
M  V30 2 2 2 3
M  V30 3 2 2 4
M  V30 4 1 2 5
M  V30 5 1 5 6
M  V30 6 2 6 7
M  V30 7 1 7 8
M  V30 8 2 8 9
M  V30 9 1 9 10
M  V30 10 1 10 11
M  V30 11 1 11 12
M  V30 12 2 12 13
M  V30 13 1 13 14
M  V30 14 1 14 15
M  V30 15 2 15 16
M  V30 16 1 16 17
M  V30 17 2 17 18
M  V30 18 1 18 19
M  V30 19 1 19 20
M  V30 20 2 19 21
M  V30 21 2 19 22
M  V30 22 1 18 23
M  V30 23 2 23 24
M  V30 24 1 13 25
M  V30 25 1 25 26
M  V30 26 2 10 27
M  V30 27 1 27 6
M  V30 28 2 26 11
M  V30 29 1 24 15
M  V30 30 1 1 28
M  V30 31 1 1 29
M  V30 32 1 1 30
M  V30 33 1 5 31
M  V30 34 1 7 32
M  V30 35 1 8 33
M  V30 36 1 9 34
M  V30 37 1 12 35
M  V30 38 1 14 36
M  V30 39 1 16 37
M  V30 40 1 17 38
M  V30 41 1 20 39
M  V30 42 1 20 40
M  V30 43 1 23 41
M  V30 44 1 24 42
M  V30 45 1 25 43
M  V30 46 1 27 44
M  V30 END BOND
M  V30 END CTAB
M  END
>  <Dataset>  (524) 
ChEMBL_Kinases

>  <Ligand_Instance>  (524) 
nan

>  <PDB_ID>  (524) 
nan

>  <Standardized_SMILES>  (524) 
CS(=O)(=O)Nc1cccc(-c2cc(Nc3ccc(S(N)(=O)=O)cc3)[nH]n2)c1

>  <Name>  (524) 
nan

>  <Pocket>  (524) 
nan

>  <ATP_Site>  (524) 
nan

>  <Peripheral>  (524) 
nan

>  <Num_H_Atoms_ProtBoundConf>  (524) 
nan

>  <Num_Resolved_Atoms>  (524) 
nan

>  <Num_Not_Resolved_Atoms>  (524) 
nan

$$$$
CHEMBL4215729
     RDKit          3D

  0  0  0  0  0  0  0  0  0  0999 V3000
M  V30 BEGIN CTAB
M  V30 COUNTS 80 84 0 0 0
M  V30 BEGIN ATOM
M  V30 1 C 7.359154 -4.279868 -2.589436 0
M  V30 2 C 6.931022 -3.060226 -1.747635 0
M  V30 3 C 5.507876 -2.816765 -2.081236 0 CFG=2
M  V30 4 C 5.280500 -2.516298 -3.538367 0
M  V30 5 O 6.092595 -2.319180 -4.508513 0
M  V30 6 N 3.890531 -2.432160 -3.929540 0
M  V30 7 C 3.372254 -2.723125 -5.266328 0
M  V30 8 C 2.953500 -2.016614 -2.910530 0
M  V30 9 C 1.634511 -1.923834 -3.226078 0
M  V30 10 N 0.809490 -1.534098 -2.245719 0
M  V30 11 C 1.161499 -1.229499 -0.991463 0
M  V30 12 N 0.299571 -0.811978 0.053783 0
M  V30 13 C -1.075480 -0.580559 0.007172 0
M  V30 14 C -1.867355 -0.688234 -1.128648 0
M  V30 15 C -3.224471 -0.455812 -1.194778 0
M  V30 16 C -3.876083 -0.078870 -0.029594 0
M  V30 17 C -5.310328 0.175408 -0.095760 0
M  V30 18 O -5.888304 0.089789 -1.201290 0
M  V30 19 N -6.105173 0.518359 1.028160 0
M  V30 20 C -7.515863 0.771591 0.963610 0
M  V30 21 C -7.964372 2.050981 1.584403 0
M  V30 22 C -7.891136 2.019812 3.110466 0
M  V30 23 N -8.798103 1.038050 3.631888 0
M  V30 24 C -8.216025 0.289307 4.732197 0
M  V30 25 C -9.312256 0.151074 2.605811 0
M  V30 26 C -8.213418 -0.362826 1.705075 0
M  V30 27 C -3.147793 0.045485 1.130013 0
M  V30 28 C -1.796455 -0.201486 1.125216 0
M  V30 29 O -1.121835 -0.055934 2.331543 0
M  V30 30 C -1.790992 0.331867 3.530107 0
M  V30 31 N 2.474422 -1.341698 -0.749863 0
M  V30 32 C 3.402886 -1.714233 -1.619307 0
M  V30 33 N 4.810564 -1.823759 -1.335872 0
M  V30 34 C 5.336999 -0.911149 -0.368988 0
M  V30 35 C 6.225581 0.091706 -1.083366 0
M  V30 36 C 7.243843 0.556725 -0.063769 0
M  V30 37 C 6.643122 0.573176 1.328530 0
M  V30 38 C 5.165180 0.822742 1.310167 0
M  V30 39 C 4.377649 -0.141706 0.445741 0
M  V30 40 H 8.306373 -4.722663 -2.182695 0
M  V30 41 H 6.608253 -5.093043 -2.523112 0
M  V30 42 H 7.522722 -4.008228 -3.638358 0
M  V30 43 H 7.657076 -2.289702 -2.001266 0
M  V30 44 H 7.001375 -3.427596 -0.711858 0
M  V30 45 H 5.004473 -3.832043 -1.924665 0
M  V30 46 H 4.196121 -3.220008 -5.809433 0
M  V30 47 H 2.488341 -3.404301 -5.185260 0
M  V30 48 H 3.109473 -1.766886 -5.736573 0
M  V30 49 H 1.205705 -2.137493 -4.193646 0
M  V30 50 H 0.745757 -0.650172 1.005580 0
M  V30 51 H -1.431348 -0.972552 -2.053734 0
M  V30 52 H -3.784945 -0.556217 -2.114495 0
M  V30 53 H -5.659139 0.596754 1.967649 0
M  V30 54 H -7.923033 0.720204 -0.073563 0
M  V30 55 H -9.038842 2.175844 1.331793 0
M  V30 56 H -7.454302 2.958982 1.205880 0
M  V30 57 H -8.255866 3.024541 3.429956 0
M  V30 58 H -6.838162 1.885682 3.432779 0
M  V30 59 H -9.016719 -0.285747 5.245514 0
M  V30 60 H -7.393745 -0.351513 4.362193 0
M  V30 61 H -7.837424 1.021235 5.477508 0
M  V30 62 H -10.166585 0.594183 2.050567 0
M  V30 63 H -9.713081 -0.749178 3.130141 0
M  V30 64 H -7.504024 -0.927849 2.341828 0
M  V30 65 H -8.683997 -1.097562 1.017267 0
M  V30 66 H -3.640973 0.336603 2.045054 0
M  V30 67 H -2.551015 -0.393808 3.857374 0
M  V30 68 H -1.040962 0.410068 4.340861 0
M  V30 69 H -2.337599 1.301625 3.371541 0
M  V30 70 H 6.012936 -1.441160 0.371189 0
M  V30 71 H 6.618623 -0.217150 -2.036501 0
M  V30 72 H 5.565493 0.985631 -1.293608 0
M  V30 73 H 8.081777 -0.170027 -0.046602 0
M  V30 74 H 7.630630 1.539754 -0.327806 0
M  V30 75 H 7.092283 1.450863 1.855261 0
M  V30 76 H 6.947963 -0.318412 1.929601 0
M  V30 77 H 5.017611 1.893185 1.021759 0
M  V30 78 H 4.839152 0.797095 2.388914 0
M  V30 79 H 3.765372 -0.733147 1.140539 0
M  V30 80 H 3.768365 0.539500 -0.221567 0
M  V30 END ATOM
M  V30 BEGIN BOND
M  V30 1 1 1 2
M  V30 2 1 2 3
M  V30 3 1 3 4
M  V30 4 2 4 5
M  V30 5 1 4 6
M  V30 6 1 6 7
M  V30 7 1 6 8
M  V30 8 2 8 9
M  V30 9 1 9 10
M  V30 10 2 10 11
M  V30 11 1 11 12
M  V30 12 1 12 13
M  V30 13 2 13 14
M  V30 14 1 14 15
M  V30 15 2 15 16
M  V30 16 1 16 17
M  V30 17 2 17 18
M  V30 18 1 17 19
M  V30 19 1 19 20
M  V30 20 1 20 21
M  V30 21 1 21 22
M  V30 22 1 22 23
M  V30 23 1 23 24
M  V30 24 1 23 25
M  V30 25 1 25 26
M  V30 26 1 16 27
M  V30 27 2 27 28
M  V30 28 1 28 29
M  V30 29 1 29 30
M  V30 30 1 11 31
M  V30 31 2 31 32
M  V30 32 1 32 33
M  V30 33 1 33 34
M  V30 34 1 34 35
M  V30 35 1 35 36
M  V30 36 1 36 37
M  V30 37 1 37 38
M  V30 38 1 38 39
M  V30 39 1 33 3
M  V30 40 1 39 34
M  V30 41 1 32 8
M  V30 42 1 28 13
M  V30 43 1 26 20
M  V30 44 1 1 40
M  V30 45 1 1 41
M  V30 46 1 1 42
M  V30 47 1 2 43
M  V30 48 1 2 44
M  V30 49 1 3 45 CFG=1
M  V30 50 1 7 46
M  V30 51 1 7 47
M  V30 52 1 7 48
M  V30 53 1 9 49
M  V30 54 1 12 50
M  V30 55 1 14 51
M  V30 56 1 15 52
M  V30 57 1 19 53
M  V30 58 1 20 54
M  V30 59 1 21 55
M  V30 60 1 21 56
M  V30 61 1 22 57
M  V30 62 1 22 58
M  V30 63 1 24 59
M  V30 64 1 24 60
M  V30 65 1 24 61
M  V30 66 1 25 62
M  V30 67 1 25 63
M  V30 68 1 26 64
M  V30 69 1 26 65
M  V30 70 1 27 66
M  V30 71 1 30 67
M  V30 72 1 30 68
M  V30 73 1 30 69
M  V30 74 1 34 70
M  V30 75 1 35 71
M  V30 76 1 35 72
M  V30 77 1 36 73
M  V30 78 1 36 74
M  V30 79 1 37 75
M  V30 80 1 37 76
M  V30 81 1 38 77
M  V30 82 1 38 78
M  V30 83 1 39 79
M  V30 84 1 39 80
M  V30 END BOND
M  V30 END CTAB
M  END
>  <Dataset>  (525) 
ChEMBL_Kinases

>  <Ligand_Instance>  (525) 
nan

>  <PDB_ID>  (525) 
nan

>  <Standardized_SMILES>  (525) 
CC[C@@H]1C(=O)N(C)c2cnc(Nc3ccc(C(=O)NC4CCN(C)CC4)cc3OC)nc2N1C1CCCCC1

>  <Name>  (525) 
nan

>  <Pocket>  (525) 
nan

>  <ATP_Site>  (525) 
nan

>  <Peripheral>  (525) 
nan

>  <Num_H_Atoms_ProtBoundConf>  (525) 
nan

>  <Num_Resolved_Atoms>  (525) 
nan

>  <Num_Not_Resolved_Atoms>  (525) 
nan

$$$$
CHEMBL4778724
     RDKit          3D

  0  0  0  0  0  0  0  0  0  0999 V3000
M  V30 BEGIN CTAB
M  V30 COUNTS 58 64 0 0 0
M  V30 BEGIN ATOM
M  V30 1 O 3.728460 1.612015 2.494841 0
M  V30 2 C 4.050439 0.411722 2.686126 0
M  V30 3 N 4.390557 -0.323834 1.532791 0
M  V30 4 C 4.315914 0.420354 0.302096 0
M  V30 5 C 5.476036 1.068654 -0.071556 0
M  V30 6 N 5.428681 1.773253 -1.223555 0
M  V30 7 C 4.306207 1.835313 -1.962647 0
M  V30 8 C 3.138274 1.196190 -1.608114 0
M  V30 9 C 1.900903 1.239100 -2.382288 0
M  V30 10 C 1.765126 1.932586 -3.566911 0
M  V30 11 C 0.615216 1.991399 -4.316664 0
M  V30 12 C -0.479456 1.301859 -3.840108 0
M  V30 13 N -1.734256 1.140832 -4.298718 0
M  V30 14 N -2.383372 0.381624 -3.456856 0
M  V30 15 C -1.592849 0.018611 -2.426425 0
M  V30 16 C -1.910391 -0.821925 -1.265911 0
M  V30 17 N -3.123487 -1.368947 -1.084977 0
M  V30 18 C -3.145761 -2.085248 0.045550 0
M  V30 19 C -4.164567 -2.808431 0.618417 0
M  V30 20 C -5.508322 -2.970389 0.110313 0
M  V30 21 C -6.001420 -2.420025 -1.050148 0
M  V30 22 C -7.290050 -2.592541 -1.510122 0
M  V30 23 C -8.160054 -3.366684 -0.770210 0
M  V30 24 C -7.610984 -3.897812 0.391485 0
M  V30 25 N -6.353003 -3.725040 0.833530 0
M  V30 26 C -3.823826 -3.429616 1.804148 0
M  V30 27 C -2.557979 -3.328896 2.365580 0
M  V30 28 N -1.602414 -2.593620 1.737350 0
M  V30 29 C -1.880031 -1.964793 0.575452 0
M  V30 30 N -1.132607 -1.191606 -0.232143 0
M  V30 31 C -0.362107 0.603647 -2.658462 0
M  V30 32 N 0.785962 0.582698 -1.970205 0
M  V30 33 C 3.149639 0.470084 -0.442291 0
M  V30 34 C 4.050747 -0.122710 4.044211 0
M  V30 35 C 3.685507 0.761849 5.050760 0
M  V30 36 C 3.674493 0.289683 6.351568 0
M  V30 37 C 4.007706 -1.009440 6.686650 0
M  V30 38 C 4.360320 -1.828115 5.624996 0
M  V30 39 C 4.393760 -1.425120 4.300203 0
M  V30 40 H 4.665052 -1.325112 1.640228 0
M  V30 41 H 6.385216 1.023156 0.519445 0
M  V30 42 H 4.323106 2.412768 -2.874923 0
M  V30 43 H 2.607939 2.482076 -3.963524 0
M  V30 44 H 0.548969 2.544924 -5.238233 0
M  V30 45 H -2.162811 1.529899 -5.164263 0
M  V30 46 H -5.355007 -1.807279 -1.659877 0
M  V30 47 H -7.642415 -2.150068 -2.417962 0
M  V30 48 H -9.183411 -3.574129 -1.022959 0
M  V30 49 H -8.265548 -4.513196 1.000672 0
M  V30 50 H -4.529649 -4.032981 2.364331 0
M  V30 51 H -2.316523 -3.824411 3.294033 0
M  V30 52 H -0.129008 -0.899836 -0.125244 0
M  V30 53 H 2.291960 -0.059336 -0.085997 0
M  V30 54 H 3.411591 1.795588 4.862239 0
M  V30 55 H 3.395469 0.934395 7.199832 0
M  V30 56 H 3.997783 -1.374103 7.703897 0
M  V30 57 H 4.620293 -2.851887 5.912426 0
M  V30 58 H 4.674593 -2.105003 3.525394 0
M  V30 END ATOM
M  V30 BEGIN BOND
M  V30 1 2 1 2
M  V30 2 1 2 3
M  V30 3 1 3 4
M  V30 4 2 4 5
M  V30 5 1 5 6
M  V30 6 2 6 7
M  V30 7 1 7 8
M  V30 8 1 8 9
M  V30 9 2 9 10
M  V30 10 1 10 11
M  V30 11 2 11 12
M  V30 12 1 12 13
M  V30 13 1 13 14
M  V30 14 2 14 15
M  V30 15 1 15 16
M  V30 16 2 16 17
M  V30 17 1 17 18
M  V30 18 2 18 19
M  V30 19 1 19 20
M  V30 20 2 20 21
M  V30 21 1 21 22
M  V30 22 2 22 23
M  V30 23 1 23 24
M  V30 24 2 24 25
M  V30 25 1 19 26
M  V30 26 2 26 27
M  V30 27 1 27 28
M  V30 28 2 28 29
M  V30 29 1 29 30
M  V30 30 1 15 31
M  V30 31 2 31 32
M  V30 32 2 8 33
M  V30 33 1 2 34
M  V30 34 2 34 35
M  V30 35 1 35 36
M  V30 36 2 36 37
M  V30 37 1 37 38
M  V30 38 2 38 39
M  V30 39 1 33 4
M  V30 40 1 39 34
M  V30 41 1 32 9
M  V30 42 1 31 12
M  V30 43 1 30 16
M  V30 44 1 29 18
M  V30 45 1 25 20
M  V30 46 1 3 40
M  V30 47 1 5 41
M  V30 48 1 7 42
M  V30 49 1 10 43
M  V30 50 1 11 44
M  V30 51 1 13 45
M  V30 52 1 21 46
M  V30 53 1 22 47
M  V30 54 1 23 48
M  V30 55 1 24 49
M  V30 56 1 26 50
M  V30 57 1 27 51
M  V30 58 1 30 52
M  V30 59 1 33 53
M  V30 60 1 35 54
M  V30 61 1 36 55
M  V30 62 1 37 56
M  V30 63 1 38 57
M  V30 64 1 39 58
M  V30 END BOND
M  V30 END CTAB
M  END
>  <Dataset>  (526) 
ChEMBL_Kinases

>  <Ligand_Instance>  (526) 
nan

>  <PDB_ID>  (526) 
nan

>  <Standardized_SMILES>  (526) 
O=C(Nc1cncc(-c2ccc3[nH]nc(-c4nc5c(-c6ccccn6)ccnc5[nH]4)c3n2)c1)c1ccccc1

>  <Name>  (526) 
nan

>  <Pocket>  (526) 
nan

>  <ATP_Site>  (526) 
nan

>  <Peripheral>  (526) 
nan

>  <Num_H_Atoms_ProtBoundConf>  (526) 
nan

>  <Num_Resolved_Atoms>  (526) 
nan

>  <Num_Not_Resolved_Atoms>  (526) 
nan

$$$$
CHEMBL4778744
     RDKit          3D

  0  0  0  0  0  0  0  0  0  0999 V3000
M  V30 BEGIN CTAB
M  V30 COUNTS 41 44 0 0 0
M  V30 BEGIN ATOM
M  V30 1 C -0.912535 -6.646097 1.440705 0
M  V30 2 N -0.619128 -5.239936 1.213564 0
M  V30 3 C -0.458365 -4.768007 -0.048580 0
M  V30 4 O -0.563992 -5.550643 -1.020124 0
M  V30 5 C -0.178778 -3.422955 -0.245601 0
M  V30 6 C -0.015845 -2.945885 -1.529488 0
M  V30 7 C 0.262165 -1.599967 -1.693276 0
M  V30 8 C 0.383945 -0.712243 -0.628809 0
M  V30 9 C 0.675600 0.663273 -0.939909 0
M  V30 10 O 0.805954 1.000132 -2.137642 0
M  V30 11 N 0.833328 1.698866 0.003033 0
M  V30 12 C 1.120375 3.077319 -0.209290 0
M  V30 13 C 2.394204 3.558220 0.430618 0
M  V30 14 C 1.976907 4.549364 1.500824 0
M  V30 15 C 0.491843 4.445613 1.640517 0
M  V30 16 C 0.023416 3.997423 0.293192 0
M  V30 17 C 0.216967 -1.212373 0.644267 0
M  V30 18 C -0.055970 -2.535150 0.799596 0
M  V30 19 N -0.225019 -3.059636 2.019147 0
M  V30 20 C -0.175134 -2.492332 3.230565 0
M  V30 21 S 0.100755 -0.979134 3.743600 0
M  V30 22 N -0.410693 -3.422238 4.171061 0
M  V30 23 N -0.609969 -4.585954 3.530683 0
M  V30 24 C -0.492660 -4.347740 2.205824 0
M  V30 25 H -1.721559 -6.737903 2.208966 0
M  V30 26 H -1.390933 -7.051503 0.506626 0
M  V30 27 H -0.012267 -7.223191 1.673280 0
M  V30 28 H -0.104767 -3.614301 -2.383624 0
M  V30 29 H 0.380810 -1.274171 -2.710602 0
M  V30 30 H 0.735378 1.476099 1.018449 0
M  V30 31 H 1.217175 3.274246 -1.300643 0
M  V30 32 H 3.036492 2.741689 0.813701 0
M  V30 33 H 3.041243 4.128308 -0.273417 0
M  V30 34 H 2.198329 5.613324 1.198719 0
M  V30 35 H 2.549876 4.373110 2.430396 0
M  V30 36 H 0.151170 3.768882 2.451200 0
M  V30 37 H 0.063567 5.449693 1.919290 0
M  V30 38 H -0.058374 4.903181 -0.346562 0
M  V30 39 H -0.960124 3.500367 0.309620 0
M  V30 40 H 0.323618 -0.480839 1.401540 0
M  V30 41 H -0.464169 -3.412963 5.223665 0
M  V30 END ATOM
M  V30 BEGIN BOND
M  V30 1 1 1 2
M  V30 2 1 2 3
M  V30 3 2 3 4
M  V30 4 1 3 5
M  V30 5 2 5 6
M  V30 6 1 6 7
M  V30 7 2 7 8
M  V30 8 1 8 9
M  V30 9 2 9 10
M  V30 10 1 9 11
M  V30 11 1 11 12
M  V30 12 1 12 13
M  V30 13 1 13 14
M  V30 14 1 14 15
M  V30 15 1 15 16
M  V30 16 1 8 17
M  V30 17 2 17 18
M  V30 18 1 18 19
M  V30 19 1 19 20
M  V30 20 2 20 21
M  V30 21 1 20 22
M  V30 22 1 22 23
M  V30 23 2 23 24
M  V30 24 1 24 2
M  V30 25 1 18 5
M  V30 26 1 24 19
M  V30 27 1 16 12
M  V30 28 1 1 25
M  V30 29 1 1 26
M  V30 30 1 1 27
M  V30 31 1 6 28
M  V30 32 1 7 29
M  V30 33 1 11 30
M  V30 34 1 12 31
M  V30 35 1 13 32
M  V30 36 1 13 33
M  V30 37 1 14 34
M  V30 38 1 14 35
M  V30 39 1 15 36
M  V30 40 1 15 37
M  V30 41 1 16 38
M  V30 42 1 16 39
M  V30 43 1 17 40
M  V30 44 1 22 41
M  V30 END BOND
M  V30 END CTAB
M  END
>  <Dataset>  (527) 
ChEMBL_Kinases

>  <Ligand_Instance>  (527) 
nan

>  <PDB_ID>  (527) 
nan

>  <Standardized_SMILES>  (527) 
Cn1c(=O)c2ccc(C(=O)NC3CCCC3)cc2n2c(=S)[nH]nc12

>  <Name>  (527) 
nan

>  <Pocket>  (527) 
nan

>  <ATP_Site>  (527) 
nan

>  <Peripheral>  (527) 
nan

>  <Num_H_Atoms_ProtBoundConf>  (527) 
nan

>  <Num_Resolved_Atoms>  (527) 
nan

>  <Num_Not_Resolved_Atoms>  (527) 
nan

$$$$
CHEMBL421566
     RDKit          3D

  0  0  0  0  0  0  0  0  0  0999 V3000
M  V30 BEGIN CTAB
M  V30 COUNTS 45 48 0 0 0
M  V30 BEGIN ATOM
M  V30 1 C 2.467351 -4.561280 3.042172 0
M  V30 2 O 1.788357 -3.541440 2.304280 0
M  V30 3 C 1.997741 -2.200294 2.574010 0
M  V30 4 O 2.798386 -1.833650 3.484098 0
M  V30 5 C 1.299347 -1.197399 1.813850 0
M  V30 6 C 1.467694 0.154259 2.037710 0
M  V30 7 C 0.818915 1.180718 1.333275 0
M  V30 8 C 1.173510 2.526964 1.746448 0
M  V30 9 C 1.621448 3.627555 1.050251 0
M  V30 10 C 1.875027 4.823778 1.677100 0
M  V30 11 C 1.702859 5.008647 3.030698 0
M  V30 12 C 1.255602 3.919526 3.746684 0
M  V30 13 Cl 1.043157 4.175255 5.468315 0
M  V30 14 C 1.003126 2.718286 3.102741 0
M  V30 15 C -0.046180 0.782835 0.349605 0
M  V30 16 C -0.229704 -0.561776 0.110054 0
M  V30 17 C 0.417533 -1.549878 0.812792 0
M  V30 18 N -1.142838 -1.015471 -0.883258 0
M  V30 19 C -1.331301 -2.427024 -1.134645 0
M  V30 20 C -0.564302 -3.099882 -2.063902 0
M  V30 21 Cl 0.672101 -2.208073 -2.960674 0
M  V30 22 C -0.705660 -4.443396 -2.339021 0
M  V30 23 C -1.673948 -5.142660 -1.636965 0
M  V30 24 C -2.455580 -4.498775 -0.702700 0
M  V30 25 C -2.272972 -3.163013 -0.468909 0
M  V30 26 Cl -3.284744 -2.399930 0.719046 0
M  V30 27 C -1.913373 -0.119095 -1.676424 0
M  V30 28 O -2.726982 -0.421965 -2.559846 0
M  V30 29 N -1.676053 1.239035 -1.372081 0
M  V30 30 C -0.733283 1.828437 -0.404284 0
M  V30 31 H 2.231408 -5.519962 2.568217 0
M  V30 32 H 3.557724 -4.324715 3.023575 0
M  V30 33 H 2.104167 -4.525626 4.083651 0
M  V30 34 H 2.174116 0.385365 2.838985 0
M  V30 35 H 1.754939 3.442942 -0.004533 0
M  V30 36 H 2.223990 5.591981 0.972993 0
M  V30 37 H 1.941816 6.001055 3.380755 0
M  V30 38 H 0.660689 1.970439 3.804778 0
M  V30 39 H 0.266852 -2.615221 0.615936 0
M  V30 40 H -0.066527 -4.923286 -3.088780 0
M  V30 41 H -1.777128 -6.214175 -1.865420 0
M  V30 42 H -3.195265 -5.101826 -0.187335 0
M  V30 43 H -2.223446 1.994651 -1.878882 0
M  V30 44 H -1.384453 2.395923 0.292934 0
M  V30 45 H -0.085282 2.469156 -1.037151 0
M  V30 END ATOM
M  V30 BEGIN BOND
M  V30 1 1 1 2
M  V30 2 1 2 3
M  V30 3 2 3 4
M  V30 4 1 3 5
M  V30 5 2 5 6
M  V30 6 1 6 7
M  V30 7 1 7 8
M  V30 8 2 8 9
M  V30 9 1 9 10
M  V30 10 2 10 11
M  V30 11 1 11 12
M  V30 12 1 12 13
M  V30 13 2 12 14
M  V30 14 2 7 15
M  V30 15 1 15 16
M  V30 16 2 16 17
M  V30 17 1 16 18
M  V30 18 1 18 19
M  V30 19 2 19 20
M  V30 20 1 20 21
M  V30 21 1 20 22
M  V30 22 2 22 23
M  V30 23 1 23 24
M  V30 24 2 24 25
M  V30 25 1 25 26
M  V30 26 1 18 27
M  V30 27 2 27 28
M  V30 28 1 27 29
M  V30 29 1 29 30
M  V30 30 1 17 5
M  V30 31 1 25 19
M  V30 32 1 14 8
M  V30 33 1 30 15
M  V30 34 1 1 31
M  V30 35 1 1 32
M  V30 36 1 1 33
M  V30 37 1 6 34
M  V30 38 1 9 35
M  V30 39 1 10 36
M  V30 40 1 11 37
M  V30 41 1 14 38
M  V30 42 1 17 39
M  V30 43 1 22 40
M  V30 44 1 23 41
M  V30 45 1 24 42
M  V30 46 1 29 43
M  V30 47 1 30 44
M  V30 48 1 30 45
M  V30 END BOND
M  V30 END CTAB
M  END
>  <Dataset>  (528) 
ChEMBL_Kinases

>  <Ligand_Instance>  (528) 
nan

>  <PDB_ID>  (528) 
nan

>  <Standardized_SMILES>  (528) 
COC(=O)c1cc(-c2cccc(Cl)c2)c2c(c1)N(c1c(Cl)cccc1Cl)C(=O)NC2

>  <Name>  (528) 
nan

>  <Pocket>  (528) 
nan

>  <ATP_Site>  (528) 
nan

>  <Peripheral>  (528) 
nan

>  <Num_H_Atoms_ProtBoundConf>  (528) 
nan

>  <Num_Resolved_Atoms>  (528) 
nan

>  <Num_Not_Resolved_Atoms>  (528) 
nan

$$$$
CHEMBL4215635
     RDKit          3D

  0  0  0  0  0  0  0  0  0  0999 V3000
M  V30 BEGIN CTAB
M  V30 COUNTS 58 62 0 0 0
M  V30 BEGIN ATOM
M  V30 1 C -0.098179 1.992568 4.662896 0
M  V30 2 C 0.348982 0.543714 4.669609 0
M  V30 3 N 0.995949 0.148398 3.437970 0
M  V30 4 C 1.391165 -1.211225 3.523955 0
M  V30 5 C 2.491919 -1.449903 4.514143 0
M  V30 6 C 1.980286 1.106751 3.094167 0
M  V30 7 C 2.739019 0.794149 1.830579 0
M  V30 8 N 1.891971 0.698001 0.671986 0
M  V30 9 C 1.051802 1.697783 0.113330 0
M  V30 10 O 1.066868 2.806896 0.729647 0
M  V30 11 C 0.233263 1.479691 -1.072400 0
M  V30 12 C 0.101890 0.323039 -1.810558 0
M  V30 13 C -0.698173 0.226895 -2.926441 0
M  V30 14 C -0.706779 -1.102367 -3.576971 0
M  V30 15 C -0.596607 -1.525375 -4.885090 0
M  V30 16 N -0.671848 -2.867135 -4.926981 0
M  V30 17 N -0.824365 -3.300640 -3.700085 0
M  V30 18 C -0.947645 -4.559075 -3.254898 0
M  V30 19 C -1.104595 -4.790096 -1.904162 0
M  V30 20 C -1.134577 -3.721663 -1.009868 0
M  V30 21 C -1.298745 -3.869963 0.381964 0
M  V30 22 C -1.451929 -4.967266 1.140695 0
M  V30 23 C -1.605915 -4.956864 2.497718 0
M  V30 24 C -1.586606 -3.579484 3.060843 0
M  V30 25 S -1.351282 -2.502930 1.573104 0
M  V30 26 N -1.005673 -2.484384 -1.514070 0
M  V30 27 C -0.853976 -2.280680 -2.830161 0
M  V30 28 N -1.410210 1.307045 -3.351778 0
M  V30 29 C -2.223160 1.384237 -4.398748 0
M  V30 30 C -2.689481 2.692934 -4.383468 0
M  V30 31 N -2.126813 3.321028 -3.326747 0
M  V30 32 C -1.312603 2.461254 -2.659201 0
M  V30 33 C -0.509280 2.562816 -1.536744 0
M  V30 34 H -0.705267 2.149377 3.753278 0
M  V30 35 H 0.733170 2.713909 4.713515 0
M  V30 36 H -0.773177 2.099053 5.553378 0
M  V30 37 H -0.577554 -0.059423 4.759675 0
M  V30 38 H 0.954559 0.317440 5.575608 0
M  V30 39 H 0.500209 -1.773505 3.928152 0
M  V30 40 H 1.591366 -1.688517 2.537691 0
M  V30 41 H 2.119497 -1.806038 5.497967 0
M  V30 42 H 3.190664 -2.240572 4.143588 0
M  V30 43 H 3.037116 -0.505996 4.710973 0
M  V30 44 H 2.674153 1.339413 3.927203 0
M  V30 45 H 1.438788 2.071319 2.910369 0
M  V30 46 H 3.398778 1.694833 1.654025 0
M  V30 47 H 3.406648 -0.059296 1.877171 0
M  V30 48 H 1.866543 -0.224139 0.142849 0
M  V30 49 H 0.671028 -0.513775 -1.457516 0
M  V30 50 H -0.470019 -0.786666 -5.683834 0
M  V30 51 H -0.937235 -5.462287 -3.869569 0
M  V30 52 H -1.212964 -5.761080 -1.431170 0
M  V30 53 H -1.454341 -5.948026 0.644908 0
M  V30 54 H -1.732485 -5.792937 3.160316 0
M  V30 55 H -1.714389 -3.482163 4.234227 0
M  V30 56 H -2.471922 0.607935 -5.108813 0
M  V30 57 H -3.378712 3.162308 -5.074704 0
M  V30 58 H -0.494518 3.532833 -1.046254 0
M  V30 END ATOM
M  V30 BEGIN BOND
M  V30 1 1 1 2
M  V30 2 1 2 3
M  V30 3 1 3 4
M  V30 4 1 4 5
M  V30 5 1 3 6
M  V30 6 1 6 7
M  V30 7 1 7 8
M  V30 8 1 8 9
M  V30 9 2 9 10
M  V30 10 1 9 11
M  V30 11 1 11 12
M  V30 12 2 12 13
M  V30 13 1 13 14
M  V30 14 1 14 15
M  V30 15 2 15 16
M  V30 16 1 16 17
M  V30 17 1 17 18
M  V30 18 2 18 19
M  V30 19 1 19 20
M  V30 20 1 20 21
M  V30 21 2 21 22
M  V30 22 1 22 23
M  V30 23 2 23 24
M  V30 24 1 24 25
M  V30 25 2 20 26
M  V30 26 1 26 27
M  V30 27 1 13 28
M  V30 28 1 28 29
M  V30 29 2 29 30
M  V30 30 1 30 31
M  V30 31 2 31 32
M  V30 32 1 32 33
M  V30 33 2 33 11
M  V30 34 2 27 14
M  V30 35 1 32 28
M  V30 36 1 27 17
M  V30 37 1 25 21
M  V30 38 1 1 34
M  V30 39 1 1 35
M  V30 40 1 1 36
M  V30 41 1 2 37
M  V30 42 1 2 38
M  V30 43 1 4 39
M  V30 44 1 4 40
M  V30 45 1 5 41
M  V30 46 1 5 42
M  V30 47 1 5 43
M  V30 48 1 6 44
M  V30 49 1 6 45
M  V30 50 1 7 46
M  V30 51 1 7 47
M  V30 52 1 8 48
M  V30 53 1 12 49
M  V30 54 1 15 50
M  V30 55 1 18 51
M  V30 56 1 19 52
M  V30 57 1 22 53
M  V30 58 1 23 54
M  V30 59 1 24 55
M  V30 60 1 29 56
M  V30 61 1 30 57
M  V30 62 1 33 58
M  V30 END BOND
M  V30 END CTAB
M  END
>  <Dataset>  (529) 
ChEMBL_Kinases

>  <Ligand_Instance>  (529) 
nan

>  <PDB_ID>  (529) 
nan

>  <Standardized_SMILES>  (529) 
CCN(CC)CCNC(=O)c1cc(-c2cnn3ccc(-c4cccs4)nc23)n2ccnc2c1

>  <Name>  (529) 
nan

>  <Pocket>  (529) 
nan

>  <ATP_Site>  (529) 
nan

>  <Peripheral>  (529) 
nan

>  <Num_H_Atoms_ProtBoundConf>  (529) 
nan

>  <Num_Resolved_Atoms>  (529) 
nan

>  <Num_Not_Resolved_Atoms>  (529) 
nan

$$$$
CHEMBL4778806
     RDKit          3D

  0  0  0  0  0  0  0  0  0  0999 V3000
M  V30 BEGIN CTAB
M  V30 COUNTS 63 67 0 0 0
M  V30 BEGIN ATOM
M  V30 1 O 0.206211 -0.703841 3.255832 0
M  V30 2 C 0.961128 -1.500935 3.876020 0
M  V30 3 C 2.407479 -1.697423 3.617709 0
M  V30 4 C 2.912832 -0.850102 2.517921 0
M  V30 5 C 3.408654 0.394163 2.862026 0
M  V30 6 C 3.901083 1.247659 1.907874 0
M  V30 7 C 3.891244 0.838622 0.600711 0
M  V30 8 C 3.422209 -0.371265 0.159955 0
M  V30 9 O 3.299070 -1.003083 -1.030361 0
M  V30 10 C 3.613596 -0.641137 -2.322003 0
M  V30 11 C 2.924828 0.548295 -2.888794 0
M  V30 12 C 1.464615 0.571878 -2.972927 0
M  V30 13 C 0.693573 -0.387447 -3.762546 0
M  V30 14 C 0.776107 -1.831536 -3.425239 0
M  V30 15 C 1.342573 -2.572371 -4.624620 0
M  V30 16 N 0.424140 -2.518466 -5.748872 0
M  V30 17 C -0.136442 -1.174579 -5.901802 0
M  V30 18 C 0.825705 -0.187491 -5.272832 0
M  V30 19 C 2.931559 -1.206376 1.161370 0
M  V30 20 N 0.478087 -2.315452 4.918778 0
M  V30 21 C -0.974803 -2.081318 5.137850 0
M  V30 22 N -1.785648 -1.385722 4.657961 0
M  V30 23 C -3.065676 -1.248499 4.919106 0
M  V30 24 C -3.879264 -0.260707 4.232669 0
M  V30 25 C -3.397664 0.941633 3.679512 0
M  V30 26 N -4.340885 1.643217 3.076070 0
M  V30 27 C -5.491437 0.966417 3.183695 0
M  V30 28 N -6.712891 1.266018 2.716462 0
M  V30 29 C -7.731812 0.416550 2.923304 0
M  V30 30 C -7.501623 -0.772962 3.625285 0
M  V30 31 C -6.225489 -1.028490 4.082875 0
M  V30 32 F -6.127287 -2.205336 4.692602 0
M  V30 33 C -5.189419 -0.178821 3.883614 0
M  V30 34 C -3.476108 -2.118371 5.975443 0
M  V30 35 S -1.905622 -3.009025 6.419288 0
M  V30 36 H 2.574413 -2.762531 3.310600 0
M  V30 37 H 3.018275 -1.546086 4.532014 0
M  V30 38 H 3.432248 0.749353 3.879984 0
M  V30 39 H 4.306159 2.232885 2.084351 0
M  V30 40 H 4.263991 1.444801 -0.186625 0
M  V30 41 H 4.729678 -0.392110 -2.414953 0
M  V30 42 H 3.505810 -1.491317 -3.012314 0
M  V30 43 H 3.243958 1.452280 -2.280781 0
M  V30 44 H 3.435855 0.754636 -3.875058 0
M  V30 45 H 1.103209 1.624861 -3.228472 0
M  V30 46 H 1.085597 0.458083 -1.896306 0
M  V30 47 H -0.403541 -0.106978 -3.604894 0
M  V30 48 H 1.330999 -2.082738 -2.537723 0
M  V30 49 H -0.247570 -2.291597 -3.276140 0
M  V30 50 H 1.438829 -3.635516 -4.327292 0
M  V30 51 H 2.344089 -2.213314 -4.916833 0
M  V30 52 H 0.947839 -2.817094 -6.591527 0
M  V30 53 H -1.101826 -1.072547 -5.354998 0
M  V30 54 H -0.203898 -0.930449 -6.976166 0
M  V30 55 H 0.472901 0.849309 -5.470482 0
M  V30 56 H 1.817620 -0.393819 -5.661457 0
M  V30 57 H 2.508138 -2.210874 1.060319 0
M  V30 58 H 0.929262 -3.003377 5.518906 0
M  V30 59 H -2.352811 1.292398 3.725486 0
M  V30 60 H -4.222224 2.565305 2.595679 0
M  V30 61 H -8.716564 0.682632 2.534377 0
M  V30 62 H -8.348225 -1.407200 3.756369 0
M  V30 63 H -4.490300 -2.265264 6.500292 0
M  V30 END ATOM
M  V30 BEGIN BOND
M  V30 1 2 1 2
M  V30 2 1 2 3
M  V30 3 1 3 4
M  V30 4 2 4 5
M  V30 5 1 5 6
M  V30 6 2 6 7
M  V30 7 1 7 8
M  V30 8 1 8 9
M  V30 9 1 9 10
M  V30 10 1 10 11
M  V30 11 1 11 12
M  V30 12 1 12 13
M  V30 13 1 13 14
M  V30 14 1 14 15
M  V30 15 1 15 16
M  V30 16 1 16 17
M  V30 17 1 17 18
M  V30 18 2 8 19
M  V30 19 1 2 20
M  V30 20 1 20 21
M  V30 21 2 21 22
M  V30 22 1 22 23
M  V30 23 1 23 24
M  V30 24 2 24 25
M  V30 25 1 25 26
M  V30 26 1 26 27
M  V30 27 2 27 28
M  V30 28 1 28 29
M  V30 29 2 29 30
M  V30 30 1 30 31
M  V30 31 1 31 32
M  V30 32 2 31 33
M  V30 33 2 23 34
M  V30 34 1 34 35
M  V30 35 1 19 4
M  V30 36 1 35 21
M  V30 37 1 18 13
M  V30 38 1 33 24
M  V30 39 1 33 27
M  V30 40 1 3 36
M  V30 41 1 3 37
M  V30 42 1 5 38
M  V30 43 1 6 39
M  V30 44 1 7 40
M  V30 45 1 10 41
M  V30 46 1 10 42
M  V30 47 1 11 43
M  V30 48 1 11 44
M  V30 49 1 12 45
M  V30 50 1 12 46
M  V30 51 1 13 47
M  V30 52 1 14 48
M  V30 53 1 14 49
M  V30 54 1 15 50
M  V30 55 1 15 51
M  V30 56 1 16 52
M  V30 57 1 17 53
M  V30 58 1 17 54
M  V30 59 1 18 55
M  V30 60 1 18 56
M  V30 61 1 19 57
M  V30 62 1 20 58
M  V30 63 1 25 59
M  V30 64 1 26 60
M  V30 65 1 29 61
M  V30 66 1 30 62
M  V30 67 1 34 63
M  V30 END BOND
M  V30 END CTAB
M  END
>  <Dataset>  (530) 
ChEMBL_Kinases

>  <Ligand_Instance>  (530) 
nan

>  <PDB_ID>  (530) 
nan

>  <Standardized_SMILES>  (530) 
O=C(Cc1cccc(OCCCC2CCNCC2)c1)Nc1nc(-c2c[nH]c3nccc(F)c23)cs1

>  <Name>  (530) 
nan

>  <Pocket>  (530) 
nan

>  <ATP_Site>  (530) 
nan

>  <Peripheral>  (530) 
nan

>  <Num_H_Atoms_ProtBoundConf>  (530) 
nan

>  <Num_Resolved_Atoms>  (530) 
nan

>  <Num_Not_Resolved_Atoms>  (530) 
nan

$$$$
CHEMBL4216017
     RDKit          3D

  0  0  0  0  0  0  0  0  0  0999 V3000
M  V30 BEGIN CTAB
M  V30 COUNTS 50 53 0 0 0
M  V30 BEGIN ATOM
M  V30 1 C 3.066121 0.432758 4.860959 0
M  V30 2 C 3.621368 -0.009355 3.567809 0
M  V30 3 C 4.666525 -0.906258 3.402473 0
M  V30 4 C 5.178641 -1.308950 2.205649 0
M  V30 5 F 6.207585 -2.196398 2.176324 0
M  V30 6 C 4.629355 -0.796476 1.052453 0
M  V30 7 C 5.199513 -1.252323 -0.186184 0
M  V30 8 N 5.660307 -1.628275 -1.170549 0
M  V30 9 C 3.586438 0.101478 1.124980 0
M  V30 10 C 3.105684 0.474272 2.359885 0
M  V30 11 N 2.027066 1.364703 2.476970 0
M  V30 12 C 1.171943 2.160022 1.634833 0
M  V30 13 N 1.171929 3.477463 1.396878 0
M  V30 14 C 0.233407 3.959962 0.533329 0
M  V30 15 C -0.690632 3.131411 -0.081464 0
M  V30 16 C -0.667077 1.781862 0.180731 0
M  V30 17 C -1.603310 0.836454 -0.456812 0
M  V30 18 C -2.605731 1.170324 -1.334980 0
M  V30 19 C -3.390499 0.175633 -1.872928 0
M  V30 20 C -4.434249 0.521753 -2.788917 0
M  V30 21 N -5.266794 0.806611 -3.519180 0
M  V30 22 C -3.243982 -1.172217 -1.590766 0
M  V30 23 C -2.221666 -1.495158 -0.697614 0
M  V30 24 C -1.433055 -0.509902 -0.154527 0
M  V30 25 C -2.187580 -2.962226 -0.514070 0 CFG=1
M  V30 26 C -1.138218 -3.612321 -1.395798 0
M  V30 27 C -1.978723 -3.408366 0.895473 0
M  V30 28 O -0.764628 -2.939978 1.422824 0
M  V30 29 C -3.560389 -3.383336 -0.968884 0
M  V30 30 N -3.882692 -2.387667 -1.975161 0
M  V30 31 N 0.277282 1.354639 1.039399 0
M  V30 32 H 1.965699 0.387263 4.933581 0
M  V30 33 H 3.420607 -0.255105 5.672062 0
M  V30 34 H 3.492557 1.436200 5.121878 0
M  V30 35 H 5.111898 -1.318158 4.303288 0
M  V30 36 H 3.183500 0.478197 0.201439 0
M  V30 37 H 1.575619 1.653929 3.368257 0
M  V30 38 H 0.229084 5.005814 0.337080 0
M  V30 39 H -1.416772 3.551957 -0.757981 0
M  V30 40 H -2.728214 2.215668 -1.562053 0
M  V30 41 H -0.642407 -0.793314 0.541527 0
M  V30 42 H -0.471848 -4.294506 -0.829801 0
M  V30 43 H -1.630635 -4.219597 -2.181652 0
M  V30 44 H -0.479930 -2.862798 -1.892500 0
M  V30 45 H -1.853350 -4.524351 0.865490 0
M  V30 46 H -2.829997 -3.234492 1.574190 0
M  V30 47 H -0.520656 -3.395872 2.250506 0
M  V30 48 H -3.497946 -4.394273 -1.436714 0
M  V30 49 H -4.272342 -3.376524 -0.122293 0
M  V30 50 H -4.467284 -2.481615 -2.840171 0
M  V30 END ATOM
M  V30 BEGIN BOND
M  V30 1 1 1 2
M  V30 2 2 2 3
M  V30 3 1 3 4
M  V30 4 1 4 5
M  V30 5 2 4 6
M  V30 6 1 6 7
M  V30 7 3 7 8
M  V30 8 1 6 9
M  V30 9 2 9 10
M  V30 10 1 10 11
M  V30 11 1 11 12
M  V30 12 2 12 13
M  V30 13 1 13 14
M  V30 14 2 14 15
M  V30 15 1 15 16
M  V30 16 1 16 17
M  V30 17 2 17 18
M  V30 18 1 18 19
M  V30 19 1 19 20
M  V30 20 3 20 21
M  V30 21 2 19 22
M  V30 22 1 22 23
M  V30 23 2 23 24
M  V30 24 1 23 25
M  V30 25 1 25 26 CFG=3
M  V30 26 1 25 27
M  V30 27 1 27 28
M  V30 28 1 25 29
M  V30 29 1 29 30
M  V30 30 2 16 31
M  V30 31 1 10 2
M  V30 32 1 31 12
M  V30 33 1 24 17
M  V30 34 1 30 22
M  V30 35 1 1 32
M  V30 36 1 1 33
M  V30 37 1 1 34
M  V30 38 1 3 35
M  V30 39 1 9 36
M  V30 40 1 11 37
M  V30 41 1 14 38
M  V30 42 1 15 39
M  V30 43 1 18 40
M  V30 44 1 24 41
M  V30 45 1 26 42
M  V30 46 1 26 43
M  V30 47 1 26 44
M  V30 48 1 27 45
M  V30 49 1 27 46
M  V30 50 1 28 47
M  V30 51 1 29 48
M  V30 52 1 29 49
M  V30 53 1 30 50
M  V30 END BOND
M  V30 END CTAB
M  END
>  <Dataset>  (531) 
ChEMBL_Kinases

>  <Ligand_Instance>  (531) 
nan

>  <PDB_ID>  (531) 
nan

>  <Standardized_SMILES>  (531) 
Cc1cc(F)c(C#N)cc1Nc1nccc(-c2cc(C#N)c3c(c2)[C@@](C)(CO)CN3)n1

>  <Name>  (531) 
nan

>  <Pocket>  (531) 
nan

>  <ATP_Site>  (531) 
nan

>  <Peripheral>  (531) 
nan

>  <Num_H_Atoms_ProtBoundConf>  (531) 
nan

>  <Num_Resolved_Atoms>  (531) 
nan

>  <Num_Not_Resolved_Atoms>  (531) 
nan

$$$$
CHEMBL4209139
     RDKit          3D

  0  0  0  0  0  0  0  0  0  0999 V3000
M  V30 BEGIN CTAB
M  V30 COUNTS 49 52 0 0 0
M  V30 BEGIN ATOM
M  V30 1 C 0.380215 -3.108944 2.129005 0
M  V30 2 N 0.612952 -3.248681 3.542123 0
M  V30 3 C 0.507586 -4.647989 3.891653 0
M  V30 4 C 1.841714 -2.718513 4.025672 0
M  V30 5 C 1.936782 -1.216693 3.977703 0
M  V30 6 N 1.818840 -0.676436 2.652653 0
M  V30 7 C 2.675752 -0.951769 1.561781 0
M  V30 8 O 3.642099 -1.749050 1.761234 0
M  V30 9 C 2.554199 -0.402093 0.217786 0
M  V30 10 C 3.492334 -0.770350 -0.717479 0
M  V30 11 C 3.425840 -0.271054 -2.023971 0
M  V30 12 C 2.430446 0.593159 -2.405952 0
M  V30 13 C 1.474644 0.968730 -1.454135 0
M  V30 14 C 0.369030 1.896591 -1.777901 0
M  V30 15 C 0.557225 3.069284 -2.482126 0
M  V30 16 N -0.647118 3.687493 -2.612296 0
M  V30 17 C -1.544522 2.892736 -1.992399 0
M  V30 18 C -2.904988 2.949477 -1.773940 0
M  V30 19 C -3.608853 1.973572 -1.087506 0
M  V30 20 C -2.926191 0.892348 -0.596988 0
M  V30 21 C -3.602556 -0.163845 0.129559 0
M  V30 22 C -2.931812 -1.239460 0.618988 0
M  V30 23 C -3.632792 -2.212232 1.303402 0
M  V30 24 S -5.432770 -1.614233 1.295489 0
M  V30 25 C -5.056296 -0.087416 0.354938 0
M  V30 26 N -1.609175 0.857804 -0.819904 0
M  V30 27 N -0.958494 1.798062 -1.475810 0
M  V30 28 C 1.556509 0.466806 -0.172220 0
M  V30 29 H -0.456504 -3.834437 1.899101 0
M  V30 30 H 1.246920 -3.458745 1.529816 0
M  V30 31 H 0.028991 -2.086971 1.829616 0
M  V30 32 H 0.598042 -5.239963 2.960321 0
M  V30 33 H 1.350309 -4.952986 4.566726 0
M  V30 34 H -0.483956 -4.880819 4.334947 0
M  V30 35 H 2.111981 -3.074208 5.038239 0
M  V30 36 H 2.656711 -3.133840 3.361172 0
M  V30 37 H 1.114095 -0.788081 4.594124 0
M  V30 38 H 2.877916 -0.904971 4.478887 0
M  V30 39 H 1.042639 -0.000574 2.397285 0
M  V30 40 H 4.314966 -1.446047 -0.512613 0
M  V30 41 H 4.163165 -0.554541 -2.775315 0
M  V30 42 H 2.313060 1.018780 -3.388967 0
M  V30 43 H 1.441151 3.531085 -2.908592 0
M  V30 44 H -3.472556 3.786801 -2.147708 0
M  V30 45 H -4.674032 2.085568 -0.954932 0
M  V30 46 H -1.878931 -1.423004 0.528204 0
M  V30 47 H -3.229691 -3.167980 1.775558 0
M  V30 48 H -5.704872 0.678432 0.038777 0
M  V30 49 H 0.812894 0.771745 0.531596 0
M  V30 END ATOM
M  V30 BEGIN BOND
M  V30 1 1 1 2
M  V30 2 1 2 3
M  V30 3 1 2 4
M  V30 4 1 4 5
M  V30 5 1 5 6
M  V30 6 1 6 7
M  V30 7 2 7 8
M  V30 8 1 7 9
M  V30 9 2 9 10
M  V30 10 1 10 11
M  V30 11 2 11 12
M  V30 12 1 12 13
M  V30 13 1 13 14
M  V30 14 2 14 15
M  V30 15 1 15 16
M  V30 16 2 16 17
M  V30 17 1 17 18
M  V30 18 2 18 19
M  V30 19 1 19 20
M  V30 20 1 20 21
M  V30 21 1 21 22
M  V30 22 2 22 23
M  V30 23 1 23 24
M  V30 24 1 24 25
M  V30 25 2 20 26
M  V30 26 1 26 27
M  V30 27 2 13 28
M  V30 28 1 28 9
M  V30 29 1 27 14
M  V30 30 1 27 17
M  V30 31 2 25 21
M  V30 32 1 1 29
M  V30 33 1 1 30
M  V30 34 1 1 31
M  V30 35 1 3 32
M  V30 36 1 3 33
M  V30 37 1 3 34
M  V30 38 1 4 35
M  V30 39 1 4 36
M  V30 40 1 5 37
M  V30 41 1 5 38
M  V30 42 1 6 39
M  V30 43 1 10 40
M  V30 44 1 11 41
M  V30 45 1 12 42
M  V30 46 1 15 43
M  V30 47 1 18 44
M  V30 48 1 19 45
M  V30 49 1 22 46
M  V30 50 1 23 47
M  V30 51 1 25 48
M  V30 52 1 28 49
M  V30 END BOND
M  V30 END CTAB
M  END
>  <Dataset>  (532) 
ChEMBL_Kinases

>  <Ligand_Instance>  (532) 
nan

>  <PDB_ID>  (532) 
nan

>  <Standardized_SMILES>  (532) 
CN(C)CCNC(=O)c1cccc(-c2cnc3ccc(-c4ccsc4)nn23)c1

>  <Name>  (532) 
nan

>  <Pocket>  (532) 
nan

>  <ATP_Site>  (532) 
nan

>  <Peripheral>  (532) 
nan

>  <Num_H_Atoms_ProtBoundConf>  (532) 
nan

>  <Num_Resolved_Atoms>  (532) 
nan

>  <Num_Not_Resolved_Atoms>  (532) 
nan

$$$$
CHEMBL4209096
     RDKit          3D

  0  0  0  0  0  0  0  0  0  0999 V3000
M  V30 BEGIN CTAB
M  V30 COUNTS 35 37 0 0 0
M  V30 BEGIN ATOM
M  V30 1 C -0.354021 -4.386655 1.761383 0
M  V30 2 C 1.084670 -4.371746 1.393935 0
M  V30 3 N 1.903390 -5.429242 1.551686 0
M  V30 4 N 3.104716 -5.076829 1.127537 0
M  V30 5 C 3.037518 -3.806069 0.706928 0
M  V30 6 C 1.753335 -3.295229 0.854744 0
M  V30 7 C 1.300029 -1.961791 0.510833 0
M  V30 8 C 0.153710 -1.306085 0.578091 0
M  V30 9 C 0.075196 -0.011305 0.153294 0
M  V30 10 C 1.272455 0.575502 -0.354090 0
M  V30 11 S 2.454604 -0.794245 -0.185355 0
M  V30 12 C 1.335284 1.969701 -0.844602 0
M  V30 13 O 2.482988 2.302985 -1.254461 0
M  V30 14 N 0.153424 2.759149 -0.808303 0
M  V30 15 C -0.756827 2.352093 0.242692 0
M  V30 16 C -0.065031 2.554207 1.593204 0
M  V30 17 C -2.010731 3.143960 0.281518 0
M  V30 18 N -0.989011 0.927297 0.102449 0
M  V30 19 C -2.370648 0.456524 -0.094274 0
M  V30 20 H -0.997921 -4.166395 0.885423 0
M  V30 21 H -0.569362 -3.603488 2.523449 0
M  V30 22 H -0.671425 -5.393431 2.121183 0
M  V30 23 H 3.920869 -5.701594 1.136934 0
M  V30 24 H 3.919630 -3.306172 0.312443 0
M  V30 25 H -0.706440 -1.823462 0.973322 0
M  V30 26 H 0.143391 3.507366 -1.554196 0
M  V30 27 H 0.120957 1.592305 2.111271 0
M  V30 28 H -0.654323 3.178953 2.285280 0
M  V30 29 H 0.907106 3.069874 1.447599 0
M  V30 30 H -1.712008 4.212566 0.440718 0
M  V30 31 H -2.620941 3.147478 -0.627751 0
M  V30 32 H -2.551916 2.874640 1.210812 0
M  V30 33 H -2.563598 -0.470203 0.480372 0
M  V30 34 H -3.097115 1.229046 0.135563 0
M  V30 35 H -2.537792 0.178842 -1.170340 0
M  V30 END ATOM
M  V30 BEGIN BOND
M  V30 1 1 1 2
M  V30 2 2 2 3
M  V30 3 1 3 4
M  V30 4 1 4 5
M  V30 5 2 5 6
M  V30 6 1 6 7
M  V30 7 2 7 8
M  V30 8 1 8 9
M  V30 9 2 9 10
M  V30 10 1 10 11
M  V30 11 1 10 12
M  V30 12 2 12 13
M  V30 13 1 12 14
M  V30 14 1 14 15
M  V30 15 1 15 16
M  V30 16 1 15 17
M  V30 17 1 15 18
M  V30 18 1 18 19
M  V30 19 1 6 2
M  V30 20 1 11 7
M  V30 21 1 18 9
M  V30 22 1 1 20
M  V30 23 1 1 21
M  V30 24 1 1 22
M  V30 25 1 4 23
M  V30 26 1 5 24
M  V30 27 1 8 25
M  V30 28 1 14 26
M  V30 29 1 16 27
M  V30 30 1 16 28
M  V30 31 1 16 29
M  V30 32 1 17 30
M  V30 33 1 17 31
M  V30 34 1 17 32
M  V30 35 1 19 33
M  V30 36 1 19 34
M  V30 37 1 19 35
M  V30 END BOND
M  V30 END CTAB
M  END
>  <Dataset>  (533) 
ChEMBL_Kinases

>  <Ligand_Instance>  (533) 
nan

>  <PDB_ID>  (533) 
nan

>  <Standardized_SMILES>  (533) 
Cc1n[nH]cc1-c1cc2c(s1)C(=O)NC(C)(C)N2C

>  <Name>  (533) 
nan

>  <Pocket>  (533) 
nan

>  <ATP_Site>  (533) 
nan

>  <Peripheral>  (533) 
nan

>  <Num_H_Atoms_ProtBoundConf>  (533) 
nan

>  <Num_Resolved_Atoms>  (533) 
nan

>  <Num_Not_Resolved_Atoms>  (533) 
nan

$$$$
CHEMBL4209095
     RDKit          3D

  0  0  0  0  0  0  0  0  0  0999 V3000
M  V30 BEGIN CTAB
M  V30 COUNTS 45 48 0 0 0
M  V30 BEGIN ATOM
M  V30 1 C 2.380557 -5.232159 1.216345 0
M  V30 2 N 3.339095 -4.300062 0.632053 0
M  V30 3 C 3.368889 -4.172540 -0.826472 0
M  V30 4 C 4.226611 -2.981345 -1.088988 0
M  V30 5 C 4.507068 -2.322278 0.248619 0 CFG=1
M  V30 6 O 5.789281 -1.783373 0.300997 0
M  V30 7 C 3.597259 -1.199060 0.497412 0
M  V30 8 C 2.836083 -0.275088 0.719662 0
M  V30 9 C 1.929391 0.820572 0.958812 0
M  V30 10 C 2.463018 2.099233 1.114987 0
M  V30 11 C 1.624928 3.173297 1.345499 0
M  V30 12 C 0.258065 3.001371 1.424504 0
M  V30 13 C -0.294750 1.729720 1.270892 0
M  V30 14 N -1.701902 1.505068 1.344875 0
M  V30 15 N -2.391421 1.259444 2.446309 0
M  V30 16 C -3.703889 1.097026 2.145095 0
M  V30 17 C -4.873302 0.812811 2.973020 0
M  V30 18 N -4.582215 0.680996 4.359402 0
M  V30 19 O -6.036784 0.686764 2.564594 0
M  V30 20 C -3.759988 1.263442 0.769907 0
M  V30 21 C -4.822210 1.212219 -0.104290 0
M  V30 22 C -4.600820 1.417809 -1.453767 0
M  V30 23 C -3.329347 1.674265 -1.940831 0
M  V30 24 N -2.316481 1.717968 -1.066847 0
M  V30 25 C -2.491824 1.523179 0.253095 0
M  V30 26 C 0.581793 0.675153 1.040420 0
M  V30 27 C 4.320538 -3.427186 1.225128 0
M  V30 28 O 4.726631 -3.835880 2.363544 0
M  V30 29 H 2.478532 -5.312626 2.321502 0
M  V30 30 H 2.529566 -6.263040 0.826638 0
M  V30 31 H 1.328778 -4.928325 0.982587 0
M  V30 32 H 2.339065 -4.032230 -1.227182 0
M  V30 33 H 3.868613 -5.058540 -1.297520 0
M  V30 34 H 3.642771 -2.249686 -1.685009 0
M  V30 35 H 5.157822 -3.215605 -1.640046 0
M  V30 36 H 6.410193 -2.562891 0.248028 0
M  V30 37 H 3.536606 2.274522 1.059148 0
M  V30 38 H 1.990789 4.197182 1.475304 0
M  V30 39 H -0.380907 3.844044 1.603919 0
M  V30 40 H -3.995110 0.128820 5.032854 0
M  V30 41 H -4.817881 1.065901 5.299731 0
M  V30 42 H -5.821423 1.016586 0.232058 0
M  V30 43 H -5.427728 1.380520 -2.154639 0
M  V30 44 H -3.201783 1.830250 -3.013268 0
M  V30 45 H 0.146657 -0.309255 0.922065 0
M  V30 END ATOM
M  V30 BEGIN BOND
M  V30 1 1 1 2
M  V30 2 1 2 3
M  V30 3 1 3 4
M  V30 4 1 4 5
M  V30 5 1 5 6
M  V30 6 1 5 7 CFG=1
M  V30 7 3 7 8
M  V30 8 1 8 9
M  V30 9 2 9 10
M  V30 10 1 10 11
M  V30 11 2 11 12
M  V30 12 1 12 13
M  V30 13 1 13 14
M  V30 14 1 14 15
M  V30 15 2 15 16
M  V30 16 1 16 17
M  V30 17 1 17 18
M  V30 18 2 17 19
M  V30 19 1 16 20
M  V30 20 2 20 21
M  V30 21 1 21 22
M  V30 22 2 22 23
M  V30 23 1 23 24
M  V30 24 2 24 25
M  V30 25 2 13 26
M  V30 26 1 5 27
M  V30 27 2 27 28
M  V30 28 1 27 2
M  V30 29 1 26 9
M  V30 30 1 25 14
M  V30 31 1 25 20
M  V30 32 1 1 29
M  V30 33 1 1 30
M  V30 34 1 1 31
M  V30 35 1 3 32
M  V30 36 1 3 33
M  V30 37 1 4 34
M  V30 38 1 4 35
M  V30 39 1 6 36
M  V30 40 1 10 37
M  V30 41 1 11 38
M  V30 42 1 12 39
M  V30 43 1 18 40
M  V30 44 1 18 41
M  V30 45 1 21 42
M  V30 46 1 22 43
M  V30 47 1 23 44
M  V30 48 1 26 45
M  V30 END BOND
M  V30 END CTAB
M  END
>  <Dataset>  (534) 
ChEMBL_Kinases

>  <Ligand_Instance>  (534) 
nan

>  <PDB_ID>  (534) 
nan

>  <Standardized_SMILES>  (534) 
CN1CC[C@@](O)(C#Cc2cccc(-n3nc(C(N)=O)c4cccnc43)c2)C1=O

>  <Name>  (534) 
nan

>  <Pocket>  (534) 
nan

>  <ATP_Site>  (534) 
nan

>  <Peripheral>  (534) 
nan

>  <Num_H_Atoms_ProtBoundConf>  (534) 
nan

>  <Num_Resolved_Atoms>  (534) 
nan

>  <Num_Not_Resolved_Atoms>  (534) 
nan

$$$$
CHEMBL4209082
     RDKit          3D

  0  0  0  0  0  0  0  0  0  0999 V3000
M  V30 BEGIN CTAB
M  V30 COUNTS 61 65 0 0 0
M  V30 BEGIN ATOM
M  V30 1 C 8.988774 -0.214139 5.191857 0
M  V30 2 C 7.745783 0.278842 4.542480 0
M  V30 3 C 6.931140 -0.558081 3.807171 0
M  V30 4 C 5.792555 -0.034886 3.231612 0
M  V30 5 C 5.394432 1.279938 3.332666 0
M  V30 6 N 4.236225 1.860342 2.760294 0
M  V30 7 C 3.257224 1.208664 1.972272 0
M  V30 8 N 3.231232 -0.080388 1.612605 0
M  V30 9 C 2.288422 -0.668395 0.864340 0
M  V30 10 C 1.243365 0.094446 0.411736 0
M  V30 11 C 1.229370 1.419932 0.756041 0
M  V30 12 N 2.214754 1.912598 1.505610 0
M  V30 13 N 0.164553 2.231351 0.304185 0
M  V30 14 C 0.089371 3.633069 0.630289 0
M  V30 15 C -0.884602 1.700970 -0.495230 0
M  V30 16 O -1.825336 2.412128 -0.895958 0
M  V30 17 N -0.837867 0.315240 -0.834975 0
M  V30 18 C -1.851330 -0.291758 -1.631838 0
M  V30 19 C -2.968841 -0.855093 -1.049863 0
M  V30 20 C -3.897652 -1.420690 -1.909928 0
M  V30 21 N -5.093082 -2.029713 -1.375111 0
M  V30 22 C -4.827029 -3.399407 -1.122605 0
M  V30 23 O -3.659851 -3.774076 -1.405512 0
M  V30 24 C -5.783976 -4.358472 -0.578116 0
M  V30 25 C -5.321521 -5.647933 -0.409271 0
M  V30 26 C -6.159645 -6.618575 0.099871 0
M  V30 27 C -7.433623 -6.238272 0.416455 0
M  V30 28 C -7.908382 -4.953180 0.252646 0
M  V30 29 C -7.066481 -3.963719 -0.262351 0
M  V30 30 C -3.774113 -1.453346 -3.284287 0
M  V30 31 C -2.621876 -0.868154 -3.824296 0
M  V30 32 C -1.658340 -0.286302 -2.999386 0
M  V30 33 C -0.491108 0.294989 -3.706251 0
M  V30 34 C 0.213740 -0.568346 -0.411052 0
M  V30 35 C 6.259303 2.049840 4.081622 0
M  V30 36 N 7.375210 1.568356 4.654081 0
M  V30 37 H 9.784884 -0.452542 4.487425 0
M  V30 38 H 8.807407 -1.102920 5.833745 0
M  V30 39 H 9.360057 0.573930 5.880397 0
M  V30 40 H 7.185040 -1.599812 3.688475 0
M  V30 41 H 5.194735 -0.721761 2.672611 0
M  V30 42 H 4.097071 2.879781 2.944399 0
M  V30 43 H 2.440038 -1.720795 0.679109 0
M  V30 44 H -0.196180 4.255743 -0.256316 0
M  V30 45 H 1.041277 4.038206 1.036303 0
M  V30 46 H -0.675930 3.786323 1.434672 0
M  V30 47 H -3.111369 -0.855054 0.016061 0
M  V30 48 H -6.050580 -1.672899 -1.155254 0
M  V30 49 H -4.312495 -5.950685 -0.659654 0
M  V30 50 H -5.801214 -7.630091 0.233729 0
M  V30 51 H -8.071602 -7.036913 0.818741 0
M  V30 52 H -8.931853 -4.703097 0.520618 0
M  V30 53 H -7.423825 -2.970493 -0.392031 0
M  V30 54 H -4.498116 -1.892857 -3.936107 0
M  V30 55 H -2.529814 -0.896781 -4.908075 0
M  V30 56 H -0.026780 -0.434291 -4.414252 0
M  V30 57 H -0.792564 1.147577 -4.367450 0
M  V30 58 H 0.310804 0.641092 -3.037470 0
M  V30 59 H -0.196254 -1.449090 0.143768 0
M  V30 60 H 0.690511 -0.991223 -1.319728 0
M  V30 61 H 6.088134 3.120258 4.259913 0
M  V30 END ATOM
M  V30 BEGIN BOND
M  V30 1 1 1 2
M  V30 2 2 2 3
M  V30 3 1 3 4
M  V30 4 2 4 5
M  V30 5 1 5 6
M  V30 6 1 6 7
M  V30 7 2 7 8
M  V30 8 1 8 9
M  V30 9 2 9 10
M  V30 10 1 10 11
M  V30 11 2 11 12
M  V30 12 1 11 13
M  V30 13 1 13 14
M  V30 14 1 13 15
M  V30 15 2 15 16
M  V30 16 1 15 17
M  V30 17 1 17 18
M  V30 18 2 18 19
M  V30 19 1 19 20
M  V30 20 1 20 21
M  V30 21 1 21 22
M  V30 22 2 22 23
M  V30 23 1 22 24
M  V30 24 2 24 25
M  V30 25 1 25 26
M  V30 26 2 26 27
M  V30 27 1 27 28
M  V30 28 2 28 29
M  V30 29 2 20 30
M  V30 30 1 30 31
M  V30 31 2 31 32
M  V30 32 1 32 33
M  V30 33 1 17 34
M  V30 34 1 5 35
M  V30 35 2 35 36
M  V30 36 1 36 2
M  V30 37 1 12 7
M  V30 38 1 32 18
M  V30 39 1 34 10
M  V30 40 1 29 24
M  V30 41 1 1 37
M  V30 42 1 1 38
M  V30 43 1 1 39
M  V30 44 1 3 40
M  V30 45 1 4 41
M  V30 46 1 6 42
M  V30 47 1 9 43
M  V30 48 1 14 44
M  V30 49 1 14 45
M  V30 50 1 14 46
M  V30 51 1 19 47
M  V30 52 1 21 48
M  V30 53 1 25 49
M  V30 54 1 26 50
M  V30 55 1 27 51
M  V30 56 1 28 52
M  V30 57 1 29 53
M  V30 58 1 30 54
M  V30 59 1 31 55
M  V30 60 1 33 56
M  V30 61 1 33 57
M  V30 62 1 33 58
M  V30 63 1 34 59
M  V30 64 1 34 60
M  V30 65 1 35 61
M  V30 END BOND
M  V30 END CTAB
M  END
>  <Dataset>  (535) 
ChEMBL_Kinases

>  <Ligand_Instance>  (535) 
nan

>  <PDB_ID>  (535) 
nan

>  <Standardized_SMILES>  (535) 
Cc1ccc(Nc2ncc3c(n2)N(C)C(=O)N(c2cc(NC(=O)c4ccccc4)ccc2C)C3)cn1

>  <Name>  (535) 
nan

>  <Pocket>  (535) 
nan

>  <ATP_Site>  (535) 
nan

>  <Peripheral>  (535) 
nan

>  <Num_H_Atoms_ProtBoundConf>  (535) 
nan

>  <Num_Resolved_Atoms>  (535) 
nan

>  <Num_Not_Resolved_Atoms>  (535) 
nan

$$$$
CHEMBL4782275
     RDKit          3D

  0  0  0  0  0  0  0  0  0  0999 V3000
M  V30 BEGIN CTAB
M  V30 COUNTS 60 63 0 0 0
M  V30 BEGIN ATOM
M  V30 1 C 6.172129 -1.747410 4.587633 0
M  V30 2 C 5.618941 -0.899992 5.470364 0
M  V30 3 C 4.824470 -0.384247 4.374972 0
M  V30 4 O 5.107647 -1.002159 3.310214 0
M  V30 5 N 3.873460 0.683170 4.569580 0
M  V30 6 C 3.171479 1.078585 3.396973 0
M  V30 7 C 3.540057 2.035959 2.474485 0
M  V30 8 C 4.783524 2.871603 2.512555 0
M  V30 9 N 2.573158 2.086931 1.518527 0
M  V30 10 C 1.582401 1.207572 1.766955 0
M  V30 11 C 0.346999 0.919166 1.061004 0
M  V30 12 C -0.564389 1.781020 0.643614 0
M  V30 13 C -0.565723 3.214360 0.786981 0
M  V30 14 O 0.345876 3.809189 1.375609 0
M  V30 15 N -1.737198 3.654895 0.153961 0
M  V30 16 C -2.479441 2.567739 -0.384149 0
M  V30 17 C -3.673928 2.536469 -1.080426 0
M  V30 18 C -4.177244 1.295585 -1.498634 0
M  V30 19 C -3.486237 0.136480 -1.215806 0
M  V30 20 C -4.005310 -1.151445 -1.662997 0
M  V30 21 O -5.069666 -1.067038 -2.365519 0
M  V30 22 N -3.455643 -2.407020 -1.396424 0
M  V30 23 C -3.988932 -3.657027 -1.858139 0 CFG=2
M  V30 24 C -4.168665 -4.694202 -0.791801 0
M  V30 25 C -2.978198 -4.208091 -2.824956 0
M  V30 26 C -3.242431 -4.758998 -4.064179 0
M  V30 27 C -2.207595 -5.225348 -4.847557 0
M  V30 28 C -0.882217 -5.170356 -4.449948 0
M  V30 29 C -0.622903 -4.617001 -3.207099 0
M  V30 30 C -1.644669 -4.142826 -2.403756 0
M  V30 31 C -2.284099 0.215147 -0.509956 0
M  V30 32 C -1.773503 1.420757 -0.090855 0
M  V30 33 C 1.953430 0.573621 2.942498 0
M  V30 34 C 1.225416 -0.509016 3.698901 0
M  V30 35 H 6.931911 -2.524206 4.679645 0
M  V30 36 H 6.562122 -2.392064 3.805381 0
M  V30 37 H 6.064449 -1.077275 6.461180 0
M  V30 38 H 3.780319 1.069209 5.532280 0
M  V30 39 H 5.270145 2.784333 3.482097 0
M  V30 40 H 4.516787 3.959032 2.381565 0
M  V30 41 H 5.451604 2.558573 1.687252 0
M  V30 42 H 2.657279 2.736468 0.711319 0
M  V30 43 H 0.180083 -0.145352 0.866391 0
M  V30 44 H -1.943114 4.694333 0.139157 0
M  V30 45 H -4.161656 3.478698 -1.266538 0
M  V30 46 H -5.113377 1.317979 -2.039961 0
M  V30 47 H -2.595790 -2.395271 -0.813344 0
M  V30 48 H -4.909778 -3.522563 -2.466587 0
M  V30 49 H -4.091498 -5.700775 -1.285001 0
M  V30 50 H -3.325517 -4.645632 -0.080910 0
M  V30 51 H -5.163698 -4.650012 -0.324741 0
M  V30 52 H -4.289142 -4.773385 -4.314192 0
M  V30 53 H -2.465732 -5.652115 -5.817458 0
M  V30 54 H -0.092881 -5.545083 -5.088740 0
M  V30 55 H 0.430552 -4.600451 -2.949680 0
M  V30 56 H -1.254261 -3.751060 -1.476154 0
M  V30 57 H -1.703017 -0.658969 -0.262189 0
M  V30 58 H 1.875310 -0.977430 4.442196 0
M  V30 59 H 0.871769 -1.309396 3.031958 0
M  V30 60 H 0.362812 -0.068618 4.237320 0
M  V30 END ATOM
M  V30 BEGIN BOND
M  V30 1 2 1 2
M  V30 2 1 2 3
M  V30 3 2 3 4
M  V30 4 1 3 5
M  V30 5 1 5 6
M  V30 6 2 6 7
M  V30 7 1 7 8
M  V30 8 1 7 9
M  V30 9 1 9 10
M  V30 10 1 10 11
M  V30 11 2 11 12
M  V30 12 1 12 13
M  V30 13 2 13 14
M  V30 14 1 13 15
M  V30 15 1 15 16
M  V30 16 2 16 17
M  V30 17 1 17 18
M  V30 18 2 18 19
M  V30 19 1 19 20
M  V30 20 2 20 21
M  V30 21 1 20 22
M  V30 22 1 22 23
M  V30 23 1 23 24
M  V30 24 1 23 25
M  V30 25 2 25 26
M  V30 26 1 26 27
M  V30 27 2 27 28
M  V30 28 1 28 29
M  V30 29 2 29 30
M  V30 30 1 19 31
M  V30 31 2 31 32
M  V30 32 2 10 33
M  V30 33 1 33 34
M  V30 34 1 33 6
M  V30 35 1 32 12
M  V30 36 1 32 16
M  V30 37 1 30 25
M  V30 38 1 1 35
M  V30 39 1 1 36
M  V30 40 1 2 37
M  V30 41 1 5 38
M  V30 42 1 8 39
M  V30 43 1 8 40
M  V30 44 1 8 41
M  V30 45 1 9 42
M  V30 46 1 11 43
M  V30 47 1 15 44
M  V30 48 1 17 45
M  V30 49 1 18 46
M  V30 50 1 22 47
M  V30 51 1 23 48 CFG=3
M  V30 52 1 24 49
M  V30 53 1 24 50
M  V30 54 1 24 51
M  V30 55 1 26 52
M  V30 56 1 27 53
M  V30 57 1 28 54
M  V30 58 1 29 55
M  V30 59 1 30 56
M  V30 60 1 31 57
M  V30 61 1 34 58
M  V30 62 1 34 59
M  V30 63 1 34 60
M  V30 END BOND
M  V30 END CTAB
M  END
>  <Dataset>  (536) 
ChEMBL_Kinases

>  <Ligand_Instance>  (536) 
nan

>  <PDB_ID>  (536) 
nan

>  <Standardized_SMILES>  (536) 
C=CC(=O)Nc1c(C)[nH]c(/C=C2\C(=O)Nc3ccc(C(=O)N[C@H](C)c4ccccc4)cc32)c1C

>  <Name>  (536) 
nan

>  <Pocket>  (536) 
nan

>  <ATP_Site>  (536) 
nan

>  <Peripheral>  (536) 
nan

>  <Num_H_Atoms_ProtBoundConf>  (536) 
nan

>  <Num_Resolved_Atoms>  (536) 
nan

>  <Num_Not_Resolved_Atoms>  (536) 
nan

$$$$
CHEMBL4208982
     RDKit          3D

  0  0  0  0  0  0  0  0  0  0999 V3000
M  V30 BEGIN CTAB
M  V30 COUNTS 47 51 0 0 0
M  V30 BEGIN ATOM
M  V30 1 C 1.359593 -3.132936 1.788127 0
M  V30 2 O 1.245055 -1.762109 2.081653 0
M  V30 3 C 2.250022 -0.858982 1.761407 0
M  V30 4 C 3.410015 -1.319590 1.129623 0
M  V30 5 C 4.481264 -0.508365 0.761840 0
M  V30 6 C 5.661504 -1.099386 0.097689 0
M  V30 7 N 5.563901 -1.125698 -1.345284 0
M  V30 8 C 4.345891 0.831856 1.059934 0
M  V30 9 C 3.204069 1.310531 1.686229 0
M  V30 10 C 2.156290 0.469072 2.037582 0
M  V30 11 N 1.004110 0.997939 2.677555 0
M  V30 12 C 1.085371 1.675800 3.859365 0
M  V30 13 N -0.161360 2.051546 4.214700 0
M  V30 14 C -0.976426 1.595233 3.242702 0
M  V30 15 C -2.349129 1.688618 3.084375 0
M  V30 16 C -2.948060 1.128529 1.984489 0
M  V30 17 C -2.258262 0.459623 0.996971 0
M  V30 18 C -2.806619 -0.156008 -0.186344 0
M  V30 19 C -2.140208 0.076288 -1.391924 0
M  V30 20 C -2.590532 -0.471699 -2.581578 0
M  V30 21 N -3.702967 -1.255149 -2.597333 0
M  V30 22 C -4.367626 -1.499276 -1.458679 0
M  V30 23 N -5.467983 -2.207719 -1.133218 0
M  V30 24 C -5.744016 -2.144234 0.184900 0
M  V30 25 C -4.763407 -1.348678 0.736653 0
M  V30 26 C -3.924032 -0.956374 -0.270896 0
M  V30 27 C -0.884734 0.369331 1.160791 0
M  V30 28 C -0.272370 0.927974 2.261312 0
M  V30 29 H 2.062992 -3.663197 2.476493 0
M  V30 30 H 1.605999 -3.332687 0.731315 0
M  V30 31 H 0.362653 -3.585196 1.973295 0
M  V30 32 H 3.491122 -2.371495 0.907609 0
M  V30 33 H 5.858857 -2.139224 0.465283 0
M  V30 34 H 6.588023 -0.532923 0.352962 0
M  V30 35 H 5.442155 -2.118301 -1.680489 0
M  V30 36 H 6.461588 -0.800855 -1.800531 0
M  V30 37 H 5.182313 1.471846 0.773923 0
M  V30 38 H 3.159288 2.383299 1.894616 0
M  V30 39 H 1.951429 1.910802 4.463516 0
M  V30 40 H -2.988310 2.192374 3.800309 0
M  V30 41 H -4.012799 1.196612 1.854140 0
M  V30 42 H -1.251030 0.673397 -1.528535 0
M  V30 43 H -2.154313 -0.354027 -3.546989 0
M  V30 44 H -6.075209 -2.763740 -1.799805 0
M  V30 45 H -6.552090 -2.605760 0.725009 0
M  V30 46 H -4.701472 -1.101140 1.783013 0
M  V30 47 H -0.250465 -0.140194 0.433818 0
M  V30 END ATOM
M  V30 BEGIN BOND
M  V30 1 1 1 2
M  V30 2 1 2 3
M  V30 3 2 3 4
M  V30 4 1 4 5
M  V30 5 1 5 6
M  V30 6 1 6 7
M  V30 7 2 5 8
M  V30 8 1 8 9
M  V30 9 2 9 10
M  V30 10 1 10 11
M  V30 11 1 11 12
M  V30 12 2 12 13
M  V30 13 1 13 14
M  V30 14 2 14 15
M  V30 15 1 15 16
M  V30 16 2 16 17
M  V30 17 1 17 18
M  V30 18 2 18 19
M  V30 19 1 19 20
M  V30 20 2 20 21
M  V30 21 1 21 22
M  V30 22 1 22 23
M  V30 23 1 23 24
M  V30 24 2 24 25
M  V30 25 1 25 26
M  V30 26 1 17 27
M  V30 27 2 27 28
M  V30 28 1 10 3
M  V30 29 1 28 11
M  V30 30 1 28 14
M  V30 31 1 26 18
M  V30 32 2 26 22
M  V30 33 1 1 29
M  V30 34 1 1 30
M  V30 35 1 1 31
M  V30 36 1 4 32
M  V30 37 1 6 33
M  V30 38 1 6 34
M  V30 39 1 7 35
M  V30 40 1 7 36
M  V30 41 1 8 37
M  V30 42 1 9 38
M  V30 43 1 12 39
M  V30 44 1 15 40
M  V30 45 1 16 41
M  V30 46 1 19 42
M  V30 47 1 20 43
M  V30 48 1 23 44
M  V30 49 1 24 45
M  V30 50 1 25 46
M  V30 51 1 27 47
M  V30 END BOND
M  V30 END CTAB
M  END
>  <Dataset>  (537) 
ChEMBL_Kinases

>  <Ligand_Instance>  (537) 
nan

>  <PDB_ID>  (537) 
nan

>  <Standardized_SMILES>  (537) 
COc1cc(CN)ccc1-n1cnc2ccc(-c3ccnc4[nH]ccc34)cc21

>  <Name>  (537) 
nan

>  <Pocket>  (537) 
nan

>  <ATP_Site>  (537) 
nan

>  <Peripheral>  (537) 
nan

>  <Num_H_Atoms_ProtBoundConf>  (537) 
nan

>  <Num_Resolved_Atoms>  (537) 
nan

>  <Num_Not_Resolved_Atoms>  (537) 
nan

$$$$
CHEMBL4208935
     RDKit          3D

  0  0  0  0  0  0  0  0  0  0999 V3000
M  V30 BEGIN CTAB
M  V30 COUNTS 52 56 0 0 0
M  V30 BEGIN ATOM
M  V30 1 O 0.731670 -3.478695 1.551934 0
M  V30 2 C -0.013353 -2.480445 1.361553 0
M  V30 3 C 0.274968 -1.039658 1.272259 0
M  V30 4 N 1.509344 -0.690458 1.409019 0
M  V30 5 N 1.969937 0.632115 1.353702 0
M  V30 6 C 2.327849 1.051729 0.047966 0
M  V30 7 C 1.825351 0.451186 -1.087110 0
M  V30 8 C 2.171259 0.831723 -2.356684 0
M  V30 9 C 3.060655 1.858806 -2.580262 0
M  V30 10 C 3.591015 2.490613 -1.480823 0
M  V30 11 C 3.213242 2.072663 -0.222610 0
M  V30 12 C 2.004172 1.326694 2.589309 0
M  V30 13 C 1.980904 2.692232 2.758649 0
M  V30 14 C 2.033648 3.346926 3.960649 0
M  V30 15 C 2.116065 2.600014 5.099663 0
M  V30 16 C 2.142684 1.231258 4.997168 0
M  V30 17 C 2.087652 0.621822 3.769859 0
M  V30 18 C -1.002252 -0.374909 1.039236 0
M  V30 19 C -1.162686 0.990531 0.895625 0
M  V30 20 C -2.471092 1.434494 0.678057 0
M  V30 21 C -3.522310 0.514317 0.617146 0
M  V30 22 C -3.277345 -0.846960 0.771882 0
M  V30 23 C -1.993485 -1.304289 0.987302 0
M  V30 24 N -1.435091 -2.617179 1.180360 0
M  V30 25 C -2.179510 -3.866523 1.190538 0
M  V30 26 C -2.237494 -4.405459 -0.196873 0
M  V30 27 C -1.221541 -5.264837 -0.618227 0
M  V30 28 C -1.181000 -5.818483 -1.881757 0
M  V30 29 C -2.205107 -5.488924 -2.745423 0
M  V30 30 C -3.244853 -4.638092 -2.383030 0
M  V30 31 C -3.235648 -4.111630 -1.104373 0
M  V30 32 H 1.110097 -0.375672 -0.957721 0
M  V30 33 H 1.715731 0.290618 -3.183161 0
M  V30 34 H 3.262245 2.076229 -3.611046 0
M  V30 35 H 4.287998 3.295433 -1.657412 0
M  V30 36 H 3.691718 2.621639 0.566904 0
M  V30 37 H 1.904360 3.327406 1.888517 0
M  V30 38 H 2.011887 4.422493 4.026844 0
M  V30 39 H 2.163188 2.999104 6.095519 0
M  V30 40 H 2.207959 0.605276 5.888349 0
M  V30 41 H 2.111680 -0.467672 3.739051 0
M  V30 42 H -0.350346 1.705049 0.942384 0
M  V30 43 H -2.710339 2.487075 0.551629 0
M  V30 44 H -4.533901 0.884242 0.446553 0
M  V30 45 H -4.099266 -1.547940 0.722605 0
M  V30 46 H -1.729811 -4.600240 1.887096 0
M  V30 47 H -3.216045 -3.615611 1.514321 0
M  V30 48 H -0.433352 -5.509007 0.069219 0
M  V30 49 H -0.383821 -6.482775 -2.188297 0
M  V30 50 H -2.236374 -5.891892 -3.763281 0
M  V30 51 H -4.039306 -4.394584 -3.082199 0
M  V30 52 H -4.027610 -3.446295 -0.786890 0
M  V30 END ATOM
M  V30 BEGIN BOND
M  V30 1 2 1 2
M  V30 2 1 2 3
M  V30 3 2 3 4 CFG=2
M  V30 4 1 4 5
M  V30 5 1 5 6
M  V30 6 2 6 7
M  V30 7 1 7 8
M  V30 8 2 8 9
M  V30 9 1 9 10
M  V30 10 2 10 11
M  V30 11 1 5 12
M  V30 12 2 12 13
M  V30 13 1 13 14
M  V30 14 2 14 15
M  V30 15 1 15 16
M  V30 16 2 16 17
M  V30 17 1 3 18
M  V30 18 2 18 19
M  V30 19 1 19 20
M  V30 20 2 20 21
M  V30 21 1 21 22
M  V30 22 2 22 23
M  V30 23 1 23 24
M  V30 24 1 24 25
M  V30 25 1 25 26
M  V30 26 2 26 27
M  V30 27 1 27 28
M  V30 28 2 28 29
M  V30 29 1 29 30
M  V30 30 2 30 31
M  V30 31 1 24 2
M  V30 32 1 31 26
M  V30 33 1 11 6
M  V30 34 1 17 12
M  V30 35 1 23 18
M  V30 36 1 7 32
M  V30 37 1 8 33
M  V30 38 1 9 34
M  V30 39 1 10 35
M  V30 40 1 11 36
M  V30 41 1 13 37
M  V30 42 1 14 38
M  V30 43 1 15 39
M  V30 44 1 16 40
M  V30 45 1 17 41
M  V30 46 1 19 42
M  V30 47 1 20 43
M  V30 48 1 21 44
M  V30 49 1 22 45
M  V30 50 1 25 46
M  V30 51 1 25 47
M  V30 52 1 27 48
M  V30 53 1 28 49
M  V30 54 1 29 50
M  V30 55 1 30 51
M  V30 56 1 31 52
M  V30 END BOND
M  V30 END CTAB
M  END
>  <Dataset>  (538) 
ChEMBL_Kinases

>  <Ligand_Instance>  (538) 
nan

>  <PDB_ID>  (538) 
nan

>  <Standardized_SMILES>  (538) 
O=C1C(=NN(c2ccccc2)c2ccccc2)c2ccccc2N1Cc1ccccc1

>  <Name>  (538) 
nan

>  <Pocket>  (538) 
nan

>  <ATP_Site>  (538) 
nan

>  <Peripheral>  (538) 
nan

>  <Num_H_Atoms_ProtBoundConf>  (538) 
nan

>  <Num_Resolved_Atoms>  (538) 
nan

>  <Num_Not_Resolved_Atoms>  (538) 
nan

$$$$
CHEMBL4208925
     RDKit          3D

  0  0  0  0  0  0  0  0  0  0999 V3000
M  V30 BEGIN CTAB
M  V30 COUNTS 51 54 0 0 0
M  V30 BEGIN ATOM
M  V30 1 C -1.346144 -5.720947 -0.850998 0
M  V30 2 N -0.969228 -4.539791 -1.595197 0
M  V30 3 C -1.840609 -3.435011 -1.363688 0
M  V30 4 C -1.220653 -2.104485 -1.758235 0
M  V30 5 N 0.120530 -1.983792 -1.244813 0
M  V30 6 C 0.281714 -2.155511 0.149948 0
M  V30 7 C -0.167127 -1.147266 1.108067 0
M  V30 8 O 0.438597 0.122990 1.016513 0
M  V30 9 C 1.313041 0.686410 1.885064 0
M  V30 10 O 1.603511 -0.042215 2.895005 0
M  V30 11 C 1.974644 1.982644 1.854659 0
M  V30 12 C 1.713271 2.881673 0.807040 0
M  V30 13 C 2.349001 4.108507 0.787592 0
M  V30 14 C 3.251233 4.521407 1.756763 0
M  V30 15 C 3.463478 3.597531 2.751396 0
M  V30 16 C 2.867208 2.369425 2.829552 0
M  V30 17 O 4.389716 4.112934 3.675908 0
M  V30 18 C 4.599510 5.485623 3.366813 0
M  V30 19 O 4.043302 5.609560 2.064795 0
M  V30 20 C -1.605771 -1.057146 1.428037 0
M  V30 21 C -2.262287 0.050113 0.871504 0
M  V30 22 C -3.599361 0.346631 1.037114 0
M  V30 23 C -4.356727 -0.515041 1.813491 0
M  V30 24 C -3.736650 -1.621819 2.378494 0
M  V30 25 C -2.402611 -1.886914 2.193046 0
M  V30 26 C 0.872324 -3.002984 -1.953825 0
M  V30 27 C 0.425710 -4.339968 -1.419279 0
M  V30 28 H -0.472021 -6.433879 -0.958900 0
M  V30 29 H -1.369324 -5.451762 0.232566 0
M  V30 30 H -2.293593 -6.186850 -1.188314 0
M  V30 31 H -2.725873 -3.566887 -2.026491 0
M  V30 32 H -2.249791 -3.398295 -0.324942 0
M  V30 33 H -1.096325 -2.192259 -2.882706 0
M  V30 34 H -1.893629 -1.286553 -1.606290 0
M  V30 35 H 1.314662 -2.494662 0.422920 0
M  V30 36 H -0.332640 -3.087863 0.402951 0
M  V30 37 H 0.272880 -1.514011 2.111482 0
M  V30 38 H 1.024262 2.617451 0.023047 0
M  V30 39 H 2.181388 4.853881 -0.011425 0
M  V30 40 H 3.072290 1.669260 3.652221 0
M  V30 41 H 4.059664 6.127626 4.119770 0
M  V30 42 H 5.664124 5.754372 3.314919 0
M  V30 43 H -1.735704 0.766320 0.255517 0
M  V30 44 H -4.062000 1.213755 0.590136 0
M  V30 45 H -5.408081 -0.308756 1.964886 0
M  V30 46 H -4.322379 -2.280854 2.974218 0
M  V30 47 H -1.862815 -2.732773 2.606413 0
M  V30 48 H 1.961058 -2.853655 -1.921726 0
M  V30 49 H 0.578223 -2.996887 -3.036563 0
M  V30 50 H 0.938867 -5.096199 -2.069713 0
M  V30 51 H 0.804836 -4.569785 -0.404083 0
M  V30 END ATOM
M  V30 BEGIN BOND
M  V30 1 1 1 2
M  V30 2 1 2 3
M  V30 3 1 3 4
M  V30 4 1 4 5
M  V30 5 1 5 6
M  V30 6 1 6 7
M  V30 7 1 7 8
M  V30 8 1 8 9
M  V30 9 2 9 10
M  V30 10 1 9 11
M  V30 11 2 11 12
M  V30 12 1 12 13
M  V30 13 2 13 14
M  V30 14 1 14 15
M  V30 15 2 15 16
M  V30 16 1 15 17
M  V30 17 1 17 18
M  V30 18 1 18 19
M  V30 19 1 7 20
M  V30 20 2 20 21
M  V30 21 1 21 22
M  V30 22 2 22 23
M  V30 23 1 23 24
M  V30 24 2 24 25
M  V30 25 1 5 26
M  V30 26 1 26 27
M  V30 27 1 27 2
M  V30 28 1 16 11
M  V30 29 1 25 20
M  V30 30 1 19 14
M  V30 31 1 1 28
M  V30 32 1 1 29
M  V30 33 1 1 30
M  V30 34 1 3 31
M  V30 35 1 3 32
M  V30 36 1 4 33
M  V30 37 1 4 34
M  V30 38 1 6 35
M  V30 39 1 6 36
M  V30 40 1 7 37
M  V30 41 1 12 38
M  V30 42 1 13 39
M  V30 43 1 16 40
M  V30 44 1 18 41
M  V30 45 1 18 42
M  V30 46 1 21 43
M  V30 47 1 22 44
M  V30 48 1 23 45
M  V30 49 1 24 46
M  V30 50 1 25 47
M  V30 51 1 26 48
M  V30 52 1 26 49
M  V30 53 1 27 50
M  V30 54 1 27 51
M  V30 END BOND
M  V30 END CTAB
M  END
>  <Dataset>  (539) 
ChEMBL_Kinases

>  <Ligand_Instance>  (539) 
nan

>  <PDB_ID>  (539) 
nan

>  <Standardized_SMILES>  (539) 
CN1CCN(CC(OC(=O)c2ccc3c(c2)OCO3)c2ccccc2)CC1

>  <Name>  (539) 
nan

>  <Pocket>  (539) 
nan

>  <ATP_Site>  (539) 
nan

>  <Peripheral>  (539) 
nan

>  <Num_H_Atoms_ProtBoundConf>  (539) 
nan

>  <Num_Resolved_Atoms>  (539) 
nan

>  <Num_Not_Resolved_Atoms>  (539) 
nan

$$$$
CHEMBL4782290
     RDKit          3D

  0  0  0  0  0  0  0  0  0  0999 V3000
M  V30 BEGIN CTAB
M  V30 COUNTS 41 43 0 0 0
M  V30 BEGIN ATOM
M  V30 1 C 1.196869 -4.710950 3.277529 0
M  V30 2 O 0.032069 -4.379955 2.535933 0
M  V30 3 C -0.045889 -3.203475 1.779722 0
M  V30 4 C 1.057275 -2.377690 1.784759 0
M  V30 5 C 0.952996 -1.226631 1.031937 0
M  V30 6 N 2.070286 -0.347629 1.000029 0
M  V30 7 C 2.320733 0.936958 0.445361 0
M  V30 8 C 3.314230 1.112502 -0.525173 0
M  V30 9 C 3.637074 2.309323 -1.123039 0
M  V30 10 N 2.917374 3.368158 -0.713775 0
M  V30 11 C 1.943576 3.320631 0.207136 0
M  V30 12 C 1.234644 4.438168 0.597545 0
M  V30 13 C 0.236146 4.388938 1.548205 0
M  V30 14 Br -0.682859 6.003256 2.013153 0
M  V30 15 C -0.028222 3.154624 2.101630 0
M  V30 16 C 0.671409 2.030274 1.721483 0
M  V30 17 C 1.659431 2.097302 0.775613 0
M  V30 18 C -0.213431 -0.976757 0.339204 0
M  V30 19 C -1.307103 -1.819171 0.348735 0
M  V30 20 O -2.468477 -1.541879 -0.358441 0
M  V30 21 C -2.507877 -0.343277 -1.110335 0
M  V30 22 C -1.222963 -2.979203 1.097735 0
M  V30 23 O -2.282067 -3.879510 1.158703 0
M  V30 24 C -2.408660 -4.945152 0.238577 0
M  V30 25 H 1.531482 -3.898260 3.948887 0
M  V30 26 H 0.937220 -5.635504 3.856045 0
M  V30 27 H 1.984486 -5.016757 2.564623 0
M  V30 28 H 1.941160 -2.648402 2.359486 0
M  V30 29 H 2.963322 -0.596395 1.454374 0
M  V30 30 H 3.859907 0.199179 -0.807988 0
M  V30 31 H 4.421349 2.354953 -1.866254 0
M  V30 32 H 1.528561 5.362113 0.093153 0
M  V30 33 H -0.814489 3.109501 2.852063 0
M  V30 34 H 0.413794 1.112439 2.197546 0
M  V30 35 H -0.246826 -0.044994 -0.246599 0
M  V30 36 H -2.198542 0.501439 -0.478090 0
M  V30 37 H -3.579922 -0.154754 -1.362822 0
M  V30 38 H -1.885478 -0.372672 -2.025643 0
M  V30 39 H -3.335045 -4.863649 -0.391148 0
M  V30 40 H -1.569453 -4.994495 -0.482912 0
M  V30 41 H -2.475258 -5.938646 0.718137 0
M  V30 END ATOM
M  V30 BEGIN BOND
M  V30 1 1 1 2
M  V30 2 1 2 3
M  V30 3 2 3 4
M  V30 4 1 4 5
M  V30 5 1 5 6
M  V30 6 1 6 7
M  V30 7 2 7 8
M  V30 8 1 8 9
M  V30 9 2 9 10
M  V30 10 1 10 11
M  V30 11 2 11 12
M  V30 12 1 12 13
M  V30 13 1 13 14
M  V30 14 2 13 15
M  V30 15 1 15 16
M  V30 16 2 16 17
M  V30 17 2 5 18
M  V30 18 1 18 19
M  V30 19 1 19 20
M  V30 20 1 20 21
M  V30 21 2 19 22
M  V30 22 1 22 23
M  V30 23 1 23 24
M  V30 24 1 22 3
M  V30 25 1 17 7
M  V30 26 1 17 11
M  V30 27 1 1 25
M  V30 28 1 1 26
M  V30 29 1 1 27
M  V30 30 1 4 28
M  V30 31 1 6 29
M  V30 32 1 8 30
M  V30 33 1 9 31
M  V30 34 1 12 32
M  V30 35 1 15 33
M  V30 36 1 16 34
M  V30 37 1 18 35
M  V30 38 1 21 36
M  V30 39 1 21 37
M  V30 40 1 21 38
M  V30 41 1 24 39
M  V30 42 1 24 40
M  V30 43 1 24 41
M  V30 END BOND
M  V30 END CTAB
M  END
>  <Dataset>  (540) 
ChEMBL_Kinases

>  <Ligand_Instance>  (540) 
nan

>  <PDB_ID>  (540) 
nan

>  <Standardized_SMILES>  (540) 
COc1cc(Nc2ccnc3cc(Br)ccc23)cc(OC)c1OC

>  <Name>  (540) 
nan

>  <Pocket>  (540) 
nan

>  <ATP_Site>  (540) 
nan

>  <Peripheral>  (540) 
nan

>  <Num_H_Atoms_ProtBoundConf>  (540) 
nan

>  <Num_Resolved_Atoms>  (540) 
nan

>  <Num_Not_Resolved_Atoms>  (540) 
nan

$$$$
CHEMBL4782336
     RDKit          3D

  0  0  0  0  0  0  0  0  0  0999 V3000
M  V30 BEGIN CTAB
M  V30 COUNTS 40 43 0 0 0
M  V30 BEGIN ATOM
M  V30 1 O 0.933166 -1.118126 2.021350 0
M  V30 2 C 1.444016 -0.298413 1.227049 0
M  V30 3 C 2.768804 -0.459368 0.908689 0
M  V30 4 C 3.475245 -1.485434 1.447115 0
M  V30 5 C 4.798598 -1.556581 1.061565 0
M  V30 6 F 5.559725 -2.571693 1.573604 0
M  V30 7 C 5.400298 -0.666236 0.191280 0
M  V30 8 C 4.627469 0.357462 -0.323329 0
M  V30 9 C 3.308564 0.458562 0.038183 0
M  V30 10 N 2.508484 1.424734 -0.424000 0
M  V30 11 C 2.787839 2.422392 -1.267517 0
M  V30 12 S 4.119556 2.893503 -2.063215 0
M  V30 13 N 1.673839 3.148314 -1.444988 0
M  V30 14 N 0.715814 2.604410 -0.718246 0
M  V30 15 C 1.216397 1.513205 -0.062634 0
M  V30 16 N 0.590322 0.639772 0.802065 0
M  V30 17 C -0.775561 0.929026 1.077199 0
M  V30 18 C -1.796523 0.455512 0.134097 0
M  V30 19 C -2.036640 -0.967870 -0.135124 0
M  V30 20 C -2.495898 -1.822420 0.950298 0
M  V30 21 C -3.875027 -1.680673 1.194771 0
M  V30 22 C -4.592507 -2.376655 2.140866 0
M  V30 23 C -3.952271 -3.298044 2.937527 0
M  V30 24 C -2.602195 -3.484574 2.747986 0
M  V30 25 C -1.941834 -2.760044 1.787115 0
M  V30 26 H 3.056209 -2.206959 2.129622 0
M  V30 27 H 6.455857 -0.793203 -0.063356 0
M  V30 28 H 5.131364 1.004952 -0.978260 0
M  V30 29 H 1.397875 3.997678 -1.992949 0
M  V30 30 H -1.059706 0.600931 2.130242 0
M  V30 31 H -0.843639 2.058675 1.172067 0
M  V30 32 H -2.781123 0.946545 0.450058 0
M  V30 33 H -1.654087 0.939359 -0.898862 0
M  V30 34 H -1.133478 -1.439633 -0.659715 0
M  V30 35 H -2.812392 -1.015259 -0.963536 0
M  V30 36 H -4.530020 -0.986310 0.643822 0
M  V30 37 H -5.647956 -2.263697 2.323276 0
M  V30 38 H -4.357668 -3.922181 3.718364 0
M  V30 39 H -1.982091 -4.173857 3.303302 0
M  V30 40 H -0.895345 -2.896247 1.590046 0
M  V30 END ATOM
M  V30 BEGIN BOND
M  V30 1 2 1 2
M  V30 2 1 2 3
M  V30 3 2 3 4
M  V30 4 1 4 5
M  V30 5 1 5 6
M  V30 6 2 5 7
M  V30 7 1 7 8
M  V30 8 2 8 9
M  V30 9 1 9 10
M  V30 10 1 10 11
M  V30 11 2 11 12
M  V30 12 1 11 13
M  V30 13 1 13 14
M  V30 14 2 14 15
M  V30 15 1 15 16
M  V30 16 1 16 17
M  V30 17 1 17 18
M  V30 18 1 18 19
M  V30 19 1 19 20
M  V30 20 2 20 21
M  V30 21 1 21 22
M  V30 22 2 22 23
M  V30 23 1 23 24
M  V30 24 2 24 25
M  V30 25 1 16 2
M  V30 26 1 25 20
M  V30 27 1 9 3
M  V30 28 1 15 10
M  V30 29 1 4 26
M  V30 30 1 7 27
M  V30 31 1 8 28
M  V30 32 1 13 29
M  V30 33 1 17 30
M  V30 34 1 17 31
M  V30 35 1 18 32
M  V30 36 1 18 33
M  V30 37 1 19 34
M  V30 38 1 19 35
M  V30 39 1 21 36
M  V30 40 1 22 37
M  V30 41 1 23 38
M  V30 42 1 24 39
M  V30 43 1 25 40
M  V30 END BOND
M  V30 END CTAB
M  END
>  <Dataset>  (541) 
ChEMBL_Kinases

>  <Ligand_Instance>  (541) 
nan

>  <PDB_ID>  (541) 
nan

>  <Standardized_SMILES>  (541) 
O=c1c2cc(F)ccc2n2c(=S)[nH]nc2n1CCCc1ccccc1

>  <Name>  (541) 
nan

>  <Pocket>  (541) 
nan

>  <ATP_Site>  (541) 
nan

>  <Peripheral>  (541) 
nan

>  <Num_H_Atoms_ProtBoundConf>  (541) 
nan

>  <Num_Resolved_Atoms>  (541) 
nan

>  <Num_Not_Resolved_Atoms>  (541) 
nan

$$$$
CHEMBL4208876
     RDKit          3D

  0  0  0  0  0  0  0  0  0  0999 V3000
M  V30 BEGIN CTAB
M  V30 COUNTS 56 60 0 0 0
M  V30 BEGIN ATOM
M  V30 1 C 4.036970 -0.870199 4.245340 0
M  V30 2 C 5.274339 -1.030421 3.429917 0
M  V30 3 N 6.474850 -1.463815 3.852450 0
M  V30 4 N 7.260407 -1.441336 2.792707 0
M  V30 5 C 6.586577 -1.005957 1.716785 0
M  V30 6 C 5.260346 -0.713985 2.065547 0
M  V30 7 C 4.257198 -0.226507 1.164011 0
M  V30 8 C 2.968037 0.101209 1.304519 0
M  V30 9 C 2.256152 0.547030 0.227187 0
M  V30 10 C 2.954269 0.637767 -1.018508 0
M  V30 11 S 4.598999 0.076282 -0.571076 0
M  V30 12 C 2.299312 1.093574 -2.246948 0
M  V30 13 O 3.063491 1.113356 -3.248589 0
M  V30 14 N 0.923194 1.458598 -2.209079 0
M  V30 15 C 0.186823 0.762877 -1.171824 0 CFG=1
M  V30 16 C -1.215709 1.298878 -1.081304 0
M  V30 17 C -2.040662 0.517210 -0.114267 0
M  V30 18 C -1.785899 -0.955975 -0.107231 0 CFG=1
M  V30 19 O -0.818354 -1.226406 0.859127 0
M  V30 20 C -3.010784 -1.793390 0.168629 0
M  V30 21 C -3.640910 -1.514451 1.483769 0
M  V30 22 C -5.119527 -1.219527 1.398512 0
M  V30 23 C -5.893388 -2.157713 0.536265 0
M  V30 24 C -5.096411 -2.731668 -0.589110 0
M  V30 25 C -4.021729 -1.699756 -0.954147 0
M  V30 26 C -1.165925 -1.334668 -1.435221 0
M  V30 27 C 0.198079 -0.699241 -1.483760 0
M  V30 28 N 0.908777 0.960955 0.080557 0
M  V30 29 H 3.746648 0.184288 4.322980 0
M  V30 30 H 4.309261 -1.185577 5.299006 0
M  V30 31 H 3.232674 -1.565319 3.935097 0
M  V30 32 H 8.269655 -1.730068 2.817809 0
M  V30 33 H 7.067678 -0.916787 0.738578 0
M  V30 34 H 2.535588 -0.001543 2.286779 0
M  V30 35 H 0.655022 2.170235 -2.933884 0
M  V30 36 H -1.642326 1.263104 -2.111002 0
M  V30 37 H -1.162582 2.354733 -0.797178 0
M  V30 38 H -3.106018 0.698704 -0.361304 0
M  V30 39 H -1.863127 0.964873 0.903831 0
M  V30 40 H -0.511049 -2.167949 0.690352 0
M  V30 41 H -2.654592 -2.849987 0.180788 0
M  V30 42 H -3.187452 -0.599651 1.958091 0
M  V30 43 H -3.512874 -2.326815 2.233871 0
M  V30 44 H -5.341201 -0.166162 1.112816 0
M  V30 45 H -5.519432 -1.319804 2.445522 0
M  V30 46 H -6.394027 -2.975882 1.131743 0
M  V30 47 H -6.765831 -1.619416 0.071029 0
M  V30 48 H -4.505584 -3.642598 -0.298769 0
M  V30 49 H -5.695500 -3.028745 -1.462324 0
M  V30 50 H -4.454256 -0.686775 -1.046903 0
M  V30 51 H -3.620412 -2.038638 -1.914867 0
M  V30 52 H -1.017418 -2.423207 -1.554041 0
M  V30 53 H -1.791577 -0.897085 -2.239779 0
M  V30 54 H 0.628819 -0.917750 -2.491104 0
M  V30 55 H 0.840607 -1.292794 -0.769878 0
M  V30 56 H 0.384292 1.428031 0.881328 0
M  V30 END ATOM
M  V30 BEGIN BOND
M  V30 1 1 1 2
M  V30 2 2 2 3
M  V30 3 1 3 4
M  V30 4 1 4 5
M  V30 5 2 5 6
M  V30 6 1 6 7
M  V30 7 2 7 8
M  V30 8 1 8 9
M  V30 9 2 9 10
M  V30 10 1 10 11
M  V30 11 1 10 12
M  V30 12 2 12 13
M  V30 13 1 12 14
M  V30 14 1 15 14 CFG=3
M  V30 15 1 15 16
M  V30 16 1 16 17
M  V30 17 1 17 18
M  V30 18 1 18 19 CFG=1
M  V30 19 1 18 20
M  V30 20 1 20 21
M  V30 21 1 21 22
M  V30 22 1 22 23
M  V30 23 1 23 24
M  V30 24 1 24 25
M  V30 25 1 18 26
M  V30 26 1 26 27
M  V30 27 1 15 28
M  V30 28 1 6 2
M  V30 29 1 11 7
M  V30 30 1 27 15
M  V30 31 1 28 9
M  V30 32 1 25 20
M  V30 33 1 1 29
M  V30 34 1 1 30
M  V30 35 1 1 31
M  V30 36 1 4 32
M  V30 37 1 5 33
M  V30 38 1 8 34
M  V30 39 1 14 35
M  V30 40 1 16 36
M  V30 41 1 16 37
M  V30 42 1 17 38
M  V30 43 1 17 39
M  V30 44 1 19 40
M  V30 45 1 20 41
M  V30 46 1 21 42
M  V30 47 1 21 43
M  V30 48 1 22 44
M  V30 49 1 22 45
M  V30 50 1 23 46
M  V30 51 1 23 47
M  V30 52 1 24 48
M  V30 53 1 24 49
M  V30 54 1 25 50
M  V30 55 1 25 51
M  V30 56 1 26 52
M  V30 57 1 26 53
M  V30 58 1 27 54
M  V30 59 1 27 55
M  V30 60 1 28 56
M  V30 END BOND
M  V30 END CTAB
M  END
>  <Dataset>  (542) 
ChEMBL_Kinases

>  <Ligand_Instance>  (542) 
nan

>  <PDB_ID>  (542) 
nan

>  <Standardized_SMILES>  (542) 
Cc1n[nH]cc1-c1cc2c(s1)C(=O)N[C@]1(CC[C@@](O)(C3CCCCC3)CC1)N2

>  <Name>  (542) 
nan

>  <Pocket>  (542) 
nan

>  <ATP_Site>  (542) 
nan

>  <Peripheral>  (542) 
nan

>  <Num_H_Atoms_ProtBoundConf>  (542) 
nan

>  <Num_Resolved_Atoms>  (542) 
nan

>  <Num_Not_Resolved_Atoms>  (542) 
nan

$$$$
CHEMBL4780720
     RDKit          3D

  0  0  0  0  0  0  0  0  0  0999 V3000
M  V30 BEGIN CTAB
M  V30 COUNTS 49 52 0 0 0
M  V30 BEGIN ATOM
M  V30 1 O 3.711322 -2.323970 2.027829 0
M  V30 2 N 3.127694 -2.261016 0.901951 0 CHG=1 VAL=4
M  V30 3 O 2.126426 -3.008069 0.318827 0 CHG=-1 VAL=1
M  V30 4 C 3.398651 -1.312557 -0.115179 0
M  V30 5 C 4.576178 -1.396693 -0.859991 0
M  V30 6 C 5.498522 -2.386984 -0.623250 0
M  V30 7 C 6.660347 -2.440203 -1.380628 0
M  V30 8 N 6.869019 -1.509895 -2.346469 0
M  V30 9 C 5.984017 -0.527870 -2.601218 0
M  V30 10 C 4.801060 -0.443931 -1.856856 0
M  V30 11 C 3.934039 0.581062 -2.157674 0
M  V30 12 C 2.746073 0.694362 -1.431245 0
M  V30 13 C 1.785443 1.667067 -1.608279 0
M  V30 14 N 0.692467 1.655535 -0.830643 0
M  V30 15 C 0.480283 0.732774 0.127089 0
M  V30 16 N -0.712030 0.745612 0.950711 0
M  V30 17 C -0.254814 0.624315 2.314027 0
M  V30 18 C -1.313160 0.549204 3.351594 0
M  V30 19 C -2.234042 -0.626588 3.191800 0
M  V30 20 N -2.985996 -0.671878 1.994169 0
M  V30 21 C -4.011461 0.323543 1.892296 0
M  V30 22 C -5.384234 -0.229674 2.218789 0
M  V30 23 C -5.678288 -1.271488 1.141204 0
M  V30 24 C -4.668582 -2.374969 1.349191 0
M  V30 25 C -3.254398 -1.926784 1.414636 0
M  V30 26 N 1.438303 -0.205897 0.279336 0
M  V30 27 C 2.568984 -0.261921 -0.465320 0
M  V30 28 H 5.309822 -3.121942 0.157104 0
M  V30 29 H 7.369814 -3.249968 -1.155420 0
M  V30 30 H 6.254754 0.147697 -3.383390 0
M  V30 31 H 4.114703 1.309922 -2.928785 0
M  V30 32 H 1.986112 2.381229 -2.378730 0
M  V30 33 H -1.518970 0.844099 0.306131 0
M  V30 34 H 0.454125 1.439406 2.567770 0
M  V30 35 H 0.351373 -0.329508 2.409246 0
M  V30 36 H -0.786898 0.408278 4.336763 0
M  V30 37 H -1.857181 1.508886 3.452559 0
M  V30 38 H -2.813335 -0.769352 4.112159 0
M  V30 39 H -1.546415 -1.527088 3.155157 0
M  V30 40 H -4.027437 0.713843 0.855610 0
M  V30 41 H -3.837966 1.148920 2.584823 0
M  V30 42 H -5.279355 -0.807821 3.173449 0
M  V30 43 H -6.099576 0.586352 2.257988 0
M  V30 44 H -5.495937 -0.777439 0.146155 0
M  V30 45 H -6.677104 -1.710725 1.228982 0
M  V30 46 H -4.948262 -2.887687 2.297581 0
M  V30 47 H -4.777685 -3.083729 0.485015 0
M  V30 48 H -2.672643 -2.710246 1.992226 0
M  V30 49 H -2.810858 -2.013664 0.376509 0
M  V30 END ATOM
M  V30 BEGIN BOND
M  V30 1 2 1 2
M  V30 2 1 2 3
M  V30 3 1 2 4
M  V30 4 2 4 5
M  V30 5 1 5 6
M  V30 6 2 6 7
M  V30 7 1 7 8
M  V30 8 2 8 9
M  V30 9 1 9 10
M  V30 10 2 10 11
M  V30 11 1 11 12
M  V30 12 2 12 13
M  V30 13 1 13 14
M  V30 14 2 14 15
M  V30 15 1 15 16
M  V30 16 1 16 17
M  V30 17 1 17 18
M  V30 18 1 18 19
M  V30 19 1 19 20
M  V30 20 1 20 21
M  V30 21 1 21 22
M  V30 22 1 22 23
M  V30 23 1 23 24
M  V30 24 1 24 25
M  V30 25 1 15 26
M  V30 26 2 26 27
M  V30 27 1 27 4
M  V30 28 1 10 5
M  V30 29 1 27 12
M  V30 30 1 25 20
M  V30 31 1 6 28
M  V30 32 1 7 29
M  V30 33 1 9 30
M  V30 34 1 11 31
M  V30 35 1 13 32
M  V30 36 1 16 33
M  V30 37 1 17 34
M  V30 38 1 17 35
M  V30 39 1 18 36
M  V30 40 1 18 37
M  V30 41 1 19 38
M  V30 42 1 19 39
M  V30 43 1 21 40
M  V30 44 1 21 41
M  V30 45 1 22 42
M  V30 46 1 22 43
M  V30 47 1 23 44
M  V30 48 1 23 45
M  V30 49 1 24 46
M  V30 50 1 24 47
M  V30 51 1 25 48
M  V30 52 1 25 49
M  V30 END BOND
M  V30 END CTAB
M  END
>  <Dataset>  (543) 
ChEMBL_Kinases

>  <Ligand_Instance>  (543) 
nan

>  <PDB_ID>  (543) 
nan

>  <Standardized_SMILES>  (543) 
O=[N+]([O-])c1c2ccncc2cc2cnc(NCCCN3CCCCC3)nc12

>  <Name>  (543) 
nan

>  <Pocket>  (543) 
nan

>  <ATP_Site>  (543) 
nan

>  <Peripheral>  (543) 
nan

>  <Num_H_Atoms_ProtBoundConf>  (543) 
nan

>  <Num_Resolved_Atoms>  (543) 
nan

>  <Num_Not_Resolved_Atoms>  (543) 
nan

$$$$
CHEMBL4782343
     RDKit          3D

  0  0  0  0  0  0  0  0  0  0999 V3000
M  V30 BEGIN CTAB
M  V30 COUNTS 65 70 0 0 0
M  V30 BEGIN ATOM
M  V30 1 C 5.681773 -2.754545 2.819120 0
M  V30 2 N 5.744125 -1.306535 2.746583 0
M  V30 3 C 4.484389 -0.743786 2.460271 0
M  V30 4 O 3.559814 -1.608167 2.325191 0
M  V30 5 C 4.244947 0.688647 2.327980 0
M  V30 6 C 5.221255 1.655429 2.468151 0
M  V30 7 N 4.949074 2.976584 2.335878 0
M  V30 8 C 3.697270 3.399981 2.058687 0
M  V30 9 N 3.112678 4.599563 1.870683 0
M  V30 10 C 1.789425 4.453503 1.612505 0
M  V30 11 C 1.502517 3.110493 1.633240 0
M  V30 12 C 0.166010 2.576184 1.394324 0
M  V30 13 C -0.866412 3.217045 2.048542 0
M  V30 14 C -2.140559 2.731318 1.839211 0
M  V30 15 C -2.399500 1.655652 1.018641 0
M  V30 16 N -3.618886 1.136041 0.774761 0
M  V30 17 C -3.764403 0.084949 -0.041968 0
M  V30 18 C -2.720170 -0.541950 -0.686488 0
M  V30 19 N -3.045335 -1.632427 -1.520228 0
M  V30 20 C -4.182523 -2.376986 -1.950560 0
M  V30 21 C -4.881231 -3.120997 -0.871278 0
M  V30 22 C -5.971536 -2.811210 -0.088817 0
M  V30 23 C -6.422488 -3.673669 0.869876 0
M  V30 24 C -5.847079 -4.898079 1.136347 0
M  V30 25 C -4.753682 -5.237561 0.369310 0
M  V30 26 Cl -4.007491 -6.781200 0.685968 0
M  V30 27 C -4.302134 -4.364816 -0.596126 0
M  V30 28 C -1.447017 -0.030769 -0.456927 0
M  V30 29 N -0.379212 -0.666051 -1.111557 0
M  V30 30 C 0.310751 -1.770796 -0.477942 0
M  V30 31 C 0.978639 -2.644430 -1.498705 0
M  V30 32 O 0.431752 -2.544845 -2.754004 0
M  V30 33 C 0.455159 -1.292315 -3.307862 0
M  V30 34 C -0.002468 -0.178804 -2.424220 0
M  V30 35 C -1.344815 1.046289 0.386427 0
M  V30 36 C -0.037245 1.478852 0.548720 0
M  V30 37 C 2.683469 2.451694 1.909828 0
M  V30 38 C 2.962146 1.108377 2.044758 0
M  V30 39 H 6.670848 -3.151525 3.183833 0
M  V30 40 H 4.899921 -3.112480 3.542026 0
M  V30 41 H 5.507745 -3.197874 1.817844 0
M  V30 42 H 6.572620 -0.683014 2.876513 0
M  V30 43 H 6.221177 1.322781 2.689268 0
M  V30 44 H 3.601022 5.525073 1.914996 0
M  V30 45 H 1.087908 5.266470 1.423586 0
M  V30 46 H -0.756703 4.051231 2.697666 0
M  V30 47 H -3.020208 3.179989 2.319098 0
M  V30 48 H -4.817142 -0.149622 -0.087302 0
M  V30 49 H -2.143599 -2.005249 -1.956802 0
M  V30 50 H -4.949610 -1.679039 -2.418225 0
M  V30 51 H -3.949569 -3.094114 -2.753463 0
M  V30 52 H -6.397605 -1.850364 -0.336374 0
M  V30 53 H -7.295092 -3.261483 1.391515 0
M  V30 54 H -6.300624 -5.471068 1.911947 0
M  V30 55 H -3.427987 -4.750274 -1.136351 0
M  V30 56 H 1.095854 -1.344107 0.208868 0
M  V30 57 H -0.346627 -2.368709 0.183995 0
M  V30 58 H 0.867637 -3.699391 -1.172710 0
M  V30 59 H 2.087723 -2.455414 -1.493917 0
M  V30 60 H -0.274321 -1.329724 -4.170005 0
M  V30 61 H 1.431272 -1.070131 -3.811869 0
M  V30 62 H 0.904618 0.471261 -2.252793 0
M  V30 63 H -0.792546 0.443535 -2.879065 0
M  V30 64 H 0.814938 1.042984 0.082444 0
M  V30 65 H 2.186273 0.371789 1.931747 0
M  V30 END ATOM
M  V30 BEGIN BOND
M  V30 1 1 1 2
M  V30 2 1 2 3
M  V30 3 2 3 4
M  V30 4 1 3 5
M  V30 5 2 5 6
M  V30 6 1 6 7
M  V30 7 2 7 8
M  V30 8 1 8 9
M  V30 9 1 9 10
M  V30 10 2 10 11
M  V30 11 1 11 12
M  V30 12 2 12 13
M  V30 13 1 13 14
M  V30 14 2 14 15
M  V30 15 1 15 16
M  V30 16 2 16 17
M  V30 17 1 17 18
M  V30 18 1 18 19
M  V30 19 1 19 20
M  V30 20 1 20 21
M  V30 21 2 21 22
M  V30 22 1 22 23
M  V30 23 2 23 24
M  V30 24 1 24 25
M  V30 25 1 25 26
M  V30 26 2 25 27
M  V30 27 2 18 28
M  V30 28 1 28 29
M  V30 29 1 29 30
M  V30 30 1 30 31
M  V30 31 1 31 32
M  V30 32 1 32 33
M  V30 33 1 33 34
M  V30 34 1 28 35
M  V30 35 2 35 36
M  V30 36 1 11 37
M  V30 37 2 37 38
M  V30 38 1 38 5
M  V30 39 1 37 8
M  V30 40 1 36 12
M  V30 41 1 35 15
M  V30 42 1 27 21
M  V30 43 1 34 29
M  V30 44 1 1 39
M  V30 45 1 1 40
M  V30 46 1 1 41
M  V30 47 1 2 42
M  V30 48 1 6 43
M  V30 49 1 9 44
M  V30 50 1 10 45
M  V30 51 1 13 46
M  V30 52 1 14 47
M  V30 53 1 17 48
M  V30 54 1 19 49
M  V30 55 1 20 50
M  V30 56 1 20 51
M  V30 57 1 22 52
M  V30 58 1 23 53
M  V30 59 1 24 54
M  V30 60 1 27 55
M  V30 61 1 30 56
M  V30 62 1 30 57
M  V30 63 1 31 58
M  V30 64 1 31 59
M  V30 65 1 33 60
M  V30 66 1 33 61
M  V30 67 1 34 62
M  V30 68 1 34 63
M  V30 69 1 36 64
M  V30 70 1 38 65
M  V30 END BOND
M  V30 END CTAB
M  END
>  <Dataset>  (544) 
ChEMBL_Kinases

>  <Ligand_Instance>  (544) 
nan

>  <PDB_ID>  (544) 
nan

>  <Standardized_SMILES>  (544) 
CNC(=O)c1cnc2[nH]cc(-c3ccc4ncc(NCc5cccc(Cl)c5)c(N5CCOCC5)c4c3)c2c1

>  <Name>  (544) 
nan

>  <Pocket>  (544) 
nan

>  <ATP_Site>  (544) 
nan

>  <Peripheral>  (544) 
nan

>  <Num_H_Atoms_ProtBoundConf>  (544) 
nan

>  <Num_Resolved_Atoms>  (544) 
nan

>  <Num_Not_Resolved_Atoms>  (544) 
nan

$$$$
CHEMBL4782363
     RDKit          3D

  0  0  0  0  0  0  0  0  0  0999 V3000
M  V30 BEGIN CTAB
M  V30 COUNTS 57 60 0 0 0
M  V30 BEGIN ATOM
M  V30 1 C 3.464041 -3.969420 6.139047 0
M  V30 2 C 3.427685 -2.472988 5.848595 0
M  V30 3 C 3.210260 -2.356164 4.377421 0
M  V30 4 O 3.126697 -3.513617 3.849920 0
M  V30 5 N 3.113075 -1.111387 3.682414 0
M  V30 6 C 2.902476 -1.351659 2.269096 0
M  V30 7 C 2.793444 -0.075680 1.492587 0
M  V30 8 C 4.042628 0.730577 1.632663 0
M  V30 9 C 4.160696 1.874318 0.684077 0
M  V30 10 C 3.785991 1.474076 -0.730362 0
M  V30 11 N 2.532113 0.791072 -0.686070 0
M  V30 12 C 1.423700 1.359048 -1.300623 0
M  V30 13 S 1.580584 2.899994 -2.121378 0
M  V30 14 N -0.214916 2.973104 -2.642845 0
M  V30 15 C -0.702461 1.837240 -2.137370 0
M  V30 16 C -2.017219 1.444471 -2.269421 0
M  V30 17 C -2.475166 0.261871 -1.729912 0
M  V30 18 C -3.874110 -0.198706 -1.847074 0
M  V30 19 C -4.889709 0.752179 -1.893750 0
M  V30 20 C -6.237368 0.389075 -2.004168 0
M  V30 21 C -6.487349 -0.966199 -2.063044 0
M  V30 22 N -7.863037 -1.317532 -2.175555 0
M  V30 23 C -5.510982 -1.939766 -2.019912 0
M  V30 24 O -5.822269 -3.296206 -2.083307 0
M  V30 25 C -4.831001 -4.302698 -2.040242 0
M  V30 26 C -4.182042 -1.540086 -1.909817 0
M  V30 27 C -1.639538 -0.583205 -1.033076 0
M  V30 28 N -0.363404 -0.177529 -0.918636 0
M  V30 29 C 0.093721 0.968482 -1.437885 0
M  V30 30 C 2.579391 -0.468256 0.028680 0
M  V30 31 H 2.495449 -4.377211 5.727249 0
M  V30 32 H 4.269803 -4.418272 5.516302 0
M  V30 33 H 3.538594 -4.198524 7.208277 0
M  V30 34 H 2.532150 -2.029482 6.359662 0
M  V30 35 H 4.369979 -1.990646 6.159610 0
M  V30 36 H 3.204819 -0.276635 4.276058 0
M  V30 37 H 1.996626 -1.986257 2.152430 0
M  V30 38 H 3.737223 -1.972499 1.836224 0
M  V30 39 H 1.880642 0.477237 1.784357 0
M  V30 40 H 4.085634 1.132988 2.671905 0
M  V30 41 H 4.902585 0.050417 1.421700 0
M  V30 42 H 3.531134 2.760253 0.950199 0
M  V30 43 H 5.222093 2.175189 0.639091 0
M  V30 44 H 4.566712 0.738982 -1.076458 0
M  V30 45 H 3.802902 2.343702 -1.396489 0
M  V30 46 H -2.765056 2.003851 -2.782735 0
M  V30 47 H -4.639459 1.805251 -1.843811 0
M  V30 48 H -7.020412 1.136522 -2.039763 0
M  V30 49 H -8.413781 -2.131667 -2.492850 0
M  V30 50 H -8.350730 -2.178196 -2.513021 0
M  V30 51 H -4.325254 -4.359095 -3.025316 0
M  V30 52 H -5.382639 -5.253577 -1.857407 0
M  V30 53 H -4.122337 -4.171461 -1.197725 0
M  V30 54 H -3.373941 -2.256934 -1.871473 0
M  V30 55 H -1.953598 -1.527101 -0.588609 0
M  V30 56 H 1.664595 -1.064593 -0.053003 0
M  V30 57 H 3.482353 -1.060405 -0.233364 0
M  V30 END ATOM
M  V30 BEGIN BOND
M  V30 1 1 1 2
M  V30 2 1 2 3
M  V30 3 2 3 4
M  V30 4 1 3 5
M  V30 5 1 5 6
M  V30 6 1 6 7
M  V30 7 1 7 8
M  V30 8 1 8 9
M  V30 9 1 9 10
M  V30 10 1 10 11
M  V30 11 1 11 12
M  V30 12 1 12 13
M  V30 13 1 13 14
M  V30 14 2 14 15
M  V30 15 1 15 16
M  V30 16 2 16 17
M  V30 17 1 17 18
M  V30 18 2 18 19
M  V30 19 1 19 20
M  V30 20 2 20 21
M  V30 21 1 21 22
M  V30 22 1 21 23
M  V30 23 1 23 24
M  V30 24 1 24 25
M  V30 25 2 23 26
M  V30 26 1 17 27
M  V30 27 2 27 28
M  V30 28 1 28 29
M  V30 29 1 11 30
M  V30 30 1 30 7
M  V30 31 2 29 12
M  V30 32 1 29 15
M  V30 33 1 26 18
M  V30 34 1 1 31
M  V30 35 1 1 32
M  V30 36 1 1 33
M  V30 37 1 2 34
M  V30 38 1 2 35
M  V30 39 1 5 36
M  V30 40 1 6 37
M  V30 41 1 6 38
M  V30 42 1 7 39
M  V30 43 1 8 40
M  V30 44 1 8 41
M  V30 45 1 9 42
M  V30 46 1 9 43
M  V30 47 1 10 44
M  V30 48 1 10 45
M  V30 49 1 16 46
M  V30 50 1 19 47
M  V30 51 1 20 48
M  V30 52 1 22 49
M  V30 53 1 22 50
M  V30 54 1 25 51
M  V30 55 1 25 52
M  V30 56 1 25 53
M  V30 57 1 26 54
M  V30 58 1 27 55
M  V30 59 1 30 56
M  V30 60 1 30 57
M  V30 END BOND
M  V30 END CTAB
M  END
>  <Dataset>  (545) 
ChEMBL_Kinases

>  <Ligand_Instance>  (545) 
nan

>  <PDB_ID>  (545) 
nan

>  <Standardized_SMILES>  (545) 
CCC(=O)NCC1CCCN(c2snc3cc(-c4ccc(N)c(OC)c4)cnc23)C1

>  <Name>  (545) 
nan

>  <Pocket>  (545) 
nan

>  <ATP_Site>  (545) 
nan

>  <Peripheral>  (545) 
nan

>  <Num_H_Atoms_ProtBoundConf>  (545) 
nan

>  <Num_Resolved_Atoms>  (545) 
nan

>  <Num_Not_Resolved_Atoms>  (545) 
nan

$$$$
CHEMBL4782367
     RDKit          3D

  0  0  0  0  0  0  0  0  0  0999 V3000
M  V30 BEGIN CTAB
M  V30 COUNTS 44 47 0 0 0
M  V30 BEGIN ATOM
M  V30 1 S -1.818537 -2.270226 -0.475447 0
M  V30 2 C -0.243185 -1.869226 -0.569298 0
M  V30 3 N 0.699168 -2.789612 -0.051868 0
M  V30 4 C 2.085945 -2.943251 0.114940 0
M  V30 5 C 2.654488 -2.450182 1.282362 0
M  V30 6 C 4.027657 -2.574203 1.505964 0
M  V30 7 C 4.793946 -3.205995 0.520144 0
M  V30 8 C 4.228047 -3.695419 -0.639289 0
M  V30 9 Cl 5.191769 -4.489021 -1.877082 0
M  V30 10 C 2.871094 -3.571922 -0.858436 0
M  V30 11 N 0.079315 -0.623370 -1.163959 0
M  V30 12 C -0.951662 0.292310 -1.685367 0
M  V30 13 C -0.741567 1.647655 -1.040983 0
M  V30 14 C 0.237687 1.571108 0.106235 0
M  V30 15 N -0.261864 0.908437 1.268834 0
M  V30 16 C -1.395009 1.346841 1.990960 0
M  V30 17 N -2.089378 2.438506 1.622802 0
M  V30 18 C -3.157237 2.797334 2.356529 0
M  V30 19 N -3.600805 2.132913 3.462354 0
M  V30 20 C -2.933095 1.028339 3.870480 0
M  V30 21 N -3.051119 0.122684 4.882467 0
M  V30 22 N -2.069807 -0.762307 4.755016 0
M  V30 23 C -1.305467 -0.468464 3.687522 0
M  V30 24 C -1.837360 0.669539 3.108292 0
M  V30 25 C 1.573294 1.024179 -0.304199 0
M  V30 26 C 1.388329 -0.036701 -1.365030 0
M  V30 27 H 0.420804 -3.692721 0.377283 0
M  V30 28 H 2.041254 -1.963557 2.033724 0
M  V30 29 H 4.470532 -2.186466 2.422357 0
M  V30 30 H 5.862482 -3.299970 0.698569 0
M  V30 31 H 2.376562 -3.943166 -1.759902 0
M  V30 32 H -0.806597 0.423992 -2.775756 0
M  V30 33 H -1.953888 -0.064731 -1.447949 0
M  V30 34 H -1.694011 2.035937 -0.685403 0
M  V30 35 H -0.334585 2.373255 -1.772175 0
M  V30 36 H 0.418136 2.643350 0.409980 0
M  V30 37 H 0.242129 0.047706 1.603831 0
M  V30 38 H -3.744237 3.680213 2.084962 0
M  V30 39 H -3.793658 0.169847 5.591386 0
M  V30 40 H -0.429546 -1.050810 3.369133 0
M  V30 41 H 1.985451 0.481802 0.584177 0
M  V30 42 H 2.279371 1.814230 -0.632065 0
M  V30 43 H 2.194695 -0.796788 -1.338498 0
M  V30 44 H 1.488345 0.427115 -2.390010 0
M  V30 END ATOM
M  V30 BEGIN BOND
M  V30 1 2 1 2
M  V30 2 1 2 3
M  V30 3 1 3 4
M  V30 4 2 4 5
M  V30 5 1 5 6
M  V30 6 2 6 7
M  V30 7 1 7 8
M  V30 8 1 8 9
M  V30 9 2 8 10
M  V30 10 1 2 11
M  V30 11 1 11 12
M  V30 12 1 12 13
M  V30 13 1 13 14
M  V30 14 1 14 15
M  V30 15 1 15 16
M  V30 16 2 16 17
M  V30 17 1 17 18
M  V30 18 2 18 19
M  V30 19 1 19 20
M  V30 20 1 20 21
M  V30 21 1 21 22
M  V30 22 2 22 23
M  V30 23 1 23 24
M  V30 24 1 14 25
M  V30 25 1 25 26
M  V30 26 1 10 4
M  V30 27 1 26 11
M  V30 28 1 24 16
M  V30 29 2 24 20
M  V30 30 1 3 27
M  V30 31 1 5 28
M  V30 32 1 6 29
M  V30 33 1 7 30
M  V30 34 1 10 31
M  V30 35 1 12 32
M  V30 36 1 12 33
M  V30 37 1 13 34
M  V30 38 1 13 35
M  V30 39 1 14 36
M  V30 40 1 15 37
M  V30 41 1 18 38
M  V30 42 1 21 39
M  V30 43 1 23 40
M  V30 44 1 25 41
M  V30 45 1 25 42
M  V30 46 1 26 43
M  V30 47 1 26 44
M  V30 END BOND
M  V30 END CTAB
M  END
>  <Dataset>  (546) 
ChEMBL_Kinases

>  <Ligand_Instance>  (546) 
nan

>  <PDB_ID>  (546) 
nan

>  <Standardized_SMILES>  (546) 
S=C(Nc1cccc(Cl)c1)N1CCC(Nc2ncnc3[nH]ncc23)CC1

>  <Name>  (546) 
nan

>  <Pocket>  (546) 
nan

>  <ATP_Site>  (546) 
nan

>  <Peripheral>  (546) 
nan

>  <Num_H_Atoms_ProtBoundConf>  (546) 
nan

>  <Num_Resolved_Atoms>  (546) 
nan

>  <Num_Not_Resolved_Atoms>  (546) 
nan

$$$$
CHEMBL4782433
     RDKit          3D

  0  0  0  0  0  0  0  0  0  0999 V3000
M  V30 BEGIN CTAB
M  V30 COUNTS 60 64 0 0 0
M  V30 BEGIN ATOM
M  V30 1 C 6.526954 -1.352583 7.169154 0
M  V30 2 O 6.454582 -2.071600 5.952609 0
M  V30 3 C 6.001233 -1.404512 4.829603 0
M  V30 4 C 5.583894 -0.100931 4.660155 0
M  V30 5 C 5.174742 0.316494 3.415333 0
M  V30 6 C 5.155401 -0.498933 2.309850 0
M  V30 7 C 4.718478 -0.023867 1.013745 0
M  V30 8 O 4.716474 -0.820555 0.018138 0
M  V30 9 N 4.284563 1.296178 0.776737 0
M  V30 10 C 3.906925 1.522722 -0.575003 0
M  V30 11 C 4.733569 1.950385 -1.604421 0
M  V30 12 N 3.987493 2.038902 -2.720696 0
M  V30 13 N 2.764319 1.687888 -2.412161 0
M  V30 14 C 2.649783 1.361649 -1.118745 0
M  V30 15 C 1.422274 0.929574 -0.461228 0
M  V30 16 N 0.220137 0.785268 -1.022196 0
M  V30 17 C -0.707713 0.370579 -0.142034 0
M  V30 18 C -2.119016 0.112577 -0.412221 0
M  V30 19 C -2.984312 -0.312669 0.574723 0
M  V30 20 C -4.321409 -0.538950 0.246305 0
M  V30 21 C -4.815937 -0.353937 -1.031292 0
M  V30 22 C -6.214964 -0.577708 -1.428233 0
M  V30 23 N -6.530823 -1.866858 -1.873511 0
M  V30 24 C -5.853319 -2.382407 -2.999924 0
M  V30 25 C -6.558128 -3.656967 -3.426987 0
M  V30 26 O -6.341047 -4.669026 -2.462307 0
M  V30 27 C -5.982005 -4.094995 -1.236297 0
M  V30 28 C -6.827393 -2.876556 -0.928518 0
M  V30 29 C -3.922812 0.078012 -2.020225 0
M  V30 30 C -2.600369 0.300863 -1.691329 0
M  V30 31 C -0.051985 0.241117 1.064864 0
M  V30 32 N 1.229035 0.588689 0.823912 0
M  V30 33 C 5.570277 -1.799471 2.472605 0
M  V30 34 C 5.992736 -2.257579 3.723843 0
M  V30 35 H 6.561319 -2.036062 8.046822 0
M  V30 36 H 7.467295 -0.740571 7.120279 0
M  V30 37 H 5.640289 -0.690909 7.249294 0
M  V30 38 H 5.630907 0.465695 5.572356 0
M  V30 39 H 4.868418 1.341014 3.374813 0
M  V30 40 H 4.261155 1.995845 1.543813 0
M  V30 41 H 5.802950 2.183811 -1.557297 0
M  V30 42 H 4.256880 2.326473 -3.695122 0
M  V30 43 H -2.631454 -0.469672 1.593371 0
M  V30 44 H -4.984387 -0.866252 1.010742 0
M  V30 45 H -6.913317 -0.302408 -0.595192 0
M  V30 46 H -6.458913 0.147315 -2.235903 0
M  V30 47 H -5.851454 -1.718723 -3.887970 0
M  V30 48 H -4.778605 -2.677873 -2.816395 0
M  V30 49 H -6.220081 -3.995684 -4.427232 0
M  V30 50 H -7.654569 -3.493092 -3.459835 0
M  V30 51 H -4.913376 -3.896811 -1.190708 0
M  V30 52 H -6.223599 -4.860879 -0.470001 0
M  V30 53 H -7.889772 -3.130014 -0.825615 0
M  V30 54 H -6.462049 -2.508329 0.074982 0
M  V30 55 H -4.193199 0.260613 -3.069325 0
M  V30 56 H -1.904146 0.635171 -2.452448 0
M  V30 57 H -0.496534 -0.077420 2.004861 0
M  V30 58 H 1.940543 0.576703 1.578286 0
M  V30 59 H 5.549545 -2.430912 1.591934 0
M  V30 60 H 6.291195 -3.302786 3.702114 0
M  V30 END ATOM
M  V30 BEGIN BOND
M  V30 1 1 1 2
M  V30 2 1 2 3
M  V30 3 2 3 4
M  V30 4 1 4 5
M  V30 5 2 5 6
M  V30 6 1 6 7
M  V30 7 2 7 8
M  V30 8 1 7 9
M  V30 9 1 9 10
M  V30 10 2 10 11
M  V30 11 1 11 12
M  V30 12 1 12 13
M  V30 13 2 13 14
M  V30 14 1 14 15
M  V30 15 2 15 16
M  V30 16 1 16 17
M  V30 17 1 17 18
M  V30 18 2 18 19
M  V30 19 1 19 20
M  V30 20 2 20 21
M  V30 21 1 21 22
M  V30 22 1 22 23
M  V30 23 1 23 24
M  V30 24 1 24 25
M  V30 25 1 25 26
M  V30 26 1 26 27
M  V30 27 1 27 28
M  V30 28 1 21 29
M  V30 29 2 29 30
M  V30 30 2 17 31
M  V30 31 1 31 32
M  V30 32 1 6 33
M  V30 33 2 33 34
M  V30 34 1 34 3
M  V30 35 1 14 10
M  V30 36 1 32 15
M  V30 37 1 30 18
M  V30 38 1 28 23
M  V30 39 1 1 35
M  V30 40 1 1 36
M  V30 41 1 1 37
M  V30 42 1 4 38
M  V30 43 1 5 39
M  V30 44 1 9 40
M  V30 45 1 11 41
M  V30 46 1 12 42
M  V30 47 1 19 43
M  V30 48 1 20 44
M  V30 49 1 22 45
M  V30 50 1 22 46
M  V30 51 1 24 47
M  V30 52 1 24 48
M  V30 53 1 25 49
M  V30 54 1 25 50
M  V30 55 1 27 51
M  V30 56 1 27 52
M  V30 57 1 28 53
M  V30 58 1 28 54
M  V30 59 1 29 55
M  V30 60 1 30 56
M  V30 61 1 31 57
M  V30 62 1 32 58
M  V30 63 1 33 59
M  V30 64 1 34 60
M  V30 END BOND
M  V30 END CTAB
M  END
>  <Dataset>  (547) 
ChEMBL_Kinases

>  <Ligand_Instance>  (547) 
nan

>  <PDB_ID>  (547) 
nan

>  <Standardized_SMILES>  (547) 
COc1ccc(C(=O)Nc2c[nH]nc2-c2nc(-c3ccc(CN4CCOCC4)cc3)c[nH]2)cc1

>  <Name>  (547) 
nan

>  <Pocket>  (547) 
nan

>  <ATP_Site>  (547) 
nan

>  <Peripheral>  (547) 
nan

>  <Num_H_Atoms_ProtBoundConf>  (547) 
nan

>  <Num_Resolved_Atoms>  (547) 
nan

>  <Num_Not_Resolved_Atoms>  (547) 
nan

$$$$
CHEMBL4208717
     RDKit          3D

  0  0  0  0  0  0  0  0  0  0999 V3000
M  V30 BEGIN CTAB
M  V30 COUNTS 61 65 0 0 0
M  V30 BEGIN ATOM
M  V30 1 C 6.022915 -2.930731 2.930324 0
M  V30 2 C 4.604160 -2.505744 2.917179 0
M  V30 3 N 4.160387 -1.884194 1.700267 0
M  V30 4 C 4.717811 -0.622321 1.422758 0
M  V30 5 C 4.256018 0.439734 2.416805 0
M  V30 6 C 3.956998 -2.784335 0.626495 0
M  V30 7 C 3.519001 -2.117330 -0.651964 0
M  V30 8 N 2.275895 -1.378897 -0.472304 0
M  V30 9 C 1.664022 -0.665353 -1.543735 0
M  V30 10 O 2.286028 -0.727999 -2.651741 0
M  V30 11 C 0.416013 0.078336 -1.370333 0
M  V30 12 C -0.276377 0.171968 -0.184983 0
M  V30 13 C -1.440706 0.894134 -0.123649 0
M  V30 14 C -2.105135 0.934852 1.181116 0
M  V30 15 C -1.857297 1.894226 2.142825 0
M  V30 16 N -2.652313 1.617252 3.219066 0
M  V30 17 N -3.371178 0.548097 2.975688 0
M  V30 18 C -4.300299 -0.164216 3.655250 0
M  V30 19 C -4.934086 -1.300503 3.152632 0
M  V30 20 C -4.574249 -1.701211 1.884161 0
M  V30 21 C -5.228743 -2.900627 1.325134 0
M  V30 22 C -5.041752 -3.476976 0.117505 0
M  V30 23 C -5.747220 -4.591978 -0.220910 0
M  V30 24 C -6.672626 -5.060832 0.813810 0
M  V30 25 S -6.395057 -3.785797 2.191342 0
M  V30 26 N -3.648391 -0.969257 1.239696 0
M  V30 27 C -3.062396 0.110466 1.747514 0
M  V30 28 C -1.913761 1.525966 -1.255776 0
M  V30 29 N -3.023429 2.278759 -1.419352 0
M  V30 30 C -3.080109 2.694788 -2.718746 0
M  V30 31 N -1.982337 2.177545 -3.335217 0
M  V30 32 C -1.635987 2.365699 -4.734961 0
M  V30 33 C -1.248548 1.456091 -2.462780 0
M  V30 34 C -0.077817 0.722296 -2.498607 0
M  V30 35 H 6.594532 -2.242420 3.617194 0
M  V30 36 H 6.507101 -2.963994 1.935487 0
M  V30 37 H 6.169659 -3.948033 3.363268 0
M  V30 38 H 3.986201 -3.444930 3.021251 0
M  V30 39 H 4.333506 -1.856435 3.768835 0
M  V30 40 H 5.831971 -0.611702 1.323888 0
M  V30 41 H 4.341865 -0.257320 0.445161 0
M  V30 42 H 4.886706 1.339902 2.164513 0
M  V30 43 H 4.349559 0.145629 3.458397 0
M  V30 44 H 3.221619 0.725263 2.134177 0
M  V30 45 H 3.272443 -3.616771 0.903342 0
M  V30 46 H 4.965384 -3.248882 0.404220 0
M  V30 47 H 3.374048 -2.921303 -1.430411 0
M  V30 48 H 4.315455 -1.485120 -1.078146 0
M  V30 49 H 1.851586 -1.388805 0.457817 0
M  V30 50 H 0.121755 -0.334784 0.683589 0
M  V30 51 H -1.170064 2.739034 2.111922 0
M  V30 52 H -4.552881 0.179667 4.638948 0
M  V30 53 H -5.666288 -1.807571 3.769597 0
M  V30 54 H -4.330507 -3.044263 -0.570492 0
M  V30 55 H -5.676971 -5.129954 -1.152940 0
M  V30 56 H -7.314390 -6.024816 0.580693 0
M  V30 57 H -3.832924 3.316452 -3.208903 0
M  V30 58 H -1.003346 3.249065 -4.909663 0
M  V30 59 H -1.084824 1.477551 -5.142595 0
M  V30 60 H -2.538905 2.453117 -5.388674 0
M  V30 61 H 0.410455 0.698898 -3.479552 0
M  V30 END ATOM
M  V30 BEGIN BOND
M  V30 1 1 1 2
M  V30 2 1 2 3
M  V30 3 1 3 4
M  V30 4 1 4 5
M  V30 5 1 3 6
M  V30 6 1 6 7
M  V30 7 1 7 8
M  V30 8 1 8 9
M  V30 9 2 9 10
M  V30 10 1 9 11
M  V30 11 2 11 12
M  V30 12 1 12 13
M  V30 13 1 13 14
M  V30 14 1 14 15
M  V30 15 2 15 16
M  V30 16 1 16 17
M  V30 17 1 17 18
M  V30 18 2 18 19
M  V30 19 1 19 20
M  V30 20 1 20 21
M  V30 21 2 21 22
M  V30 22 1 22 23
M  V30 23 2 23 24
M  V30 24 1 24 25
M  V30 25 2 20 26
M  V30 26 1 26 27
M  V30 27 2 13 28
M  V30 28 1 28 29
M  V30 29 2 29 30
M  V30 30 1 30 31
M  V30 31 1 31 32
M  V30 32 1 31 33
M  V30 33 2 33 34
M  V30 34 1 34 11
M  V30 35 2 27 14
M  V30 36 1 33 28
M  V30 37 1 27 17
M  V30 38 1 25 21
M  V30 39 1 1 35
M  V30 40 1 1 36
M  V30 41 1 1 37
M  V30 42 1 2 38
M  V30 43 1 2 39
M  V30 44 1 4 40
M  V30 45 1 4 41
M  V30 46 1 5 42
M  V30 47 1 5 43
M  V30 48 1 5 44
M  V30 49 1 6 45
M  V30 50 1 6 46
M  V30 51 1 7 47
M  V30 52 1 7 48
M  V30 53 1 8 49
M  V30 54 1 12 50
M  V30 55 1 15 51
M  V30 56 1 18 52
M  V30 57 1 19 53
M  V30 58 1 22 54
M  V30 59 1 23 55
M  V30 60 1 24 56
M  V30 61 1 30 57
M  V30 62 1 32 58
M  V30 63 1 32 59
M  V30 64 1 32 60
M  V30 65 1 34 61
M  V30 END BOND
M  V30 END CTAB
M  END
>  <Dataset>  (548) 
ChEMBL_Kinases

>  <Ligand_Instance>  (548) 
nan

>  <PDB_ID>  (548) 
nan

>  <Standardized_SMILES>  (548) 
CCN(CC)CCNC(=O)c1cc(-c2cnn3ccc(-c4cccs4)nc23)c2ncn(C)c2c1

>  <Name>  (548) 
nan

>  <Pocket>  (548) 
nan

>  <ATP_Site>  (548) 
nan

>  <Peripheral>  (548) 
nan

>  <Num_H_Atoms_ProtBoundConf>  (548) 
nan

>  <Num_Resolved_Atoms>  (548) 
nan

>  <Num_Not_Resolved_Atoms>  (548) 
nan

$$$$
CHEMBL4208713
     RDKit          3D

  0  0  0  0  0  0  0  0  0  0999 V3000
M  V30 BEGIN CTAB
M  V30 COUNTS 43 47 0 0 0
M  V30 BEGIN ATOM
M  V30 1 C -1.868130 -5.614440 1.543663 0
M  V30 2 C -0.877805 -4.773396 1.095807 0
M  V30 3 C -0.667448 -3.497600 1.627667 0
M  V30 4 C 0.421781 -2.707109 1.058249 0
M  V30 5 C 1.609568 -3.425501 0.878650 0
M  V30 6 C 2.752390 -2.874623 0.358538 0
M  V30 7 C 2.690470 -1.543188 0.006083 0
M  V30 8 N 3.589056 -0.684089 -0.522240 0
M  V30 9 C 3.004886 0.528820 -0.674356 0
M  V30 10 N 1.735104 0.489110 -0.256341 0
M  V30 11 C 0.738141 1.565015 -0.237798 0
M  V30 12 C 0.602374 2.243440 -1.569798 0
M  V30 13 C 0.919448 3.724340 -1.482697 0
M  V30 14 N 2.182157 3.821871 -0.786767 0
M  V30 15 C 1.935382 3.618199 0.623862 0
M  V30 16 C 0.937582 2.545161 0.868584 0
M  V30 17 C 1.542890 -0.797036 0.165071 0
M  V30 18 C 0.409020 -1.378026 0.690700 0
M  V30 19 C -1.523206 -3.122883 2.644176 0
M  V30 20 C -1.532579 -1.927677 3.336049 0
M  V30 21 C -2.583191 -2.067971 4.240795 0
M  V30 22 N -3.126574 -3.266575 4.065245 0
M  V30 23 C -2.512578 -3.983011 3.080247 0
M  V30 24 N -2.678435 -5.199000 2.540816 0
M  V30 25 H -1.990480 -6.599775 1.095136 0
M  V30 26 H -0.237407 -5.144942 0.283477 0
M  V30 27 H 1.699632 -4.488121 1.147184 0
M  V30 28 H 3.661617 -3.444551 0.226570 0
M  V30 29 H 3.521226 1.385657 -1.079752 0
M  V30 30 H -0.259157 1.076143 -0.023359 0
M  V30 31 H -0.430926 2.178031 -1.964881 0
M  V30 32 H 1.268001 1.735362 -2.312163 0
M  V30 33 H 0.974179 4.106988 -2.506328 0
M  V30 34 H 0.097090 4.234613 -0.959160 0
M  V30 35 H 2.671356 4.713036 -0.982833 0
M  V30 36 H 2.895966 3.457031 1.188022 0
M  V30 37 H 1.587511 4.624286 1.000609 0
M  V30 38 H -0.050324 3.057814 1.030262 0
M  V30 39 H 1.106692 1.981895 1.811630 0
M  V30 40 H -0.519052 -0.886292 0.850534 0
M  V30 41 H -0.882566 -1.073229 3.215026 0
M  V30 42 H -2.899425 -1.335708 4.955750 0
M  V30 43 H -3.939269 -3.631450 4.618861 0
M  V30 END ATOM
M  V30 BEGIN BOND
M  V30 1 2 1 2
M  V30 2 1 2 3
M  V30 3 1 3 4
M  V30 4 2 4 5
M  V30 5 1 5 6
M  V30 6 2 6 7
M  V30 7 1 7 8
M  V30 8 2 8 9
M  V30 9 1 9 10
M  V30 10 1 10 11
M  V30 11 1 11 12
M  V30 12 1 12 13
M  V30 13 1 13 14
M  V30 14 1 14 15
M  V30 15 1 15 16
M  V30 16 1 10 17
M  V30 17 2 17 18
M  V30 18 2 3 19
M  V30 19 1 19 20
M  V30 20 2 20 21
M  V30 21 1 21 22
M  V30 22 1 22 23
M  V30 23 2 23 24
M  V30 24 1 24 1
M  V30 25 1 18 4
M  V30 26 1 23 19
M  V30 27 1 17 7
M  V30 28 1 16 11
M  V30 29 1 1 25
M  V30 30 1 2 26
M  V30 31 1 5 27
M  V30 32 1 6 28
M  V30 33 1 9 29
M  V30 34 1 11 30
M  V30 35 1 12 31
M  V30 36 1 12 32
M  V30 37 1 13 33
M  V30 38 1 13 34
M  V30 39 1 14 35
M  V30 40 1 15 36
M  V30 41 1 15 37
M  V30 42 1 16 38
M  V30 43 1 16 39
M  V30 44 1 18 40
M  V30 45 1 20 41
M  V30 46 1 21 42
M  V30 47 1 22 43
M  V30 END BOND
M  V30 END CTAB
M  END
>  <Dataset>  (549) 
ChEMBL_Kinases

>  <Ligand_Instance>  (549) 
nan

>  <PDB_ID>  (549) 
nan

>  <Standardized_SMILES>  (549) 
c1cc(-c2ccc3ncn(C4CCNCC4)c3c2)c2cc[nH]c2n1

>  <Name>  (549) 
nan

>  <Pocket>  (549) 
nan

>  <ATP_Site>  (549) 
nan

>  <Peripheral>  (549) 
nan

>  <Num_H_Atoms_ProtBoundConf>  (549) 
nan

>  <Num_Resolved_Atoms>  (549) 
nan

>  <Num_Not_Resolved_Atoms>  (549) 
nan

$$$$
CHEMBL4782457
     RDKit          3D

  0  0  0  0  0  0  0  0  0  0999 V3000
M  V30 BEGIN CTAB
M  V30 COUNTS 59 62 0 0 0
M  V30 BEGIN ATOM
M  V30 1 C 3.112362 -0.184360 6.449765 0
M  V30 2 C 3.816398 0.412157 5.226408 0
M  V30 3 C 4.016132 -0.609280 4.153474 0
M  V30 4 S 4.821616 0.111276 2.768018 0
M  V30 5 O 5.143764 -0.981159 1.761949 0
M  V30 6 O 6.168673 0.604990 3.257946 0
M  V30 7 N 3.976084 1.383173 2.023555 0
M  V30 8 C 2.771940 1.641110 1.355231 0
M  V30 9 C 2.909586 1.429727 -0.023305 0
M  V30 10 F 4.066408 1.028929 -0.650585 0
M  V30 11 C 1.859181 1.610408 -0.912600 0
M  V30 12 C 0.666396 2.012422 -0.354127 0
M  V30 13 C 0.430793 2.246065 0.984825 0
M  V30 14 C -0.808631 2.682801 1.587078 0
M  V30 15 O -0.543657 3.659005 2.370258 0
M  V30 16 C -2.196248 2.283831 1.503776 0
M  V30 17 N -3.129892 3.039152 2.105265 0
M  V30 18 N -4.332531 2.476519 1.902682 0
M  V30 19 C -4.247977 1.350853 1.175776 0
M  V30 20 N -5.118672 0.441142 0.714407 0
M  V30 21 C -4.692230 -0.629965 -0.015921 0
M  V30 22 C -3.317215 -0.730388 -0.256275 0
M  V30 23 C -2.855793 -1.873937 -1.036284 0
M  V30 24 C -3.456760 -3.097818 -1.018992 0
M  V30 25 C -3.007788 -4.167331 -1.763447 0
M  V30 26 C -1.887649 -4.003392 -2.576358 0
M  V30 27 C -1.351227 -5.115147 -3.405216 0
M  V30 28 C 0.084640 -5.336212 -2.996651 0
M  V30 29 C -1.352688 -4.648708 -4.851112 0
M  V30 30 C -1.244780 -2.782833 -2.627433 0
M  V30 31 C -1.742675 -1.753645 -1.859748 0
M  V30 32 C -2.399845 0.190503 0.205924 0
M  V30 33 C -2.895967 1.246216 0.934729 0
M  V30 34 C 1.528783 2.041923 1.789966 0
M  V30 35 F 1.460357 2.232497 3.120254 0
M  V30 36 H 2.446348 0.561644 6.918537 0
M  V30 37 H 3.888878 -0.569539 7.115518 0
M  V30 38 H 2.486914 -1.014012 6.062078 0
M  V30 39 H 3.192677 1.218619 4.858215 0
M  V30 40 H 4.781571 0.875140 5.535755 0
M  V30 41 H 4.553590 -1.472942 4.570665 0
M  V30 42 H 2.988353 -0.972513 3.864663 0
M  V30 43 H 4.404620 2.357084 1.993522 0
M  V30 44 H 1.931601 1.457530 -1.969573 0
M  V30 45 H -0.194996 2.167974 -1.024100 0
M  V30 46 H -5.197474 2.910092 2.289995 0
M  V30 47 H -5.368965 -1.372917 -0.397317 0
M  V30 48 H -4.337614 -3.255819 -0.390550 0
M  V30 49 H -3.493160 -5.143927 -1.744840 0
M  V30 50 H -1.939396 -6.039551 -3.275263 0
M  V30 51 H 0.520222 -4.347708 -2.773886 0
M  V30 52 H 0.163352 -5.973314 -2.112804 0
M  V30 53 H 0.605089 -5.781286 -3.887272 0
M  V30 54 H -0.612265 -3.835112 -4.929260 0
M  V30 55 H -2.356435 -4.301742 -5.157434 0
M  V30 56 H -1.048209 -5.467007 -5.509866 0
M  V30 57 H -0.374029 -2.558216 -3.223446 0
M  V30 58 H -1.264528 -0.765192 -1.867921 0
M  V30 59 H -1.358166 0.097249 0.020900 0
M  V30 END ATOM
M  V30 BEGIN BOND
M  V30 1 1 1 2
M  V30 2 1 2 3
M  V30 3 1 3 4
M  V30 4 2 4 5
M  V30 5 2 4 6
M  V30 6 1 4 7
M  V30 7 1 7 8
M  V30 8 2 8 9
M  V30 9 1 9 10
M  V30 10 1 9 11
M  V30 11 2 11 12
M  V30 12 1 12 13
M  V30 13 1 13 14
M  V30 14 2 14 15
M  V30 15 1 14 16
M  V30 16 2 16 17
M  V30 17 1 17 18
M  V30 18 1 18 19
M  V30 19 2 19 20
M  V30 20 1 20 21
M  V30 21 2 21 22
M  V30 22 1 22 23
M  V30 23 2 23 24
M  V30 24 1 24 25
M  V30 25 2 25 26
M  V30 26 1 26 27
M  V30 27 1 27 28
M  V30 28 1 27 29
M  V30 29 1 26 30
M  V30 30 2 30 31
M  V30 31 1 22 32
M  V30 32 2 32 33
M  V30 33 2 13 34
M  V30 34 1 34 35
M  V30 35 1 34 8
M  V30 36 1 33 16
M  V30 37 1 33 19
M  V30 38 1 31 23
M  V30 39 1 1 36
M  V30 40 1 1 37
M  V30 41 1 1 38
M  V30 42 1 2 39
M  V30 43 1 2 40
M  V30 44 1 3 41
M  V30 45 1 3 42
M  V30 46 1 7 43
M  V30 47 1 11 44
M  V30 48 1 12 45
M  V30 49 1 18 46
M  V30 50 1 21 47
M  V30 51 1 24 48
M  V30 52 1 25 49
M  V30 53 1 27 50
M  V30 54 1 28 51
M  V30 55 1 28 52
M  V30 56 1 28 53
M  V30 57 1 29 54
M  V30 58 1 29 55
M  V30 59 1 29 56
M  V30 60 1 30 57
M  V30 61 1 31 58
M  V30 62 1 32 59
M  V30 END BOND
M  V30 END CTAB
M  END
>  <Dataset>  (550) 
ChEMBL_Kinases

>  <Ligand_Instance>  (550) 
nan

>  <PDB_ID>  (550) 
nan

>  <Standardized_SMILES>  (550) 
CCCS(=O)(=O)Nc1c(F)ccc(C(=O)c2n[nH]c3ncc(-c4ccc(C(C)C)cc4)cc23)c1F

>  <Name>  (550) 
nan

>  <Pocket>  (550) 
nan

>  <ATP_Site>  (550) 
nan

>  <Peripheral>  (550) 
nan

>  <Num_H_Atoms_ProtBoundConf>  (550) 
nan

>  <Num_Resolved_Atoms>  (550) 
nan

>  <Num_Not_Resolved_Atoms>  (550) 
nan

$$$$
CHEMBL4208658
     RDKit          3D

  0  0  0  0  0  0  0  0  0  0999 V3000
M  V30 BEGIN CTAB
M  V30 COUNTS 50 55 0 0 0
M  V30 BEGIN ATOM
M  V30 1 O -0.532502 -0.214464 2.966611 0
M  V30 2 C -0.497516 -0.112789 1.698834 0
M  V30 3 C -0.028259 1.251689 1.377911 0
M  V30 4 C 1.407453 1.424294 1.823624 0
M  V30 5 C 1.885621 2.127629 2.911200 0
M  V30 6 C 3.249069 2.142125 3.116885 0
M  V30 7 C 4.144062 1.492068 2.292824 0
M  V30 8 C 5.496435 1.540918 2.546847 0
M  V30 9 C 6.404336 0.889665 1.722590 0
M  V30 10 C 5.913014 0.193295 0.643211 0
M  V30 11 C 4.557181 0.120505 0.353974 0
M  V30 12 C 3.685951 0.780897 1.196602 0
M  V30 13 C 2.300907 0.762807 0.982727 0
M  V30 14 O -0.117155 1.450605 -0.014859 0
M  V30 15 C -0.479529 0.387803 -0.816557 0
M  V30 16 C -0.460376 0.675797 -2.168264 0
M  V30 17 C -0.794866 -0.272331 -3.137902 0
M  V30 18 C -1.167401 -1.569129 -2.772330 0
M  V30 19 C -1.178148 -1.825949 -1.433667 0
M  V30 20 C -0.851201 -0.896012 -0.489602 0
M  V30 21 N -0.877267 -1.218694 0.891877 0
M  V30 22 C -1.237160 -2.505160 1.427808 0
M  V30 23 C -2.666916 -2.633062 1.786270 0
M  V30 24 C -3.099814 -2.295604 3.075329 0
M  V30 25 C -4.410681 -2.390792 3.476455 0
M  V30 26 C -5.384763 -2.833310 2.609742 0
M  V30 27 C -5.019273 -3.178610 1.332597 0
M  V30 28 C -3.695163 -3.064347 0.983898 0
M  V30 29 O -1.450188 -2.321184 -3.902917 0
M  V30 30 C -1.121994 -1.536965 -5.024301 0
M  V30 31 O -0.853949 -0.236297 -4.528144 0
M  V30 32 H -0.668610 2.010609 1.910943 0
M  V30 33 H 1.118908 2.592002 3.482919 0
M  V30 34 H 3.558793 2.708998 3.983446 0
M  V30 35 H 5.872425 2.094291 3.401889 0
M  V30 36 H 7.473242 0.914529 1.903285 0
M  V30 37 H 6.609441 -0.329750 -0.023063 0
M  V30 38 H 4.155887 -0.422190 -0.489066 0
M  V30 39 H 2.008500 0.190144 0.110685 0
M  V30 40 H -0.189850 1.640972 -2.574990 0
M  V30 41 H -1.453011 -2.818142 -1.114908 0
M  V30 42 H -0.676400 -2.608011 2.407363 0
M  V30 43 H -0.916784 -3.341007 0.760218 0
M  V30 44 H -2.451799 -1.943598 3.841969 0
M  V30 45 H -4.761285 -2.135261 4.463742 0
M  V30 46 H -6.424170 -2.921165 2.889563 0
M  V30 47 H -5.758679 -3.530083 0.626958 0
M  V30 48 H -3.461786 -3.350682 -0.029261 0
M  V30 49 H -1.991452 -1.562086 -5.721848 0
M  V30 50 H -0.261755 -1.966408 -5.589853 0
M  V30 END ATOM
M  V30 BEGIN BOND
M  V30 1 2 1 2
M  V30 2 1 2 3
M  V30 3 1 3 4
M  V30 4 2 4 5
M  V30 5 1 5 6
M  V30 6 2 6 7
M  V30 7 1 7 8
M  V30 8 2 8 9
M  V30 9 1 9 10
M  V30 10 2 10 11
M  V30 11 1 11 12
M  V30 12 2 12 13
M  V30 13 1 3 14
M  V30 14 1 14 15
M  V30 15 2 15 16
M  V30 16 1 16 17
M  V30 17 2 17 18
M  V30 18 1 18 19
M  V30 19 2 19 20
M  V30 20 1 20 21
M  V30 21 1 21 22
M  V30 22 1 22 23
M  V30 23 2 23 24
M  V30 24 1 24 25
M  V30 25 2 25 26
M  V30 26 1 26 27
M  V30 27 2 27 28
M  V30 28 1 18 29
M  V30 29 1 29 30
M  V30 30 1 30 31
M  V30 31 1 21 2
M  V30 32 1 28 23
M  V30 33 1 13 4
M  V30 34 1 20 15
M  V30 35 1 12 7
M  V30 36 1 31 17
M  V30 37 1 3 32
M  V30 38 1 5 33
M  V30 39 1 6 34
M  V30 40 1 8 35
M  V30 41 1 9 36
M  V30 42 1 10 37
M  V30 43 1 11 38
M  V30 44 1 13 39
M  V30 45 1 16 40
M  V30 46 1 19 41
M  V30 47 1 22 42
M  V30 48 1 22 43
M  V30 49 1 24 44
M  V30 50 1 25 45
M  V30 51 1 26 46
M  V30 52 1 27 47
M  V30 53 1 28 48
M  V30 54 1 30 49
M  V30 55 1 30 50
M  V30 END BOND
M  V30 END CTAB
M  END
>  <Dataset>  (551) 
ChEMBL_Kinases

>  <Ligand_Instance>  (551) 
nan

>  <PDB_ID>  (551) 
nan

>  <Standardized_SMILES>  (551) 
O=C1C(c2ccc3ccccc3c2)Oc2cc3c(cc2N1Cc1ccccc1)OCO3

>  <Name>  (551) 
nan

>  <Pocket>  (551) 
nan

>  <ATP_Site>  (551) 
nan

>  <Peripheral>  (551) 
nan

>  <Num_H_Atoms_ProtBoundConf>  (551) 
nan

>  <Num_Resolved_Atoms>  (551) 
nan

>  <Num_Not_Resolved_Atoms>  (551) 
nan

$$$$
CHEMBL4782481
     RDKit          3D

  0  0  0  0  0  0  0  0  0  0999 V3000
M  V30 BEGIN CTAB
M  V30 COUNTS 43 46 0 0 0
M  V30 BEGIN ATOM
M  V30 1 O 3.442973 -0.690314 4.445309 0
M  V30 2 C 2.657338 -0.151582 3.590918 0
M  V30 3 N 3.204500 0.756651 2.695764 0
M  V30 4 C 2.382763 1.279350 1.851151 0
M  V30 5 N 2.830844 2.233266 0.876229 0
M  V30 6 C 4.137789 2.071325 0.215181 0
M  V30 7 C 4.049402 0.832022 -0.591766 0
M  V30 8 C 4.359531 -0.468371 -0.241874 0
M  V30 9 C 4.203382 -1.498688 -1.136379 0
M  V30 10 C 3.735559 -1.339409 -2.433360 0
M  V30 11 C 3.420297 -0.032745 -2.796797 0
M  V30 12 O 2.942062 0.207654 -4.092350 0
M  V30 13 C 3.577423 0.991539 -1.901145 0
M  V30 14 S 0.708393 0.629670 2.118631 0
M  V30 15 C 1.230101 -0.425744 3.493729 0
M  V30 16 C 0.505170 -1.220366 4.217387 0
M  V30 17 C -0.921652 -1.362198 3.960299 0
M  V30 18 C -2.054532 -1.467537 4.766721 0
M  V30 19 C -3.150124 -1.582589 3.940504 0
M  V30 20 C -2.655841 -1.544292 2.656359 0
M  V30 21 C -3.412789 -1.631058 1.411976 0
M  V30 22 C -2.766592 -1.607025 0.195048 0
M  V30 23 C -3.381509 -1.684238 -1.038012 0
M  V30 24 C -4.767828 -1.794318 -1.011398 0
M  V30 25 C -5.456698 -1.821513 0.201889 0
M  V30 26 Cl -7.191997 -1.957503 0.291023 0
M  V30 27 C -4.780832 -1.740151 1.406444 0
M  V30 28 O -1.362000 -1.415688 2.708209 0
M  V30 29 H 2.136088 3.023814 0.698417 0
M  V30 30 H 4.943025 1.993403 0.980126 0
M  V30 31 H 4.353433 2.919982 -0.428014 0
M  V30 32 H 4.723120 -0.575867 0.766338 0
M  V30 33 H 4.468742 -2.509702 -0.789759 0
M  V30 34 H 3.634379 -2.186922 -3.089518 0
M  V30 35 H 3.179182 1.087808 -4.565396 0
M  V30 36 H 3.307187 1.991858 -2.262209 0
M  V30 37 H 1.043299 -1.756016 5.009408 0
M  V30 38 H -1.960946 -1.449462 5.842733 0
M  V30 39 H -4.173068 -1.680038 4.269480 0
M  V30 40 H -1.687500 -1.520793 0.207999 0
M  V30 41 H -2.815520 -1.661396 -1.965776 0
M  V30 42 H -5.330501 -1.861358 -1.944068 0
M  V30 43 H -5.331087 -1.760839 2.359340 0
M  V30 END ATOM
M  V30 BEGIN BOND
M  V30 1 2 1 2
M  V30 2 1 2 3
M  V30 3 2 3 4
M  V30 4 1 4 5
M  V30 5 1 5 6
M  V30 6 1 6 7
M  V30 7 2 7 8
M  V30 8 1 8 9
M  V30 9 2 9 10
M  V30 10 1 10 11
M  V30 11 1 11 12
M  V30 12 2 11 13
M  V30 13 1 4 14
M  V30 14 1 14 15
M  V30 15 2 15 16
M  V30 16 1 16 17
M  V30 17 2 17 18
M  V30 18 1 18 19
M  V30 19 2 19 20
M  V30 20 1 20 21
M  V30 21 2 21 22
M  V30 22 1 22 23
M  V30 23 2 23 24
M  V30 24 1 24 25
M  V30 25 1 25 26
M  V30 26 2 25 27
M  V30 27 1 20 28
M  V30 28 1 15 2
M  V30 29 1 28 17
M  V30 30 1 13 7
M  V30 31 1 27 21
M  V30 32 1 5 29
M  V30 33 1 6 30
M  V30 34 1 6 31
M  V30 35 1 8 32
M  V30 36 1 9 33
M  V30 37 1 10 34
M  V30 38 1 12 35
M  V30 39 1 13 36
M  V30 40 1 16 37
M  V30 41 1 18 38
M  V30 42 1 19 39
M  V30 43 1 22 40
M  V30 44 1 23 41
M  V30 45 1 24 42
M  V30 46 1 27 43
M  V30 END BOND
M  V30 END CTAB
M  END
>  <Dataset>  (552) 
ChEMBL_Kinases

>  <Ligand_Instance>  (552) 
nan

>  <PDB_ID>  (552) 
nan

>  <Standardized_SMILES>  (552) 
O=C1N=C(NCc2cccc(O)c2)S/C1=C\c1ccc(-c2cccc(Cl)c2)o1

>  <Name>  (552) 
nan

>  <Pocket>  (552) 
nan

>  <ATP_Site>  (552) 
nan

>  <Peripheral>  (552) 
nan

>  <Num_H_Atoms_ProtBoundConf>  (552) 
nan

>  <Num_Resolved_Atoms>  (552) 
nan

>  <Num_Not_Resolved_Atoms>  (552) 
nan

$$$$
CHEMBL4782526
     RDKit          3D

  0  0  0  0  0  0  0  0  0  0999 V3000
M  V30 BEGIN CTAB
M  V30 COUNTS 58 62 0 0 0
M  V30 BEGIN ATOM
M  V30 1 C 4.559868 -1.403439 5.109650 0
M  V30 2 N 3.781880 -1.191898 3.910843 0
M  V30 3 C 4.297908 -0.930903 2.611885 0
M  V30 4 O 5.557475 -0.870350 2.449680 0
M  V30 5 N 3.502915 -0.730926 1.471320 0
M  V30 6 C 4.194434 -0.476637 0.228317 0
M  V30 7 C 3.314089 0.072769 -0.855560 0
M  V30 8 N 1.958955 0.275192 -0.470837 0
M  V30 9 C 1.138641 1.410018 -0.727191 0
M  V30 10 C 1.638460 2.479458 -1.425620 0
M  V30 11 C 0.754859 3.533596 -1.619976 0
M  V30 12 C -0.545303 3.492725 -1.133384 0
M  V30 13 C -0.991207 2.388306 -0.437325 0
M  V30 14 N -2.298225 2.218323 0.114348 0
M  V30 15 N -3.044549 3.115209 0.767713 0
M  V30 16 C -4.224142 2.536489 1.120792 0
M  V30 17 C -4.197324 1.220495 0.660270 0
M  V30 18 C -5.054075 0.128953 0.688197 0
M  V30 19 N -4.703353 -1.043449 0.125516 0
M  V30 20 C -3.536526 -1.225145 -0.480471 0
M  V30 21 C -3.157379 -2.502739 -1.092205 0
M  V30 22 C -3.423772 -2.831576 -2.408986 0
M  V30 23 F -4.065739 -1.913573 -3.146888 0
M  V30 24 C -3.032250 -4.055696 -2.904892 0
M  V30 25 C -2.375115 -4.908196 -2.025593 0
M  V30 26 C -2.101339 -4.595979 -0.708963 0
M  V30 27 C -2.507115 -3.350753 -0.228410 0
M  V30 28 O -2.218021 -3.075231 1.084781 0
M  V30 29 C -1.552803 -3.941388 1.970339 0
M  V30 30 C -2.624492 -0.180406 -0.550115 0
M  V30 31 C -2.981744 1.039613 0.031825 0
M  V30 32 N -0.122039 1.388408 -0.264112 0
M  V30 33 C 1.466315 -0.876412 0.260840 0
M  V30 34 C 2.065313 -0.798714 1.650333 0
M  V30 35 H 4.284920 -0.630402 5.855792 0
M  V30 36 H 5.620481 -1.270784 4.871792 0
M  V30 37 H 4.372706 -2.394288 5.574198 0
M  V30 38 H 2.733779 -1.242293 4.045788 0
M  V30 39 H 4.997038 0.252457 0.474915 0
M  V30 40 H 4.727534 -1.398811 -0.087846 0
M  V30 41 H 3.298285 -0.693179 -1.682314 0
M  V30 42 H 3.819029 0.945909 -1.316500 0
M  V30 43 H 2.643776 2.531543 -1.811925 0
M  V30 44 H 1.097859 4.402737 -2.164934 0
M  V30 45 H -1.255673 4.298362 -1.269326 0
M  V30 46 H -5.063925 2.963772 1.657878 0
M  V30 47 H -6.014565 0.268785 1.183706 0
M  V30 48 H -3.234013 -4.324552 -3.930300 0
M  V30 49 H -2.078205 -5.867078 -2.445278 0
M  V30 50 H -1.576359 -5.330051 -0.081980 0
M  V30 51 H -0.587543 -4.272301 1.516706 0
M  V30 52 H -1.396440 -3.350213 2.907937 0
M  V30 53 H -2.174177 -4.823508 2.258416 0
M  V30 54 H -1.652464 -0.301060 -1.044472 0
M  V30 55 H 0.365541 -0.830449 0.399957 0
M  V30 56 H 1.775115 -1.846662 -0.173376 0
M  V30 57 H 1.764422 0.160094 2.109905 0
M  V30 58 H 1.802885 -1.682023 2.262405 0
M  V30 END ATOM
M  V30 BEGIN BOND
M  V30 1 1 1 2
M  V30 2 1 2 3
M  V30 3 2 3 4
M  V30 4 1 3 5
M  V30 5 1 5 6
M  V30 6 1 6 7
M  V30 7 1 7 8
M  V30 8 1 8 9
M  V30 9 2 9 10
M  V30 10 1 10 11
M  V30 11 2 11 12
M  V30 12 1 12 13
M  V30 13 1 13 14
M  V30 14 1 14 15
M  V30 15 2 15 16
M  V30 16 1 16 17
M  V30 17 2 17 18
M  V30 18 1 18 19
M  V30 19 2 19 20
M  V30 20 1 20 21
M  V30 21 2 21 22
M  V30 22 1 22 23
M  V30 23 1 22 24
M  V30 24 2 24 25
M  V30 25 1 25 26
M  V30 26 2 26 27
M  V30 27 1 27 28
M  V30 28 1 28 29
M  V30 29 1 20 30
M  V30 30 2 30 31
M  V30 31 2 13 32
M  V30 32 1 8 33
M  V30 33 1 33 34
M  V30 34 1 34 5
M  V30 35 1 32 9
M  V30 36 1 31 14
M  V30 37 1 31 17
M  V30 38 1 27 21
M  V30 39 1 1 35
M  V30 40 1 1 36
M  V30 41 1 1 37
M  V30 42 1 2 38
M  V30 43 1 6 39
M  V30 44 1 6 40
M  V30 45 1 7 41
M  V30 46 1 7 42
M  V30 47 1 10 43
M  V30 48 1 11 44
M  V30 49 1 12 45
M  V30 50 1 16 46
M  V30 51 1 18 47
M  V30 52 1 24 48
M  V30 53 1 25 49
M  V30 54 1 26 50
M  V30 55 1 29 51
M  V30 56 1 29 52
M  V30 57 1 29 53
M  V30 58 1 30 54
M  V30 59 1 33 55
M  V30 60 1 33 56
M  V30 61 1 34 57
M  V30 62 1 34 58
M  V30 END BOND
M  V30 END CTAB
M  END
>  <Dataset>  (553) 
ChEMBL_Kinases

>  <Ligand_Instance>  (553) 
nan

>  <PDB_ID>  (553) 
nan

>  <Standardized_SMILES>  (553) 
CNC(=O)N1CCN(c2cccc(-n3ncc4cnc(-c5c(F)cccc5OC)cc43)n2)CC1

>  <Name>  (553) 
nan

>  <Pocket>  (553) 
nan

>  <ATP_Site>  (553) 
nan

>  <Peripheral>  (553) 
nan

>  <Num_H_Atoms_ProtBoundConf>  (553) 
nan

>  <Num_Resolved_Atoms>  (553) 
nan

>  <Num_Not_Resolved_Atoms>  (553) 
nan

$$$$
CHEMBL4782569
     RDKit          3D

  0  0  0  0  0  0  0  0  0  0999 V3000
M  V30 BEGIN CTAB
M  V30 COUNTS 53 56 0 0 0
M  V30 BEGIN ATOM
M  V30 1 C 3.164288 -2.455563 4.801802 0
M  V30 2 O 2.792159 -1.331009 4.060035 0
M  V30 3 C 3.492575 -0.758845 3.013660 0
M  V30 4 C 4.706143 -1.142055 2.466164 0
M  V30 5 C 5.253979 -0.436928 1.405661 0
M  V30 6 C 4.607967 0.653973 0.875421 0
M  V30 7 C 3.383877 1.047037 1.420986 0
M  V30 8 N 2.804126 2.109108 0.851936 0
M  V30 9 C 1.612995 2.596532 1.273499 0
M  V30 10 N 0.816043 3.667228 0.796811 0
M  V30 11 C -0.398501 3.320574 0.108641 0
M  V30 12 C -1.204135 4.276115 -0.468984 0
M  V30 13 C -2.385633 3.995885 -1.120785 0
M  V30 14 C -2.834473 2.666278 -1.226096 0
M  V30 15 C -2.079872 1.677517 -0.675222 0
M  V30 16 N -2.316613 0.249890 -0.648940 0
M  V30 17 C -1.802753 -0.755292 -1.527094 0
M  V30 18 O -1.087918 -0.205514 -2.376416 0
M  V30 19 C -2.260785 -2.092864 -1.167305 0
M  V30 20 C -3.216827 -2.474847 -0.246743 0
M  V30 21 C -3.455525 -3.822021 -0.053984 0
M  V30 22 C -4.504890 -3.988335 0.976215 0
M  V30 23 F -4.805714 -5.287653 1.200046 0
M  V30 24 F -4.042005 -3.385551 2.144364 0
M  V30 25 F -5.619051 -3.279663 0.509284 0
M  V30 26 C -2.789113 -4.820578 -0.734065 0
M  V30 27 C -1.823362 -4.457428 -1.664222 0
M  V30 28 C -1.078682 -5.515902 -2.390401 0
M  V30 29 F 0.125970 -5.801290 -1.731701 0
M  V30 30 F -1.814678 -6.664100 -2.468222 0
M  V30 31 F -0.749754 -5.123488 -3.661667 0
M  V30 32 C -1.589909 -3.117451 -1.851547 0
M  V30 33 C -0.887145 2.027441 -0.026004 0
M  V30 34 C 1.052302 1.899674 2.343899 0
M  V30 35 C 1.635999 0.811085 2.932959 0
M  V30 36 C 2.844231 0.344830 2.474112 0
M  V30 37 H 3.711559 -3.204807 4.153434 0
M  V30 38 H 2.224046 -2.985093 5.111605 0
M  V30 39 H 3.809317 -2.239559 5.655891 0
M  V30 40 H 5.117717 -2.009841 2.960862 0
M  V30 41 H 6.206866 -0.829027 1.058098 0
M  V30 42 H 5.113171 1.151159 0.038072 0
M  V30 43 H 1.006548 4.703314 0.879454 0
M  V30 44 H -0.895028 5.318515 -0.408530 0
M  V30 45 H -3.032737 4.748999 -1.575484 0
M  V30 46 H -3.724577 2.318154 -1.695774 0
M  V30 47 H -2.950038 0.238156 0.173963 0
M  V30 48 H -3.689048 -1.634735 0.240504 0
M  V30 49 H -3.054540 -5.829054 -0.494512 0
M  V30 50 H -0.810181 -2.929236 -2.611724 0
M  V30 51 H -0.247129 1.252452 0.423215 0
M  V30 52 H 0.097630 2.199079 2.770030 0
M  V30 53 H 1.157172 0.290755 3.772402 0
M  V30 END ATOM
M  V30 BEGIN BOND
M  V30 1 1 1 2
M  V30 2 1 2 3
M  V30 3 2 3 4
M  V30 4 1 4 5
M  V30 5 2 5 6
M  V30 6 1 6 7
M  V30 7 2 7 8
M  V30 8 1 8 9
M  V30 9 1 9 10
M  V30 10 1 10 11
M  V30 11 2 11 12
M  V30 12 1 12 13
M  V30 13 2 13 14
M  V30 14 1 14 15
M  V30 15 1 15 16
M  V30 16 1 16 17
M  V30 17 2 17 18
M  V30 18 1 17 19
M  V30 19 2 19 20
M  V30 20 1 20 21
M  V30 21 1 21 22
M  V30 22 1 22 23
M  V30 23 1 22 24
M  V30 24 1 22 25
M  V30 25 2 21 26
M  V30 26 1 26 27
M  V30 27 1 27 28
M  V30 28 1 28 29
M  V30 29 1 28 30
M  V30 30 1 28 31
M  V30 31 2 27 32
M  V30 32 2 15 33
M  V30 33 2 9 34
M  V30 34 1 34 35
M  V30 35 2 35 36
M  V30 36 1 36 3
M  V30 37 1 36 7
M  V30 38 1 33 11
M  V30 39 1 32 19
M  V30 40 1 1 37
M  V30 41 1 1 38
M  V30 42 1 1 39
M  V30 43 1 4 40
M  V30 44 1 5 41
M  V30 45 1 6 42
M  V30 46 1 10 43
M  V30 47 1 12 44
M  V30 48 1 13 45
M  V30 49 1 14 46
M  V30 50 1 16 47
M  V30 51 1 20 48
M  V30 52 1 26 49
M  V30 53 1 32 50
M  V30 54 1 33 51
M  V30 55 1 34 52
M  V30 56 1 35 53
M  V30 END BOND
M  V30 END CTAB
M  END
>  <Dataset>  (554) 
ChEMBL_Kinases

>  <Ligand_Instance>  (554) 
nan

>  <PDB_ID>  (554) 
nan

>  <Standardized_SMILES>  (554) 
COc1cccc2nc(Nc3cccc(NC(=O)c4cc(C(F)(F)F)cc(C(F)(F)F)c4)c3)ccc12

>  <Name>  (554) 
nan

>  <Pocket>  (554) 
nan

>  <ATP_Site>  (554) 
nan

>  <Peripheral>  (554) 
nan

>  <Num_H_Atoms_ProtBoundConf>  (554) 
nan

>  <Num_Resolved_Atoms>  (554) 
nan

>  <Num_Not_Resolved_Atoms>  (554) 
nan

$$$$
CHEMBL478234
     RDKit          3D

  0  0  0  0  0  0  0  0  0  0999 V3000
M  V30 BEGIN CTAB
M  V30 COUNTS 66 69 0 0 0
M  V30 BEGIN ATOM
M  V30 1 C 0.509800 -2.327902 5.592642 0
M  V30 2 C 0.388863 -1.151589 4.720546 0
M  V30 3 C 0.357419 0.142013 5.201182 0
M  V30 4 C 0.243508 1.236912 4.363704 0
M  V30 5 C 0.156923 1.031552 2.982163 0
M  V30 6 N 0.036659 2.094250 2.040679 0
M  V30 7 C 1.129625 2.761099 1.423558 0
M  V30 8 O 2.263706 2.343391 1.769309 0
M  V30 9 C 1.026283 3.832482 0.473750 0
M  V30 10 C 2.224115 4.357882 -0.017115 0
M  V30 11 C 2.089438 5.387380 -0.929095 0
M  V30 12 N 0.952397 5.898632 -1.360581 0
M  V30 13 C -0.222516 5.422310 -0.913922 0
M  V30 14 N -1.477388 5.928193 -1.324294 0
M  V30 15 C -2.819694 5.531872 -1.029851 0
M  V30 16 C -3.209617 4.179530 -1.545772 0
M  V30 17 C -4.668044 3.939544 -1.132646 0
M  V30 18 C -3.101051 4.140238 -3.071831 0
M  V30 19 C -0.135906 4.384709 0.006505 0
M  V30 20 C 0.192025 -0.276132 2.543507 0
M  V30 21 C 0.306475 -1.402826 3.366140 0
M  V30 22 C 0.324657 -2.703944 2.708725 0
M  V30 23 C 1.139225 -2.798373 1.597766 0
M  V30 24 C 1.262101 -3.962863 0.868610 0
M  V30 25 C 0.544807 -5.092301 1.254967 0
M  V30 26 C 0.542031 -6.405329 0.617664 0
M  V30 27 O -0.112494 -7.404469 0.982373 0
M  V30 28 N 1.328465 -6.669150 -0.535321 0
M  V30 29 C 1.166374 -8.046497 -0.996553 0
M  V30 30 C 2.072293 -8.151610 -2.227867 0
M  V30 31 C 1.738366 -7.208304 -3.353837 0
M  V30 32 C 1.487263 -8.701088 -3.475075 0
M  V30 33 C -0.274241 -5.000701 2.370388 0
M  V30 34 C -0.378781 -3.813392 3.086661 0
M  V30 35 H -0.484574 -2.646008 6.019748 0
M  V30 36 H 1.115168 -3.149939 5.213780 0
M  V30 37 H 1.061177 -1.967513 6.511119 0
M  V30 38 H 0.424942 0.296901 6.274176 0
M  V30 39 H 0.217964 2.258444 4.732699 0
M  V30 40 H -0.930571 2.395795 1.794600 0
M  V30 41 H 3.208425 4.012764 0.269650 0
M  V30 42 H 2.973518 5.864257 -1.370471 0
M  V30 43 H -1.403353 6.765348 -1.979424 0
M  V30 44 H -3.558272 6.274844 -1.337085 0
M  V30 45 H -2.888182 5.505196 0.098371 0
M  V30 46 H -2.638234 3.343193 -1.152908 0
M  V30 47 H -4.686163 4.172574 -0.047860 0
M  V30 48 H -4.842267 2.856368 -1.278107 0
M  V30 49 H -5.363633 4.561505 -1.730000 0
M  V30 50 H -3.835566 3.401029 -3.452311 0
M  V30 51 H -2.080260 3.807827 -3.391968 0
M  V30 52 H -3.283330 5.155244 -3.468661 0
M  V30 53 H -1.007246 3.917565 0.447945 0
M  V30 54 H 0.123105 -0.424930 1.455126 0
M  V30 55 H 1.753656 -1.978797 1.194720 0
M  V30 56 H 1.877469 -4.109105 -0.007110 0
M  V30 57 H 1.940437 -5.927914 -0.970504 0
M  V30 58 H 0.123730 -8.122748 -1.372394 0
M  V30 59 H 1.416711 -8.792568 -0.243729 0
M  V30 60 H 3.155608 -8.332168 -2.068280 0
M  V30 61 H 2.568570 -6.795238 -3.974202 0
M  V30 62 H 0.830241 -6.585394 -3.307286 0
M  V30 63 H 0.428208 -9.040353 -3.496295 0
M  V30 64 H 2.119918 -9.238087 -4.184037 0
M  V30 65 H -0.861353 -5.819911 2.737903 0
M  V30 66 H -1.002145 -3.728003 3.942958 0
M  V30 END ATOM
M  V30 BEGIN BOND
M  V30 1 1 1 2
M  V30 2 2 2 3
M  V30 3 1 3 4
M  V30 4 2 4 5
M  V30 5 1 5 6
M  V30 6 1 6 7
M  V30 7 2 7 8
M  V30 8 1 7 9
M  V30 9 2 9 10
M  V30 10 1 10 11
M  V30 11 2 11 12
M  V30 12 1 12 13
M  V30 13 1 13 14
M  V30 14 1 14 15
M  V30 15 1 15 16
M  V30 16 1 16 17
M  V30 17 1 16 18
M  V30 18 2 13 19
M  V30 19 1 5 20
M  V30 20 2 20 21
M  V30 21 1 21 22
M  V30 22 2 22 23
M  V30 23 1 23 24
M  V30 24 2 24 25
M  V30 25 1 25 26
M  V30 26 2 26 27
M  V30 27 1 26 28
M  V30 28 1 28 29
M  V30 29 1 29 30
M  V30 30 1 30 31
M  V30 31 1 31 32
M  V30 32 1 25 33
M  V30 33 2 33 34
M  V30 34 1 21 2
M  V30 35 1 34 22
M  V30 36 1 19 9
M  V30 37 1 32 30
M  V30 38 1 1 35
M  V30 39 1 1 36
M  V30 40 1 1 37
M  V30 41 1 3 38
M  V30 42 1 4 39
M  V30 43 1 6 40
M  V30 44 1 10 41
M  V30 45 1 11 42
M  V30 46 1 14 43
M  V30 47 1 15 44
M  V30 48 1 15 45
M  V30 49 1 16 46
M  V30 50 1 17 47
M  V30 51 1 17 48
M  V30 52 1 17 49
M  V30 53 1 18 50
M  V30 54 1 18 51
M  V30 55 1 18 52
M  V30 56 1 19 53
M  V30 57 1 20 54
M  V30 58 1 23 55
M  V30 59 1 24 56
M  V30 60 1 28 57
M  V30 61 1 29 58
M  V30 62 1 29 59
M  V30 63 1 30 60
M  V30 64 1 31 61
M  V30 65 1 31 62
M  V30 66 1 32 63
M  V30 67 1 32 64
M  V30 68 1 33 65
M  V30 69 1 34 66
M  V30 END BOND
M  V30 END CTAB
M  END
>  <Dataset>  (555) 
ChEMBL_Kinases

>  <Ligand_Instance>  (555) 
nan

>  <PDB_ID>  (555) 
nan

>  <Standardized_SMILES>  (555) 
Cc1ccc(NC(=O)c2ccnc(NCC(C)C)c2)cc1-c1ccc(C(=O)NCC2CC2)cc1

>  <Name>  (555) 
nan

>  <Pocket>  (555) 
nan

>  <ATP_Site>  (555) 
nan

>  <Peripheral>  (555) 
nan

>  <Num_H_Atoms_ProtBoundConf>  (555) 
nan

>  <Num_Resolved_Atoms>  (555) 
nan

>  <Num_Not_Resolved_Atoms>  (555) 
nan

$$$$
CHEMBL4781715
     RDKit          3D

  0  0  0  0  0  0  0  0  0  0999 V3000
M  V30 BEGIN CTAB
M  V30 COUNTS 62 67 0 0 0
M  V30 BEGIN ATOM
M  V30 1 C -0.897042 -1.470088 3.788185 0
M  V30 2 C -0.343432 -2.901251 3.815028 0 CFG=2
M  V30 3 C 1.033706 -2.855130 3.251958 0
M  V30 4 N 1.129227 -3.438348 1.928142 0
M  V30 5 C 1.678731 -2.847019 0.781946 0
M  V30 6 C 2.204447 -1.593697 0.804670 0
M  V30 7 C 2.733908 -1.054176 -0.349258 0
M  V30 8 N 3.293335 0.274666 -0.333353 0
M  V30 9 N 4.493031 0.719719 0.041839 0
M  V30 10 C 4.508127 2.060756 -0.142732 0
M  V30 11 C 3.306975 2.458344 -0.637910 0
M  V30 12 C 2.788250 3.700834 -1.003556 0
M  V30 13 C 1.500393 3.809520 -1.489485 0
M  V30 14 C 0.718140 2.679990 -1.615153 0
M  V30 15 C -0.671497 2.681128 -2.122804 0
M  V30 16 C -1.231892 3.316965 -3.211496 0
M  V30 17 N -2.519646 2.972459 -3.201189 0
M  V30 18 N -2.795262 2.168411 -2.182949 0
M  V30 19 C -1.675051 1.953889 -1.476545 0
M  V30 20 O -1.700901 1.151925 -0.370307 0
M  V30 21 C -2.887353 0.727183 0.224022 0
M  V30 22 C -4.120718 1.323390 -0.365633 0
M  V30 23 C -4.075468 1.582185 -1.833798 0
M  V30 24 C 1.243163 1.445817 -1.248360 0
M  V30 25 C 2.535854 1.311380 -0.757025 0
M  V30 26 C 2.741185 -1.760572 -1.527512 0
M  V30 27 C 2.192175 -3.030288 -1.487417 0
M  V30 28 N 1.678712 -3.541116 -0.348138 0
M  V30 29 C 0.560721 -4.773546 1.927674 0
M  V30 30 C -0.912200 -4.616363 2.161219 0 CFG=2
M  V30 31 C -1.599325 -4.184830 0.881023 0
M  V30 32 N -1.233548 -3.851383 3.289086 0
M  V30 33 C -2.604221 -3.453170 3.350743 0
M  V30 34 H -1.591960 -1.300016 4.623472 0
M  V30 35 H -1.268069 -1.179335 2.797188 0
M  V30 36 H -0.018442 -0.803483 3.997521 0
M  V30 37 H -0.255452 -3.114451 4.906624 0
M  V30 38 H 1.714866 -3.499512 3.882826 0
M  V30 39 H 1.450504 -1.846505 3.337715 0
M  V30 40 H 2.239193 -0.980722 1.669209 0
M  V30 41 H 5.378784 2.652320 0.091520 0
M  V30 42 H 3.402526 4.566576 -0.901822 0
M  V30 43 H 1.057521 4.763789 -1.786600 0
M  V30 44 H -0.652436 3.948733 -3.879385 0
M  V30 45 H -2.905133 0.866408 1.320294 0
M  V30 46 H -2.939465 -0.388577 0.071665 0
M  V30 47 H -4.384072 2.293697 0.141641 0
M  V30 48 H -5.013199 0.656387 -0.190455 0
M  V30 49 H -4.224864 0.616601 -2.397314 0
M  V30 50 H -4.895329 2.277434 -2.100669 0
M  V30 51 H 0.617590 0.546698 -1.349375 0
M  V30 52 H 3.137929 -1.395502 -2.456353 0
M  V30 53 H 2.144219 -3.685500 -2.370574 0
M  V30 54 H 0.971556 -5.365104 2.790556 0
M  V30 55 H 0.764647 -5.311341 0.981879 0
M  V30 56 H -1.308342 -5.652803 2.354134 0
M  V30 57 H -1.194953 -4.800352 0.049390 0
M  V30 58 H -2.692074 -4.373566 0.885840 0
M  V30 59 H -1.417341 -3.133457 0.609747 0
M  V30 60 H -3.227350 -4.375182 3.340262 0
M  V30 61 H -2.840039 -2.913430 4.268606 0
M  V30 62 H -2.924520 -2.859628 2.455249 0
M  V30 END ATOM
M  V30 BEGIN BOND
M  V30 1 1 1 2
M  V30 2 1 2 3
M  V30 3 1 3 4
M  V30 4 1 4 5
M  V30 5 2 5 6
M  V30 6 1 6 7
M  V30 7 1 7 8
M  V30 8 1 8 9
M  V30 9 2 9 10
M  V30 10 1 10 11
M  V30 11 2 11 12
M  V30 12 1 12 13
M  V30 13 2 13 14
M  V30 14 1 14 15
M  V30 15 1 15 16
M  V30 16 2 16 17
M  V30 17 1 17 18
M  V30 18 1 18 19
M  V30 19 1 19 20
M  V30 20 1 20 21
M  V30 21 1 21 22
M  V30 22 1 22 23
M  V30 23 1 14 24
M  V30 24 2 24 25
M  V30 25 2 7 26
M  V30 26 1 26 27
M  V30 27 2 27 28
M  V30 28 1 4 29
M  V30 29 1 29 30
M  V30 30 1 30 31
M  V30 31 1 30 32
M  V30 32 1 32 33
M  V30 33 1 32 2
M  V30 34 1 28 5
M  V30 35 1 25 8
M  V30 36 1 25 11
M  V30 37 2 19 15
M  V30 38 1 23 18
M  V30 39 1 1 34
M  V30 40 1 1 35
M  V30 41 1 1 36
M  V30 42 1 2 37 CFG=1
M  V30 43 1 3 38
M  V30 44 1 3 39
M  V30 45 1 6 40
M  V30 46 1 10 41
M  V30 47 1 12 42
M  V30 48 1 13 43
M  V30 49 1 16 44
M  V30 50 1 21 45
M  V30 51 1 21 46
M  V30 52 1 22 47
M  V30 53 1 22 48
M  V30 54 1 23 49
M  V30 55 1 23 50
M  V30 56 1 24 51
M  V30 57 1 26 52
M  V30 58 1 27 53
M  V30 59 1 29 54
M  V30 60 1 29 55
M  V30 61 1 30 56 CFG=1
M  V30 62 1 31 57
M  V30 63 1 31 58
M  V30 64 1 31 59
M  V30 65 1 33 60
M  V30 66 1 33 61
M  V30 67 1 33 62
M  V30 END BOND
M  V30 END CTAB
M  END
>  <Dataset>  (556) 
ChEMBL_Kinases

>  <Ligand_Instance>  (556) 
nan

>  <PDB_ID>  (556) 
nan

>  <Standardized_SMILES>  (556) 
C[C@@H]1CN(c2cc(-n3ncc4ccc(-c5cnn6c5OCCC6)cc43)ccn2)C[C@H](C)N1C

>  <Name>  (556) 
nan

>  <Pocket>  (556) 
nan

>  <ATP_Site>  (556) 
nan

>  <Peripheral>  (556) 
nan

>  <Num_H_Atoms_ProtBoundConf>  (556) 
nan

>  <Num_Resolved_Atoms>  (556) 
nan

>  <Num_Not_Resolved_Atoms>  (556) 
nan

$$$$
CHEMBL4781735
     RDKit          3D

  0  0  0  0  0  0  0  0  0  0999 V3000
M  V30 BEGIN CTAB
M  V30 COUNTS 63 66 0 0 0
M  V30 BEGIN ATOM
M  V30 1 C 3.952499 1.889776 8.339429 0
M  V30 2 C 3.416676 2.411901 7.237573 0
M  V30 3 C 4.257969 2.997533 6.144811 0
M  V30 4 N 4.040249 2.302428 4.911329 0
M  V30 5 C 2.792441 2.217690 4.270560 0
M  V30 6 O 1.945547 2.854791 4.978699 0
M  V30 7 C 2.431352 1.554774 3.034644 0
M  V30 8 C 3.142996 0.820912 2.119573 0
M  V30 9 C 4.580321 0.518439 2.212069 0
M  V30 10 N 2.350694 0.411627 1.121991 0
M  V30 11 C 1.086869 0.874578 1.364208 0
M  V30 12 C 0.025103 0.524538 0.438716 0
M  V30 13 C -0.797641 1.251119 -0.291564 0
M  V30 14 C -0.753300 2.705130 -0.282517 0
M  V30 15 O 0.039205 3.434103 0.359613 0
M  V30 16 N -1.790851 3.119246 -1.153923 0
M  V30 17 C -2.429453 1.957476 -1.664683 0
M  V30 18 C -3.486812 1.800645 -2.543231 0
M  V30 19 C -3.952202 0.534035 -2.908190 0
M  V30 20 C -3.357354 -0.614144 -2.391471 0
M  V30 21 C -3.904408 -1.895865 -2.824311 0
M  V30 22 O -4.855598 -1.897817 -3.618772 0
M  V30 23 N -3.370945 -3.124684 -2.355633 0
M  V30 24 C -3.761730 -4.466499 -2.656708 0 CFG=2
M  V30 25 C -4.179434 -5.136134 -1.361214 0
M  V30 26 C -2.667737 -5.235629 -3.287362 0
M  V30 27 C -2.874847 -6.048274 -4.403502 0
M  V30 28 C -1.813532 -6.752045 -4.960365 0
M  V30 29 C -0.530260 -6.682074 -4.446362 0
M  V30 30 C -0.305021 -5.882814 -3.341500 0
M  V30 31 C -1.369845 -5.187169 -2.796296 0
M  V30 32 C -2.311094 -0.463904 -1.522088 0
M  V30 33 C -1.866466 0.796672 -1.174342 0
M  V30 34 C 1.142165 1.579296 2.548155 0
M  V30 35 C -0.040518 2.227477 3.208580 0
M  V30 36 H 3.954489 1.408628 9.305960 0
M  V30 37 H 4.995010 1.805942 8.611198 0
M  V30 38 H 2.345014 2.368159 7.220255 0
M  V30 39 H 3.967089 4.067136 6.073048 0
M  V30 40 H 5.322355 2.981269 6.421915 0
M  V30 41 H 4.847046 1.829225 4.454914 0
M  V30 42 H 4.849692 -0.084965 3.097829 0
M  V30 43 H 4.927548 -0.103556 1.346210 0
M  V30 44 H 5.212479 1.427628 2.169547 0
M  V30 45 H 2.689398 -0.173933 0.298687 0
M  V30 46 H -0.126626 -0.563374 0.322891 0
M  V30 47 H -1.984008 4.127754 -1.332900 0
M  V30 48 H -3.941662 2.698929 -2.938682 0
M  V30 49 H -4.791029 0.543769 -3.607594 0
M  V30 50 H -2.571174 -3.163334 -1.686836 0
M  V30 51 H -4.608556 -4.400221 -3.370722 0
M  V30 52 H -5.274484 -4.996285 -1.261536 0
M  V30 53 H -3.686530 -4.621075 -0.523373 0
M  V30 54 H -3.875052 -6.201814 -1.387396 0
M  V30 55 H -3.860982 -6.130872 -4.835651 0
M  V30 56 H -1.923054 -7.395033 -5.825588 0
M  V30 57 H 0.312473 -7.218865 -4.860046 0
M  V30 58 H 0.688148 -5.824840 -2.938720 0
M  V30 59 H -1.116524 -4.585967 -1.937412 0
M  V30 60 H -1.844500 -1.346423 -1.117160 0
M  V30 61 H -0.208856 1.801876 4.220982 0
M  V30 62 H -0.928506 2.103915 2.562020 0
M  V30 63 H 0.190296 3.316627 3.232534 0
M  V30 END ATOM
M  V30 BEGIN BOND
M  V30 1 2 1 2
M  V30 2 1 2 3
M  V30 3 1 3 4
M  V30 4 1 4 5
M  V30 5 2 5 6
M  V30 6 1 5 7
M  V30 7 2 7 8
M  V30 8 1 8 9
M  V30 9 1 8 10
M  V30 10 1 10 11
M  V30 11 1 11 12
M  V30 12 2 12 13
M  V30 13 1 13 14
M  V30 14 2 14 15
M  V30 15 1 14 16
M  V30 16 1 16 17
M  V30 17 2 17 18
M  V30 18 1 18 19
M  V30 19 2 19 20
M  V30 20 1 20 21
M  V30 21 2 21 22
M  V30 22 1 21 23
M  V30 23 1 23 24
M  V30 24 1 24 25
M  V30 25 1 24 26
M  V30 26 2 26 27
M  V30 27 1 27 28
M  V30 28 2 28 29
M  V30 29 1 29 30
M  V30 30 2 30 31
M  V30 31 1 20 32
M  V30 32 2 32 33
M  V30 33 2 11 34
M  V30 34 1 34 35
M  V30 35 1 34 7
M  V30 36 1 33 13
M  V30 37 1 33 17
M  V30 38 1 31 26
M  V30 39 1 1 36
M  V30 40 1 1 37
M  V30 41 1 2 38
M  V30 42 1 3 39
M  V30 43 1 3 40
M  V30 44 1 4 41
M  V30 45 1 9 42
M  V30 46 1 9 43
M  V30 47 1 9 44
M  V30 48 1 10 45
M  V30 49 1 12 46
M  V30 50 1 16 47
M  V30 51 1 18 48
M  V30 52 1 19 49
M  V30 53 1 23 50
M  V30 54 1 24 51 CFG=3
M  V30 55 1 25 52
M  V30 56 1 25 53
M  V30 57 1 25 54
M  V30 58 1 27 55
M  V30 59 1 28 56
M  V30 60 1 29 57
M  V30 61 1 30 58
M  V30 62 1 31 59
M  V30 63 1 32 60
M  V30 64 1 35 61
M  V30 65 1 35 62
M  V30 66 1 35 63
M  V30 END BOND
M  V30 END CTAB
M  END
>  <Dataset>  (557) 
ChEMBL_Kinases

>  <Ligand_Instance>  (557) 
nan

>  <PDB_ID>  (557) 
nan

>  <Standardized_SMILES>  (557) 
C=CCNC(=O)c1c(C)[nH]c(/C=C2\C(=O)Nc3ccc(C(=O)N[C@H](C)c4ccccc4)cc32)c1C

>  <Name>  (557) 
nan

>  <Pocket>  (557) 
nan

>  <ATP_Site>  (557) 
nan

>  <Peripheral>  (557) 
nan

>  <Num_H_Atoms_ProtBoundConf>  (557) 
nan

>  <Num_Resolved_Atoms>  (557) 
nan

>  <Num_Not_Resolved_Atoms>  (557) 
nan

$$$$
CHEMBL4781760
     RDKit          3D

  0  0  0  0  0  0  0  0  0  0999 V3000
M  V30 BEGIN CTAB
M  V30 COUNTS 58 62 0 0 0
M  V30 BEGIN ATOM
M  V30 1 N 7.048694 -2.898675 4.398402 0
M  V30 2 S 6.144471 -3.229470 2.995500 0
M  V30 3 O 5.275231 -4.430576 3.237183 0
M  V30 4 O 7.037440 -3.538775 1.826012 0
M  V30 5 C 5.133179 -1.858143 2.570260 0
M  V30 6 C 3.844605 -1.678542 3.031056 0
M  V30 7 C 3.101107 -0.576121 2.657412 0
M  V30 8 C 3.621372 0.383460 1.810529 0
M  V30 9 C 2.920652 1.584522 1.354271 0
M  V30 10 C 3.693247 2.717512 1.096308 0
M  V30 11 N 3.031354 3.827935 0.673097 0
M  V30 12 C 1.695546 3.790998 0.523847 0
M  V30 13 N 0.819998 4.731905 0.146542 0
M  V30 14 N -0.436859 4.256214 0.152550 0
M  V30 15 C -0.430160 2.982750 0.533966 0
M  V30 16 C -1.620914 2.207726 0.673523 0
M  V30 17 O -2.641139 2.958042 0.905873 0
M  V30 18 C -2.014457 0.824172 0.629513 0
M  V30 19 C -3.146311 0.442649 1.317723 0
M  V30 20 F -3.891980 1.299491 2.062107 0
M  V30 21 C -3.583546 -0.880149 1.274946 0
M  V30 22 C -2.904640 -1.833638 0.551256 0
M  V30 23 C -1.773346 -1.453070 -0.138557 0
M  V30 24 N -1.119951 -2.489605 -0.854120 0
M  V30 25 S -1.781241 -3.966729 -1.431246 0
M  V30 26 O -0.691878 -4.745562 -2.109565 0
M  V30 27 O -2.272995 -4.838365 -0.311703 0
M  V30 28 N -3.017623 -3.608699 -2.560423 0
M  V30 29 C -4.248561 -2.938173 -2.539076 0
M  V30 30 C -5.212685 -3.171476 -1.551340 0
M  V30 31 C -6.434707 -2.577109 -1.449807 0
M  V30 32 C -6.733501 -1.667931 -2.412519 0
M  V30 33 C -5.864915 -1.370720 -3.415154 0
M  V30 34 C -4.635472 -1.987580 -3.492879 0
M  V30 35 C -1.372260 -0.158015 -0.078291 0
M  V30 36 F -0.289595 0.084967 -0.824807 0
M  V30 37 C 0.896155 2.690827 0.767354 0
M  V30 38 C 1.550139 1.570228 1.193769 0
M  V30 39 C 4.913309 0.168850 1.370660 0
M  V30 40 C 5.685586 -0.920116 1.722811 0
M  V30 41 H 6.754545 -3.517459 5.181093 0
M  V30 42 H 6.829081 -1.922656 4.725501 0
M  V30 43 H 3.431621 -2.424981 3.693530 0
M  V30 44 H 2.090813 -0.420509 3.009307 0
M  V30 45 H 4.763040 2.768231 1.209074 0
M  V30 46 H 0.987426 5.725993 -0.133427 0
M  V30 47 H -4.490152 -1.165851 1.831771 0
M  V30 48 H -3.301058 -2.827915 0.573869 0
M  V30 49 H -0.093612 -2.259932 -1.020137 0
M  V30 50 H -2.899812 -3.950772 -3.563405 0
M  V30 51 H -4.916884 -3.907548 -0.814799 0
M  V30 52 H -7.103646 -2.833995 -0.641528 0
M  V30 53 H -7.677717 -1.142142 -2.419992 0
M  V30 54 H -6.070057 -0.645071 -4.207426 0
M  V30 55 H -3.901724 -1.783097 -4.279902 0
M  V30 56 H 0.964503 0.689270 1.408635 0
M  V30 57 H 5.389233 0.894150 0.693594 0
M  V30 58 H 6.695663 -1.018576 1.334524 0
M  V30 END ATOM
M  V30 BEGIN BOND
M  V30 1 1 1 2
M  V30 2 2 2 3
M  V30 3 2 2 4
M  V30 4 1 2 5
M  V30 5 2 5 6
M  V30 6 1 6 7
M  V30 7 2 7 8
M  V30 8 1 8 9
M  V30 9 2 9 10
M  V30 10 1 10 11
M  V30 11 2 11 12
M  V30 12 1 12 13
M  V30 13 1 13 14
M  V30 14 2 14 15
M  V30 15 1 15 16
M  V30 16 2 16 17
M  V30 17 1 16 18
M  V30 18 2 18 19
M  V30 19 1 19 20
M  V30 20 1 19 21
M  V30 21 2 21 22
M  V30 22 1 22 23
M  V30 23 1 23 24
M  V30 24 1 24 25
M  V30 25 2 25 26
M  V30 26 2 25 27
M  V30 27 1 25 28
M  V30 28 1 28 29
M  V30 29 2 29 30
M  V30 30 1 30 31
M  V30 31 2 31 32
M  V30 32 1 32 33
M  V30 33 2 33 34
M  V30 34 2 23 35
M  V30 35 1 35 36
M  V30 36 1 15 37
M  V30 37 2 37 38
M  V30 38 1 8 39
M  V30 39 2 39 40
M  V30 40 1 40 5
M  V30 41 1 38 9
M  V30 42 1 37 12
M  V30 43 1 35 18
M  V30 44 1 34 29
M  V30 45 1 1 41
M  V30 46 1 1 42
M  V30 47 1 6 43
M  V30 48 1 7 44
M  V30 49 1 10 45
M  V30 50 1 13 46
M  V30 51 1 21 47
M  V30 52 1 22 48
M  V30 53 1 24 49
M  V30 54 1 28 50
M  V30 55 1 30 51
M  V30 56 1 31 52
M  V30 57 1 32 53
M  V30 58 1 33 54
M  V30 59 1 34 55
M  V30 60 1 38 56
M  V30 61 1 39 57
M  V30 62 1 40 58
M  V30 END BOND
M  V30 END CTAB
M  END
>  <Dataset>  (558) 
ChEMBL_Kinases

>  <Ligand_Instance>  (558) 
nan

>  <PDB_ID>  (558) 
nan

>  <Standardized_SMILES>  (558) 
NS(=O)(=O)c1ccc(-c2cnc3[nH]nc(C(=O)c4c(F)ccc(NS(=O)(=O)Nc5ccccc5)c4F)c3c2)cc1

>  <Name>  (558) 
nan

>  <Pocket>  (558) 
nan

>  <ATP_Site>  (558) 
nan

>  <Peripheral>  (558) 
nan

>  <Num_H_Atoms_ProtBoundConf>  (558) 
nan

>  <Num_Resolved_Atoms>  (558) 
nan

>  <Num_Not_Resolved_Atoms>  (558) 
nan

$$$$
CHEMBL4781813
     RDKit          3D

  0  0  0  0  0  0  0  0  0  0999 V3000
M  V30 BEGIN CTAB
M  V30 COUNTS 57 60 0 0 0
M  V30 BEGIN ATOM
M  V30 1 C 0.453612 -0.845502 -2.148803 0
M  V30 2 N 1.565939 -1.336652 -2.898983 0
M  V30 3 C 2.392034 -2.298059 -2.258182 0
M  V30 4 C 3.243749 -1.773820 -1.131371 0
M  V30 5 C 3.888662 -0.458845 -1.515157 0
M  V30 6 C 4.672170 0.144343 -0.398065 0
M  V30 7 N 3.885045 0.415489 0.769612 0
M  V30 8 C 2.882001 1.377460 1.014346 0
M  V30 9 N 3.078925 2.579222 0.591930 0
M  V30 10 C 2.078095 3.496033 0.861513 0
M  V30 11 O 2.074227 4.722110 0.528138 0
M  V30 12 C 0.903891 3.012018 1.602885 0
M  V30 13 C -0.192062 3.582990 2.118814 0
M  V30 14 C -1.162262 2.694904 2.810861 0
M  V30 15 C -1.632083 2.983327 4.079343 0
M  V30 16 S -2.788958 1.521280 4.304410 0
M  V30 17 C -2.419619 0.848229 2.709838 0
M  V30 18 C -2.999506 -0.395253 2.115471 0
M  V30 19 C -2.605355 -0.804044 0.858906 0
M  V30 20 C -3.167553 -1.951712 0.335250 0
M  V30 21 C -4.112879 -2.678596 1.065091 0
M  V30 22 N -4.694951 -3.851888 0.538009 0
M  V30 23 S -4.952302 -5.337594 1.375020 0
M  V30 24 C -3.429721 -6.062589 1.931444 0
M  V30 25 O -5.915837 -5.075533 2.495181 0
M  V30 26 O -5.583271 -6.331013 0.435328 0
M  V30 27 C -4.485990 -2.231171 2.337037 0
M  V30 28 C -3.939199 -1.075546 2.899300 0
M  V30 29 N -1.577889 1.623801 2.159662 0
M  V30 30 S 1.277471 1.241940 1.795329 0
M  V30 31 C 2.954869 0.486862 -2.221467 0
M  V30 32 C 2.366639 -0.246000 -3.416684 0
M  V30 33 H 0.683689 -0.567293 -1.113268 0
M  V30 34 H -0.338437 -1.610969 -2.150410 0
M  V30 35 H -0.012980 0.058109 -2.628891 0
M  V30 36 H 3.054604 -2.731496 -3.052646 0
M  V30 37 H 1.756543 -3.130283 -1.871743 0
M  V30 38 H 4.096667 -2.511141 -1.054890 0
M  V30 39 H 2.743384 -1.773851 -0.163156 0
M  V30 40 H 4.659527 -0.741321 -2.299118 0
M  V30 41 H 5.572164 -0.456570 -0.122825 0
M  V30 42 H 5.044645 1.145576 -0.799524 0
M  V30 43 H 4.064455 -0.214604 1.607627 0
M  V30 44 H -0.217356 4.650387 1.954357 0
M  V30 45 H -1.364117 3.805557 4.673178 0
M  V30 46 H -1.862660 -0.215208 0.309384 0
M  V30 47 H -2.857039 -2.268461 -0.651962 0
M  V30 48 H -4.970865 -3.732676 -0.461936 0
M  V30 49 H -3.643365 -6.593541 2.882355 0
M  V30 50 H -2.643160 -5.286507 2.044989 0
M  V30 51 H -3.040790 -6.827795 1.234336 0
M  V30 52 H -5.212880 -2.735464 2.964226 0
M  V30 53 H -4.192673 -0.696658 3.862658 0
M  V30 54 H 2.159134 0.909199 -1.580631 0
M  V30 55 H 3.565410 1.323926 -2.636609 0
M  V30 56 H 3.218087 -0.702704 -3.976124 0
M  V30 57 H 1.742136 0.413846 -4.022296 0
M  V30 END ATOM
M  V30 BEGIN BOND
M  V30 1 1 1 2
M  V30 2 1 2 3
M  V30 3 1 3 4
M  V30 4 1 4 5
M  V30 5 1 5 6
M  V30 6 1 6 7
M  V30 7 1 7 8
M  V30 8 2 8 9
M  V30 9 1 9 10
M  V30 10 2 10 11
M  V30 11 1 10 12
M  V30 12 2 12 13
M  V30 13 1 13 14
M  V30 14 2 14 15
M  V30 15 1 15 16
M  V30 16 1 16 17
M  V30 17 1 17 18
M  V30 18 2 18 19
M  V30 19 1 19 20
M  V30 20 2 20 21
M  V30 21 1 21 22
M  V30 22 1 22 23
M  V30 23 1 23 24
M  V30 24 2 23 25
M  V30 25 2 23 26
M  V30 26 1 21 27
M  V30 27 2 27 28
M  V30 28 2 17 29
M  V30 29 1 12 30
M  V30 30 1 5 31
M  V30 31 1 31 32
M  V30 32 1 32 2
M  V30 33 1 30 8
M  V30 34 1 29 14
M  V30 35 1 28 18
M  V30 36 1 1 33
M  V30 37 1 1 34
M  V30 38 1 1 35
M  V30 39 1 3 36
M  V30 40 1 3 37
M  V30 41 1 4 38
M  V30 42 1 4 39
M  V30 43 1 5 40
M  V30 44 1 6 41
M  V30 45 1 6 42
M  V30 46 1 7 43
M  V30 47 1 13 44
M  V30 48 1 15 45
M  V30 49 1 19 46
M  V30 50 1 20 47
M  V30 51 1 22 48
M  V30 52 1 24 49
M  V30 53 1 24 50
M  V30 54 1 24 51
M  V30 55 1 27 52
M  V30 56 1 28 53
M  V30 57 1 31 54
M  V30 58 1 31 55
M  V30 59 1 32 56
M  V30 60 1 32 57
M  V30 END BOND
M  V30 END CTAB
M  END
>  <Dataset>  (559) 
ChEMBL_Kinases

>  <Ligand_Instance>  (559) 
nan

>  <PDB_ID>  (559) 
nan

>  <Standardized_SMILES>  (559) 
CN1CCC(CNC2=NC(=O)/C(=C/c3csc(-c4ccc(NS(C)(=O)=O)cc4)n3)S2)CC1

>  <Name>  (559) 
nan

>  <Pocket>  (559) 
nan

>  <ATP_Site>  (559) 
nan

>  <Peripheral>  (559) 
nan

>  <Num_H_Atoms_ProtBoundConf>  (559) 
nan

>  <Num_Resolved_Atoms>  (559) 
nan

>  <Num_Not_Resolved_Atoms>  (559) 
nan

$$$$
CHEMBL4781930
     RDKit          3D

  0  0  0  0  0  0  0  0  0  0999 V3000
M  V30 BEGIN CTAB
M  V30 COUNTS 59 64 0 0 0
M  V30 BEGIN ATOM
M  V30 1 O 1.877132 -2.669613 5.408787 0
M  V30 2 C 1.252287 -2.267697 4.368419 0
M  V30 3 C 1.517655 -0.982838 3.797309 0
M  V30 4 C 2.780538 -0.608697 3.408266 0
M  V30 5 C 3.198730 0.560390 2.822230 0
M  V30 6 C 2.130758 1.449183 2.625319 0
M  V30 7 F 2.498883 2.641673 2.037846 0
M  V30 8 C 0.805956 1.146931 2.995177 0
M  V30 9 N -0.065271 2.216944 2.720327 0
M  V30 10 S -1.165517 3.186471 1.871791 0
M  V30 11 O -0.488042 3.692706 0.589225 0
M  V30 12 O -1.442276 4.453859 2.671587 0
M  V30 13 C -2.701449 2.432834 1.479900 0
M  V30 14 C -2.652508 1.241938 0.631271 0
M  V30 15 C -2.635065 1.507280 -0.743539 0
M  V30 16 C -2.631019 0.554191 -1.740285 0
M  V30 17 C -2.645307 -0.769538 -1.357150 0
M  V30 18 C -2.662125 -1.055608 -0.008948 0
M  V30 19 C -2.665544 -0.092527 0.974082 0
M  V30 20 C 0.519259 -0.063037 3.573929 0
M  V30 21 F -0.767942 -0.287532 3.907716 0
M  V30 22 C 0.341412 -3.297226 3.973364 0
M  V30 23 N -0.317812 -4.293517 4.570349 0
M  V30 24 N -0.979879 -5.016967 3.696038 0
M  V30 25 C -0.796051 -4.536670 2.444596 0
M  V30 26 N -1.233387 -4.929140 1.223698 0
M  V30 27 C -0.868568 -4.267606 0.086151 0
M  V30 28 C -0.035060 -3.175008 0.190766 0
M  V30 29 C 0.419014 -2.404515 -0.987838 0
M  V30 30 C 0.593365 -3.061637 -2.200725 0
M  V30 31 C 1.022518 -2.404185 -3.339197 0
M  V30 32 C 1.288377 -1.050500 -3.276119 0
M  V30 33 C 1.758138 -0.244404 -4.451617 0
M  V30 34 N 2.846095 0.624484 -4.074404 0
M  V30 35 N 3.858121 0.296121 -4.754579 0
M  V30 36 N 3.545233 -0.767017 -5.600828 0
M  V30 37 N 2.337749 -1.107018 -5.453120 0
M  V30 38 C 1.115519 -0.391597 -2.067548 0
M  V30 39 C 0.690137 -1.052857 -0.946869 0
M  V30 40 C 0.391746 -2.799405 1.445883 0
M  V30 41 C 0.048775 -3.437817 2.625451 0
M  V30 42 H 3.552414 -1.342643 3.589959 0
M  V30 43 H 4.210286 0.776800 2.546247 0
M  V30 44 H 0.103463 2.639004 3.693884 0
M  V30 45 H -3.251940 2.245362 2.440840 0
M  V30 46 H -3.328898 3.231852 0.972806 0
M  V30 47 H -2.622820 2.532122 -1.138198 0
M  V30 48 H -2.617656 0.786015 -2.779137 0
M  V30 49 H -2.644455 -1.616617 -2.030115 0
M  V30 50 H -2.679511 -2.051801 0.451670 0
M  V30 51 H -2.681577 -0.260162 2.040967 0
M  V30 52 H -1.589850 -5.867616 3.874886 0
M  V30 53 H -1.211582 -4.571482 -0.898090 0
M  V30 54 H 0.388012 -4.125906 -2.264700 0
M  V30 55 H 1.163753 -2.899874 -4.292064 0
M  V30 56 H 0.896685 0.339961 -4.882262 0
M  V30 57 H 1.308373 0.683674 -1.946301 0
M  V30 58 H 0.555199 -0.527571 0.005613 0
M  V30 59 H 1.034400 -1.956889 1.486830 0
M  V30 END ATOM
M  V30 BEGIN BOND
M  V30 1 2 1 2
M  V30 2 1 2 3
M  V30 3 2 3 4
M  V30 4 1 4 5
M  V30 5 2 5 6
M  V30 6 1 6 7
M  V30 7 1 6 8
M  V30 8 1 8 9
M  V30 9 1 9 10
M  V30 10 2 10 11
M  V30 11 2 10 12
M  V30 12 1 10 13
M  V30 13 1 13 14
M  V30 14 2 14 15
M  V30 15 1 15 16
M  V30 16 2 16 17
M  V30 17 1 17 18
M  V30 18 2 18 19
M  V30 19 2 8 20
M  V30 20 1 20 21
M  V30 21 1 2 22
M  V30 22 2 22 23
M  V30 23 1 23 24
M  V30 24 1 24 25
M  V30 25 2 25 26
M  V30 26 1 26 27
M  V30 27 2 27 28
M  V30 28 1 28 29
M  V30 29 2 29 30
M  V30 30 1 30 31
M  V30 31 2 31 32
M  V30 32 1 32 33
M  V30 33 1 33 34
M  V30 34 2 34 35
M  V30 35 1 35 36
M  V30 36 2 36 37
M  V30 37 1 32 38
M  V30 38 2 38 39
M  V30 39 1 28 40
M  V30 40 2 40 41
M  V30 41 1 20 3
M  V30 42 1 41 22
M  V30 43 1 19 14
M  V30 44 1 41 25
M  V30 45 1 39 29
M  V30 46 1 37 33
M  V30 47 1 4 42
M  V30 48 1 5 43
M  V30 49 1 9 44
M  V30 50 1 13 45
M  V30 51 1 13 46
M  V30 52 1 15 47
M  V30 53 1 16 48
M  V30 54 1 17 49
M  V30 55 1 18 50
M  V30 56 1 19 51
M  V30 57 1 24 52
M  V30 58 1 27 53
M  V30 59 1 30 54
M  V30 60 1 31 55
M  V30 61 1 33 56
M  V30 62 1 38 57
M  V30 63 1 39 58
M  V30 64 1 40 59
M  V30 END BOND
M  V30 END CTAB
M  END
>  <Dataset>  (560) 
ChEMBL_Kinases

>  <Ligand_Instance>  (560) 
nan

>  <PDB_ID>  (560) 
nan

>  <Standardized_SMILES>  (560) 
O=C(c1ccc(F)c(NS(=O)(=O)Cc2ccccc2)c1F)c1n[nH]c2ncc(-c3ccc(C4N=NN=N4)cc3)cc12

>  <Name>  (560) 
nan

>  <Pocket>  (560) 
nan

>  <ATP_Site>  (560) 
nan

>  <Peripheral>  (560) 
nan

>  <Num_H_Atoms_ProtBoundConf>  (560) 
nan

>  <Num_Resolved_Atoms>  (560) 
nan

>  <Num_Not_Resolved_Atoms>  (560) 
nan

$$$$
CHEMBL4781949
     RDKit          3D

  0  0  0  0  0  0  0  0  0  0999 V3000
M  V30 BEGIN CTAB
M  V30 COUNTS 36 38 0 0 0
M  V30 BEGIN ATOM
M  V30 1 C 0.774225 -6.697939 2.497749 0
M  V30 2 O 0.451954 -5.516626 1.821144 0
M  V30 3 C 0.942524 -4.285241 2.234994 0
M  V30 4 C 1.756907 -4.315152 3.343854 0
M  V30 5 C 2.282538 -3.143762 3.817371 0
M  V30 6 C 1.960992 -1.971907 3.143617 0
M  V30 7 C 1.153781 -1.879233 2.031706 0
M  V30 8 C 0.831760 -0.639653 1.343559 0
M  V30 9 O 1.411104 0.265566 1.943864 0
M  V30 10 C -0.035563 -0.693865 0.180251 0
M  V30 11 C -0.422006 0.310270 -0.547201 0
M  V30 12 N 0.018300 1.613087 -0.216005 0
M  V30 13 C -0.313160 2.807273 -0.907617 0
M  V30 14 C 0.138025 4.052217 -0.549905 0
M  V30 15 C -0.238323 5.156738 -1.284039 0
M  V30 16 C -1.064092 5.040518 -2.378421 0
M  V30 17 C -1.551562 3.797541 -2.785660 0
M  V30 18 C -1.151267 2.717412 -2.024062 0
M  V30 19 N -1.648488 1.427934 -2.435030 0
M  V30 20 C -1.289976 0.238058 -1.707670 0
M  V30 21 O -1.716143 -0.904005 -2.052414 0
M  V30 22 C 0.662072 -3.092931 1.612725 0
M  V30 23 H 0.415121 -7.586705 1.964247 0
M  V30 24 H 1.883729 -6.776979 2.532471 0
M  V30 25 H 0.384230 -6.737276 3.531695 0
M  V30 26 H 1.998842 -5.230829 3.857747 0
M  V30 27 H 2.924091 -3.140641 4.685479 0
M  V30 28 H 2.405690 -1.082421 3.564876 0
M  V30 29 H -0.450741 -1.608756 -0.195824 0
M  V30 30 H 0.641638 1.784640 0.593051 0
M  V30 31 H 0.781994 4.154546 0.301156 0
M  V30 32 H 0.117922 6.157963 -1.005305 0
M  V30 33 H -1.379617 5.883546 -2.977022 0
M  V30 34 H -2.200067 3.664500 -3.636621 0
M  V30 35 H -2.276758 1.346387 -3.269067 0
M  V30 36 H 0.013992 -3.241146 0.765293 0
M  V30 END ATOM
M  V30 BEGIN BOND
M  V30 1 1 1 2
M  V30 2 1 2 3
M  V30 3 2 3 4
M  V30 4 1 4 5
M  V30 5 2 5 6
M  V30 6 1 6 7
M  V30 7 1 7 8
M  V30 8 2 8 9
M  V30 9 1 8 10
M  V30 10 2 10 11
M  V30 11 1 11 12
M  V30 12 1 12 13
M  V30 13 2 13 14
M  V30 14 1 14 15
M  V30 15 2 15 16
M  V30 16 1 16 17
M  V30 17 2 17 18
M  V30 18 1 18 19
M  V30 19 1 19 20
M  V30 20 2 20 21
M  V30 21 2 7 22
M  V30 22 1 22 3
M  V30 23 1 20 11
M  V30 24 1 18 13
M  V30 25 1 1 23
M  V30 26 1 1 24
M  V30 27 1 1 25
M  V30 28 1 4 26
M  V30 29 1 5 27
M  V30 30 1 6 28
M  V30 31 1 10 29
M  V30 32 1 12 30
M  V30 33 1 14 31
M  V30 34 1 15 32
M  V30 35 1 16 33
M  V30 36 1 17 34
M  V30 37 1 19 35
M  V30 38 1 22 36
M  V30 END BOND
M  V30 END CTAB
M  END
>  <Dataset>  (561) 
ChEMBL_Kinases

>  <Ligand_Instance>  (561) 
nan

>  <PDB_ID>  (561) 
nan

>  <Standardized_SMILES>  (561) 
COc1cccc(C(=O)/C=C2\Nc3ccccc3NC2=O)c1

>  <Name>  (561) 
nan

>  <Pocket>  (561) 
nan

>  <ATP_Site>  (561) 
nan

>  <Peripheral>  (561) 
nan

>  <Num_H_Atoms_ProtBoundConf>  (561) 
nan

>  <Num_Resolved_Atoms>  (561) 
nan

>  <Num_Not_Resolved_Atoms>  (561) 
nan

$$$$
CHEMBL4782014
     RDKit          3D

  0  0  0  0  0  0  0  0  0  0999 V3000
M  V30 BEGIN CTAB
M  V30 COUNTS 61 64 0 0 0
M  V30 BEGIN ATOM
M  V30 1 C 5.737872 -3.747523 6.201654 0
M  V30 2 C 5.842673 -2.673578 5.687764 0
M  V30 3 C 5.958049 -1.351911 5.032561 0
M  V30 4 N 4.754396 -1.064144 4.282850 0
M  V30 5 C 4.653791 0.152921 3.579507 0
M  V30 6 O 5.722007 0.816545 3.751598 0
M  V30 7 C 3.574945 0.672138 2.767222 0
M  V30 8 C 3.696044 1.911093 2.177656 0
M  V30 9 C 4.842300 2.890113 2.238075 0
M  V30 10 N 2.587019 2.156626 1.492721 0
M  V30 11 C 1.686853 1.163208 1.563801 0
M  V30 12 C 0.348109 0.896050 1.063890 0
M  V30 13 C -0.741224 1.638321 1.080349 0
M  V30 14 C -0.779456 2.971329 1.662675 0
M  V30 15 O 0.154063 3.565282 2.212887 0
M  V30 16 N -2.110114 3.423843 1.459391 0
M  V30 17 C -2.837689 2.405371 0.784984 0
M  V30 18 C -4.144324 2.304932 0.341984 0
M  V30 19 C -4.649624 1.185859 -0.311140 0
M  V30 20 C -3.816466 0.109725 -0.537121 0
M  V30 21 C -4.355429 -1.057913 -1.225557 0
M  V30 22 O -5.552170 -1.084078 -1.612570 0
M  V30 23 N -3.572022 -2.212611 -1.493983 0
M  V30 24 C -3.905364 -3.436058 -2.144592 0 CFG=2
M  V30 25 C -3.894405 -4.638745 -1.236931 0
M  V30 26 C -3.128038 -3.666733 -3.388549 0
M  V30 27 C -2.529882 -4.862481 -3.728316 0
M  V30 28 C -1.814130 -5.003283 -4.919207 0
M  V30 29 C -1.702725 -3.909413 -5.782685 0
M  V30 30 C -2.302847 -2.691064 -5.452952 0
M  V30 31 C -2.992962 -2.613830 -4.269413 0
M  V30 32 C -2.516557 0.170669 -0.113529 0
M  V30 33 C -2.052022 1.299161 0.531293 0
M  V30 34 C 2.341033 0.228636 2.381724 0
M  V30 35 C 1.802843 -1.100695 2.809743 0
M  V30 36 H 5.649303 -4.696261 6.636131 0
M  V30 37 H 6.209466 -0.594119 5.791426 0
M  V30 38 H 6.770353 -1.445025 4.255999 0
M  V30 39 H 3.948105 -1.711660 4.232644 0
M  V30 40 H 4.687092 3.733589 1.568494 0
M  V30 41 H 5.062479 3.158369 3.271288 0
M  V30 42 H 5.734137 2.290085 1.889882 0
M  V30 43 H 2.397540 3.009138 0.932503 0
M  V30 44 H 0.221134 -0.093858 0.589750 0
M  V30 45 H -2.439577 4.354564 1.773648 0
M  V30 46 H -4.827229 3.131894 0.502515 0
M  V30 47 H -5.689591 1.175100 -0.633268 0
M  V30 48 H -2.570461 -2.270656 -1.204247 0
M  V30 49 H -4.981065 -3.363683 -2.464437 0
M  V30 50 H -2.918940 -4.857254 -0.778441 0
M  V30 51 H -4.286394 -5.509814 -1.802218 0
M  V30 52 H -4.612948 -4.496041 -0.403162 0
M  V30 53 H -2.657501 -5.656267 -3.017411 0
M  V30 54 H -1.364068 -5.965531 -5.136644 0
M  V30 55 H -1.118790 -4.133427 -6.686707 0
M  V30 56 H -2.154030 -1.926345 -6.183210 0
M  V30 57 H -3.423770 -1.636288 -4.095965 0
M  V30 58 H -1.824247 -0.635152 -0.261999 0
M  V30 59 H 0.773573 -1.249310 2.393768 0
M  V30 60 H 2.406471 -1.939577 2.468582 0
M  V30 61 H 1.676597 -1.180849 3.908724 0
M  V30 END ATOM
M  V30 BEGIN BOND
M  V30 1 3 1 2
M  V30 2 1 2 3
M  V30 3 1 3 4
M  V30 4 1 4 5
M  V30 5 2 5 6
M  V30 6 1 5 7
M  V30 7 2 7 8
M  V30 8 1 8 9
M  V30 9 1 8 10
M  V30 10 1 10 11
M  V30 11 1 11 12
M  V30 12 2 12 13
M  V30 13 1 13 14
M  V30 14 2 14 15
M  V30 15 1 14 16
M  V30 16 1 16 17
M  V30 17 2 17 18
M  V30 18 1 18 19
M  V30 19 2 19 20
M  V30 20 1 20 21
M  V30 21 2 21 22
M  V30 22 1 21 23
M  V30 23 1 23 24
M  V30 24 1 24 25
M  V30 25 1 24 26
M  V30 26 2 26 27
M  V30 27 1 27 28
M  V30 28 2 28 29
M  V30 29 1 29 30
M  V30 30 2 30 31
M  V30 31 1 20 32
M  V30 32 2 32 33
M  V30 33 2 11 34
M  V30 34 1 34 35
M  V30 35 1 34 7
M  V30 36 1 33 13
M  V30 37 1 33 17
M  V30 38 1 31 26
M  V30 39 1 1 36
M  V30 40 1 3 37
M  V30 41 1 3 38
M  V30 42 1 4 39
M  V30 43 1 9 40
M  V30 44 1 9 41
M  V30 45 1 9 42
M  V30 46 1 10 43
M  V30 47 1 12 44
M  V30 48 1 16 45
M  V30 49 1 18 46
M  V30 50 1 19 47
M  V30 51 1 23 48
M  V30 52 1 24 49 CFG=3
M  V30 53 1 25 50
M  V30 54 1 25 51
M  V30 55 1 25 52
M  V30 56 1 27 53
M  V30 57 1 28 54
M  V30 58 1 29 55
M  V30 59 1 30 56
M  V30 60 1 31 57
M  V30 61 1 32 58
M  V30 62 1 35 59
M  V30 63 1 35 60
M  V30 64 1 35 61
M  V30 END BOND
M  V30 END CTAB
M  END
>  <Dataset>  (562) 
ChEMBL_Kinases

>  <Ligand_Instance>  (562) 
nan

>  <PDB_ID>  (562) 
nan

>  <Standardized_SMILES>  (562) 
C#CCNC(=O)c1c(C)[nH]c(/C=C2\C(=O)Nc3ccc(C(=O)N[C@H](C)c4ccccc4)cc32)c1C

>  <Name>  (562) 
nan

>  <Pocket>  (562) 
nan

>  <ATP_Site>  (562) 
nan

>  <Peripheral>  (562) 
nan

>  <Num_H_Atoms_ProtBoundConf>  (562) 
nan

>  <Num_Resolved_Atoms>  (562) 
nan

>  <Num_Not_Resolved_Atoms>  (562) 
nan

$$$$
CHEMBL4782031
     RDKit          3D

  0  0  0  0  0  0  0  0  0  0999 V3000
M  V30 BEGIN CTAB
M  V30 COUNTS 50 54 0 0 0
M  V30 BEGIN ATOM
M  V30 1 O 2.267086 -0.187761 2.195545 0
M  V30 2 C 2.916909 0.702852 1.572372 0
M  V30 3 C 4.127499 1.345041 2.192414 0
M  V30 4 C 4.399054 0.805087 3.529397 0
M  V30 5 C 5.209027 -0.278340 3.687222 0
M  V30 6 C 5.512990 -0.844441 4.905815 0
M  V30 7 C 4.964010 -0.279240 6.027962 0
M  V30 8 C 4.125765 0.834047 5.922430 0
M  V30 9 C 3.841309 1.378224 4.677362 0
M  V30 10 N 2.523461 1.117841 0.278600 0
M  V30 11 C 1.349107 0.404657 -0.164877 0
M  V30 12 C 1.452931 -0.782215 -0.860604 0
M  V30 13 C 0.243917 -1.370736 -1.231455 0
M  V30 14 C -0.970221 -0.769627 -0.902932 0
M  V30 15 C -1.018466 0.419502 -0.204737 0
M  V30 16 C 0.160847 1.023913 0.174847 0
M  V30 17 O -2.107285 1.171930 0.215331 0
M  V30 18 C -3.440972 0.797461 0.259746 0
M  V30 19 N -4.163376 1.697416 0.984445 0
M  V30 20 C -5.494648 1.522150 1.154912 0
M  V30 21 C -6.129476 0.413323 0.584827 0
M  V30 22 C -5.395290 -0.503666 -0.153188 0
M  V30 23 C -4.037737 -0.303970 -0.313699 0
M  V30 24 C -3.431195 -1.374210 -1.122061 0
M  V30 25 O -4.254622 -2.189775 -1.614080 0
M  V30 26 N -2.030512 -1.578344 -1.400172 0
M  V30 27 C -1.758231 -2.691518 -2.242991 0
M  V30 28 C -1.531922 -3.963587 -1.708907 0
M  V30 29 C -1.271698 -5.013268 -2.564988 0
M  V30 30 N -1.232308 -4.829627 -3.913823 0
M  V30 31 C -1.449564 -3.606055 -4.434998 0
M  V30 32 C -1.716287 -2.515262 -3.610596 0
M  V30 33 H 3.806418 2.416636 2.348322 0
M  V30 34 H 4.967122 1.338563 1.492745 0
M  V30 35 H 5.650320 -0.733080 2.788164 0
M  V30 36 H 6.146681 -1.692425 5.031792 0
M  V30 37 H 5.098750 -0.594923 7.038678 0
M  V30 38 H 3.649451 1.341787 6.769935 0
M  V30 39 H 3.202785 2.234972 4.533583 0
M  V30 40 H 3.072343 1.860813 -0.231495 0
M  V30 41 H 2.422768 -1.166265 -1.066523 0
M  V30 42 H 0.283932 -2.296088 -1.774725 0
M  V30 43 H 0.113227 1.950094 0.718442 0
M  V30 44 H -6.114624 2.223081 1.731484 0
M  V30 45 H -7.198108 0.301995 0.740323 0
M  V30 46 H -5.870493 -1.364205 -0.599327 0
M  V30 47 H -1.563046 -4.110720 -0.635901 0
M  V30 48 H -1.092958 -6.014141 -2.156766 0
M  V30 49 H -1.436392 -3.376640 -5.484218 0
M  V30 50 H -1.896754 -1.512693 -3.994369 0
M  V30 END ATOM
M  V30 BEGIN BOND
M  V30 1 2 1 2
M  V30 2 1 2 3
M  V30 3 1 3 4
M  V30 4 2 4 5
M  V30 5 1 5 6
M  V30 6 2 6 7
M  V30 7 1 7 8
M  V30 8 2 8 9
M  V30 9 1 2 10
M  V30 10 1 10 11
M  V30 11 2 11 12
M  V30 12 1 12 13
M  V30 13 2 13 14
M  V30 14 1 14 15
M  V30 15 2 15 16
M  V30 16 1 15 17
M  V30 17 1 17 18
M  V30 18 2 18 19
M  V30 19 1 19 20
M  V30 20 2 20 21
M  V30 21 1 21 22
M  V30 22 2 22 23
M  V30 23 1 23 24
M  V30 24 2 24 25
M  V30 25 1 24 26
M  V30 26 1 26 27
M  V30 27 2 27 28
M  V30 28 1 28 29
M  V30 29 2 29 30
M  V30 30 1 30 31
M  V30 31 2 31 32
M  V30 32 1 9 4
M  V30 33 1 16 11
M  V30 34 1 23 18
M  V30 35 1 32 27
M  V30 36 1 26 14
M  V30 37 1 3 33
M  V30 38 1 3 34
M  V30 39 1 5 35
M  V30 40 1 6 36
M  V30 41 1 7 37
M  V30 42 1 8 38
M  V30 43 1 9 39
M  V30 44 1 10 40
M  V30 45 1 12 41
M  V30 46 1 13 42
M  V30 47 1 16 43
M  V30 48 1 20 44
M  V30 49 1 21 45
M  V30 50 1 22 46
M  V30 51 1 28 47
M  V30 52 1 29 48
M  V30 53 1 31 49
M  V30 54 1 32 50
M  V30 END BOND
M  V30 END CTAB
M  END
>  <Dataset>  (563) 
ChEMBL_Kinases

>  <Ligand_Instance>  (563) 
nan

>  <PDB_ID>  (563) 
nan

>  <Standardized_SMILES>  (563) 
O=C(Cc1ccccc1)Nc1ccc2c(c1)Oc1ncccc1C(=O)N2c1ccncc1

>  <Name>  (563) 
nan

>  <Pocket>  (563) 
nan

>  <ATP_Site>  (563) 
nan

>  <Peripheral>  (563) 
nan

>  <Num_H_Atoms_ProtBoundConf>  (563) 
nan

>  <Num_Resolved_Atoms>  (563) 
nan

>  <Num_Not_Resolved_Atoms>  (563) 
nan

$$$$
CHEMBL4782039
     RDKit          3D

  0  0  0  0  0  0  0  0  0  0999 V3000
M  V30 BEGIN CTAB
M  V30 COUNTS 65 69 0 0 0
M  V30 BEGIN ATOM
M  V30 1 C 4.392098 -0.347091 3.961025 0
M  V30 2 O 4.108150 -0.037279 2.612479 0
M  V30 3 C 2.824034 0.376435 2.291596 0
M  V30 4 C 1.856300 0.478328 3.278092 0
M  V30 5 C 0.582446 0.893602 2.932796 0
M  V30 6 C 0.248314 1.206159 1.651738 0
M  V30 7 C 1.188600 1.114911 0.647496 0
M  V30 8 C 1.059709 1.399365 -0.777864 0
M  V30 9 N 1.790605 2.359920 -1.404047 0
M  V30 10 C 1.481653 2.415078 -2.710414 0
M  V30 11 C 2.025820 3.295432 -3.739267 0
M  V30 12 C 1.557719 3.182894 -5.032492 0
M  V30 13 C 2.043951 3.993650 -6.036683 0
M  V30 14 C 3.010468 4.911288 -5.685334 0
M  V30 15 C 3.528853 5.081218 -4.406434 0
M  V30 16 C 2.994349 4.232917 -3.447376 0
M  V30 17 N 0.541775 1.477765 -2.919679 0
M  V30 18 C 0.259891 0.834539 -1.748738 0
M  V30 19 C -0.686158 -0.236113 -1.514172 0
M  V30 20 C -2.020303 0.000043 -1.769928 0
M  V30 21 C -2.850152 -1.071444 -1.520853 0
M  V30 22 N -2.476231 -2.272947 -1.068782 0
M  V30 23 C -1.182592 -2.512243 -0.817283 0
M  V30 24 N -0.688592 -3.750058 -0.337558 0
M  V30 25 C -1.413984 -4.946332 -0.018493 0
M  V30 26 C -2.408735 -4.819646 1.092902 0
M  V30 27 N -3.464634 -3.886035 0.866225 0
M  V30 28 S -4.533871 -3.848637 2.241789 0
M  V30 29 O -5.582853 -2.774931 2.003890 0
M  V30 30 O -5.253292 -5.129831 2.438960 0
M  V30 31 C -3.613866 -3.329104 3.622158 0
M  V30 32 C -3.455519 -1.976643 3.906143 0
M  V30 33 Cl -4.203274 -0.791340 2.826652 0
M  V30 34 C -2.745901 -1.497600 4.987620 0
M  V30 35 C -2.156976 -2.411970 5.840237 0
M  V30 36 C -2.305096 -3.763330 5.572086 0
M  V30 37 C -3.007352 -4.230681 4.502552 0
M  V30 38 Cl -3.169032 -5.965231 4.226682 0
M  V30 39 C -0.307680 -1.473804 -1.049306 0
M  V30 40 C 2.484859 0.696613 0.973376 0
M  V30 41 H 3.749966 -1.175323 4.310435 0
M  V30 42 H 4.136350 0.538043 4.606713 0
M  V30 43 H 5.432943 -0.687265 4.105293 0
M  V30 44 H 2.120572 0.230802 4.292888 0
M  V30 45 H -0.204333 0.984425 3.688683 0
M  V30 46 H -0.700727 1.531386 1.301963 0
M  V30 47 H 0.803509 2.458529 -5.277089 0
M  V30 48 H 1.721901 3.958604 -7.068437 0
M  V30 49 H 3.423181 5.576196 -6.459011 0
M  V30 50 H 4.286387 5.819409 -4.195314 0
M  V30 51 H 3.352261 4.310464 -2.429882 0
M  V30 52 H 0.060836 1.229523 -3.815635 0
M  V30 53 H -2.378892 0.950229 -2.135966 0
M  V30 54 H -3.919079 -0.938804 -1.706799 0
M  V30 55 H 0.368902 -3.799639 -0.193546 0
M  V30 56 H -1.888372 -5.352015 -0.947130 0
M  V30 57 H -0.698044 -5.743698 0.287138 0
M  V30 58 H -2.849480 -5.815072 1.250490 0
M  V30 59 H -1.850198 -4.504767 2.002908 0
M  V30 60 H -4.065165 -4.216842 0.051027 0
M  V30 61 H -2.665894 -0.430286 5.144534 0
M  V30 62 H -1.612771 -1.995959 6.671444 0
M  V30 63 H -1.827904 -4.423081 6.266024 0
M  V30 64 H 0.758392 -1.578776 -0.873207 0
M  V30 65 H 3.311094 0.588247 0.255475 0
M  V30 END ATOM
M  V30 BEGIN BOND
M  V30 1 1 1 2
M  V30 2 1 2 3
M  V30 3 2 3 4
M  V30 4 1 4 5
M  V30 5 2 5 6
M  V30 6 1 6 7
M  V30 7 1 7 8
M  V30 8 1 8 9
M  V30 9 2 9 10
M  V30 10 1 10 11
M  V30 11 2 11 12
M  V30 12 1 12 13
M  V30 13 2 13 14
M  V30 14 1 14 15
M  V30 15 2 15 16
M  V30 16 1 10 17
M  V30 17 1 17 18
M  V30 18 1 18 19
M  V30 19 2 19 20
M  V30 20 1 20 21
M  V30 21 2 21 22
M  V30 22 1 22 23
M  V30 23 1 23 24
M  V30 24 1 24 25
M  V30 25 1 25 26
M  V30 26 1 26 27
M  V30 27 1 27 28
M  V30 28 2 28 29
M  V30 29 2 28 30
M  V30 30 1 28 31
M  V30 31 2 31 32
M  V30 32 1 32 33
M  V30 33 1 32 34
M  V30 34 2 34 35
M  V30 35 1 35 36
M  V30 36 2 36 37
M  V30 37 1 37 38
M  V30 38 2 23 39
M  V30 39 2 7 40
M  V30 40 1 40 3
M  V30 41 2 18 8
M  V30 42 1 39 19
M  V30 43 1 16 11
M  V30 44 1 37 31
M  V30 45 1 1 41
M  V30 46 1 1 42
M  V30 47 1 1 43
M  V30 48 1 4 44
M  V30 49 1 5 45
M  V30 50 1 6 46
M  V30 51 1 12 47
M  V30 52 1 13 48
M  V30 53 1 14 49
M  V30 54 1 15 50
M  V30 55 1 16 51
M  V30 56 1 17 52
M  V30 57 1 20 53
M  V30 58 1 21 54
M  V30 59 1 24 55
M  V30 60 1 25 56
M  V30 61 1 25 57
M  V30 62 1 26 58
M  V30 63 1 26 59
M  V30 64 1 27 60
M  V30 65 1 34 61
M  V30 66 1 35 62
M  V30 67 1 36 63
M  V30 68 1 39 64
M  V30 69 1 40 65
M  V30 END BOND
M  V30 END CTAB
M  END
>  <Dataset>  (564) 
ChEMBL_Kinases

>  <Ligand_Instance>  (564) 
nan

>  <PDB_ID>  (564) 
nan

>  <Standardized_SMILES>  (564) 
COc1cccc(-c2nc(-c3ccccc3)[nH]c2-c2ccnc(NCCNS(=O)(=O)c3c(Cl)cccc3Cl)c2)c1

>  <Name>  (564) 
nan

>  <Pocket>  (564) 
nan

>  <ATP_Site>  (564) 
nan

>  <Peripheral>  (564) 
nan

>  <Num_H_Atoms_ProtBoundConf>  (564) 
nan

>  <Num_Resolved_Atoms>  (564) 
nan

>  <Num_Not_Resolved_Atoms>  (564) 
nan

$$$$
CHEMBL4782048
     RDKit          3D

  0  0  0  0  0  0  0  0  0  0999 V3000
M  V30 BEGIN CTAB
M  V30 COUNTS 49 53 0 0 0
M  V30 BEGIN ATOM
M  V30 1 O 4.359169 -1.903716 -0.109609 0
M  V30 2 C 4.428535 -0.906415 -0.871889 0
M  V30 3 N 5.694040 -0.722338 -1.480388 0
M  V30 4 C 6.781545 -1.640701 -1.208399 0
M  V30 5 C 7.088903 -1.632864 0.255074 0
M  V30 6 C 8.166453 -2.485892 0.819699 0
M  V30 7 C 6.709983 -2.821551 1.057500 0
M  V30 8 C 3.300039 -0.013254 -1.109945 0
M  V30 9 N 3.182252 1.083859 -1.876144 0
M  V30 10 N 1.962279 1.591996 -1.795656 0
M  V30 11 C 1.240805 0.822585 -0.957943 0
M  V30 12 C -0.069443 0.937150 -0.553076 0
M  V30 13 C -0.594662 0.016902 0.322726 0
M  V30 14 C -1.964153 -0.024872 0.865190 0
M  V30 15 C -2.239417 -0.253512 2.201033 0
M  V30 16 C -3.565551 -0.279128 2.643864 0
M  V30 17 C -4.614321 -0.077679 1.759155 0
M  V30 18 N -5.980307 -0.101468 2.200822 0
M  V30 19 C -6.668415 0.900093 2.740511 0
M  V30 20 C -7.984835 0.719938 3.116942 0
M  V30 21 C -8.605682 -0.501053 2.938939 0
M  V30 22 C -7.874728 -1.533893 2.375374 0
M  V30 23 C -6.544097 -1.329386 2.001892 0
M  V30 24 O -5.954562 -2.327776 1.495604 0
M  V30 25 C -4.334403 0.152951 0.411176 0
M  V30 26 C -3.021994 0.176828 -0.018865 0
M  V30 27 Cl -2.815852 0.474425 -1.723221 0
M  V30 28 C 0.202501 -1.030619 0.798510 0
M  V30 29 C 1.517547 -1.082403 0.345487 0
M  V30 30 C 2.063717 -0.183869 -0.522104 0
M  V30 31 H 5.801591 0.107088 -2.132972 0
M  V30 32 H 6.542293 -2.686668 -1.521049 0
M  V30 33 H 7.645334 -1.315259 -1.834691 0
M  V30 34 H 6.961622 -0.625647 0.726089 0
M  V30 35 H 8.684442 -2.116256 1.725707 0
M  V30 36 H 8.708625 -3.241233 0.228528 0
M  V30 37 H 6.269940 -2.611263 2.066669 0
M  V30 38 H 6.283534 -3.736606 0.597553 0
M  V30 39 H 1.591937 2.438756 -2.282625 0
M  V30 40 H -0.754211 1.704954 -0.864275 0
M  V30 41 H -1.420603 -0.410188 2.888381 0
M  V30 42 H -3.768367 -0.462098 3.708928 0
M  V30 43 H -6.130438 1.825764 2.853336 0
M  V30 44 H -8.534852 1.544479 3.555826 0
M  V30 45 H -9.650178 -0.644227 3.237539 0
M  V30 46 H -8.336197 -2.519240 2.218715 0
M  V30 47 H -5.192327 0.305129 -0.242285 0
M  V30 48 H -0.121678 -1.798494 1.486688 0
M  V30 49 H 2.147090 -1.890783 0.707280 0
M  V30 END ATOM
M  V30 BEGIN BOND
M  V30 1 2 1 2
M  V30 2 1 2 3
M  V30 3 1 3 4
M  V30 4 1 4 5
M  V30 5 1 5 6
M  V30 6 1 6 7
M  V30 7 1 2 8
M  V30 8 2 8 9
M  V30 9 1 9 10
M  V30 10 1 10 11
M  V30 11 2 11 12
M  V30 12 1 12 13
M  V30 13 1 13 14
M  V30 14 2 14 15
M  V30 15 1 15 16
M  V30 16 2 16 17
M  V30 17 1 17 18
M  V30 18 1 18 19
M  V30 19 2 19 20
M  V30 20 1 20 21
M  V30 21 2 21 22
M  V30 22 1 22 23
M  V30 23 2 23 24
M  V30 24 1 17 25
M  V30 25 2 25 26
M  V30 26 1 26 27
M  V30 27 2 13 28
M  V30 28 1 28 29
M  V30 29 2 29 30
M  V30 30 1 7 5
M  V30 31 1 30 8
M  V30 32 1 30 11
M  V30 33 1 26 14
M  V30 34 1 23 18
M  V30 35 1 3 31
M  V30 36 1 4 32
M  V30 37 1 4 33
M  V30 38 1 5 34
M  V30 39 1 6 35
M  V30 40 1 6 36
M  V30 41 1 7 37
M  V30 42 1 7 38
M  V30 43 1 10 39
M  V30 44 1 12 40
M  V30 45 1 15 41
M  V30 46 1 16 42
M  V30 47 1 19 43
M  V30 48 1 20 44
M  V30 49 1 21 45
M  V30 50 1 22 46
M  V30 51 1 25 47
M  V30 52 1 28 48
M  V30 53 1 29 49
M  V30 END BOND
M  V30 END CTAB
M  END
>  <Dataset>  (565) 
ChEMBL_Kinases

>  <Ligand_Instance>  (565) 
nan

>  <PDB_ID>  (565) 
nan

>  <Standardized_SMILES>  (565) 
O=C(NCC1CC1)c1n[nH]c2cc(-c3ccc(-n4ccccc4=O)cc3Cl)ccc12

>  <Name>  (565) 
nan

>  <Pocket>  (565) 
nan

>  <ATP_Site>  (565) 
nan

>  <Peripheral>  (565) 
nan

>  <Num_H_Atoms_ProtBoundConf>  (565) 
nan

>  <Num_Resolved_Atoms>  (565) 
nan

>  <Num_Not_Resolved_Atoms>  (565) 
nan

$$$$
CHEMBL4782076
     RDKit          3D

  0  0  0  0  0  0  0  0  0  0999 V3000
M  V30 BEGIN CTAB
M  V30 COUNTS 32 34 0 0 0
M  V30 BEGIN ATOM
M  V30 1 O 2.512562 -0.203381 4.061231 0
M  V30 2 C 2.121254 -0.941212 3.126384 0
M  V30 3 N 2.437276 -2.290612 2.814965 0
M  V30 4 C 1.870743 -2.945733 1.688293 0
M  V30 5 C 2.250760 -4.259110 1.484563 0
M  V30 6 C 1.707190 -4.914580 0.388831 0
M  V30 7 C 0.814415 -4.297003 -0.483472 0
M  V30 8 C 0.469175 -2.980961 -0.231134 0
M  V30 9 C 0.980219 -2.280417 0.845174 0
M  V30 10 N 0.657923 -0.931768 1.146456 0
M  V30 11 C 1.193757 -0.229842 2.259582 0
M  V30 12 C 0.801484 1.029923 2.317456 0
M  V30 13 C -0.104104 1.823696 1.530575 0
M  V30 14 O -0.109170 3.029411 1.919520 0
M  V30 15 C -1.057877 1.899558 0.453835 0
M  V30 16 C -0.859286 2.772153 -0.626960 0
M  V30 17 C -1.672857 2.862494 -1.734077 0
M  V30 18 C -2.734139 1.995652 -1.689968 0
M  V30 19 C -3.066472 1.094704 -0.723143 0
M  V30 20 Cl -4.461188 0.042914 -0.796351 0
M  V30 21 C -2.190107 1.086959 0.334820 0
M  V30 22 Cl -2.581577 -0.027963 1.653622 0
M  V30 23 H 3.112643 -2.715179 3.497327 0
M  V30 24 H 2.932295 -4.747725 2.141075 0
M  V30 25 H 1.998131 -5.947471 0.217875 0
M  V30 26 H 0.413665 -4.831938 -1.319599 0
M  V30 27 H -0.218812 -2.441727 -0.868690 0
M  V30 28 H 0.023629 -0.504745 0.465251 0
M  V30 29 H 1.311805 1.509921 3.168238 0
M  V30 30 H 0.021254 3.407940 -0.536468 0
M  V30 31 H -1.476383 3.549128 -2.537508 0
M  V30 32 H -3.400322 2.042617 -2.560331 0
M  V30 END ATOM
M  V30 BEGIN BOND
M  V30 1 2 1 2
M  V30 2 1 2 3
M  V30 3 1 3 4
M  V30 4 2 4 5
M  V30 5 1 5 6
M  V30 6 2 6 7
M  V30 7 1 7 8
M  V30 8 2 8 9
M  V30 9 1 9 10
M  V30 10 1 10 11
M  V30 11 2 11 12
M  V30 12 1 12 13
M  V30 13 2 13 14
M  V30 14 1 13 15
M  V30 15 2 15 16
M  V30 16 1 16 17
M  V30 17 2 17 18
M  V30 18 1 18 19
M  V30 19 1 19 20
M  V30 20 2 19 21
M  V30 21 1 21 22
M  V30 22 1 11 2
M  V30 23 1 21 15
M  V30 24 1 9 4
M  V30 25 1 3 23
M  V30 26 1 5 24
M  V30 27 1 6 25
M  V30 28 1 7 26
M  V30 29 1 8 27
M  V30 30 1 10 28
M  V30 31 1 12 29
M  V30 32 1 16 30
M  V30 33 1 17 31
M  V30 34 1 18 32
M  V30 END BOND
M  V30 END CTAB
M  END
>  <Dataset>  (566) 
ChEMBL_Kinases

>  <Ligand_Instance>  (566) 
nan

>  <PDB_ID>  (566) 
nan

>  <Standardized_SMILES>  (566) 
O=C1Nc2ccccc2N/C1=C\C(=O)c1cccc(Cl)c1Cl

>  <Name>  (566) 
nan

>  <Pocket>  (566) 
nan

>  <ATP_Site>  (566) 
nan

>  <Peripheral>  (566) 
nan

>  <Num_H_Atoms_ProtBoundConf>  (566) 
nan

>  <Num_Resolved_Atoms>  (566) 
nan

>  <Num_Not_Resolved_Atoms>  (566) 
nan

$$$$
CHEMBL4782250
     RDKit          3D

  0  0  0  0  0  0  0  0  0  0999 V3000
M  V30 BEGIN CTAB
M  V30 COUNTS 41 44 0 0 0
M  V30 BEGIN ATOM
M  V30 1 O 1.740696 -1.408370 1.521814 0
M  V30 2 C 1.436203 -0.201698 1.466933 0
M  V30 3 C 1.678845 0.558298 0.352638 0
M  V30 4 C 2.277310 -0.003680 -0.756437 0
M  V30 5 C 2.514618 0.793170 -1.881589 0
M  V30 6 C 3.147230 0.229616 -3.073988 0
M  V30 7 C 4.085646 -0.768747 -3.249473 0
M  V30 8 N 4.353871 -0.925520 -4.559585 0
M  V30 9 N 3.620202 -0.058190 -5.274254 0
M  V30 10 C 2.881928 0.649056 -4.370033 0
M  V30 11 C 2.156862 2.137779 -1.896751 0
M  V30 12 C 1.554517 2.723166 -0.793878 0
M  V30 13 C 1.343528 1.893393 0.288156 0
M  V30 14 N 0.762146 2.404647 1.389300 0
M  V30 15 C 0.528541 1.637234 2.486317 0
M  V30 16 N 0.856163 0.313588 2.562301 0
M  V30 17 C 0.547762 -0.390897 3.800819 0
M  V30 18 C -0.816702 -0.975228 3.732422 0
M  V30 19 C -1.841281 -0.158160 4.162963 0
M  V30 20 C -3.134668 -0.678486 4.112191 0
M  V30 21 C -3.397330 -1.940607 3.658987 0
M  V30 22 C -2.382758 -2.767433 3.225858 0
M  V30 23 O -2.372623 -4.049586 2.733625 0
M  V30 24 C -3.542862 -4.816825 2.573046 0
M  V30 25 F -3.475271 -5.997918 3.322551 0
M  V30 26 F -3.671258 -5.224608 1.239839 0
M  V30 27 C -1.073599 -2.270326 3.265924 0
M  V30 28 H 2.557286 -1.046975 -0.750455 0
M  V30 29 H 4.508457 -1.312958 -2.401996 0
M  V30 30 H 3.595848 0.073434 -6.309503 0
M  V30 31 H 2.190450 1.429973 -4.686102 0
M  V30 32 H 2.353640 2.737670 -2.789314 0
M  V30 33 H 1.265560 3.768984 -0.779544 0
M  V30 34 H 0.057081 2.172801 3.297494 0
M  V30 35 H 0.612958 0.345799 4.616310 0
M  V30 36 H 1.295136 -1.217613 3.927334 0
M  V30 37 H -1.692094 0.850004 4.531870 0
M  V30 38 H -4.000322 -0.103857 4.431615 0
M  V30 39 H -4.351587 -2.411450 3.588209 0
M  V30 40 H -4.464100 -4.304116 2.874842 0
M  V30 41 H -0.153194 -2.781415 2.964627 0
M  V30 END ATOM
M  V30 BEGIN BOND
M  V30 1 2 1 2
M  V30 2 1 2 3
M  V30 3 2 3 4
M  V30 4 1 4 5
M  V30 5 1 5 6
M  V30 6 1 6 7
M  V30 7 2 7 8
M  V30 8 1 8 9
M  V30 9 1 9 10
M  V30 10 2 5 11
M  V30 11 1 11 12
M  V30 12 2 12 13
M  V30 13 1 13 14
M  V30 14 2 14 15
M  V30 15 1 15 16
M  V30 16 1 16 17
M  V30 17 1 17 18
M  V30 18 2 18 19
M  V30 19 1 19 20
M  V30 20 2 20 21
M  V30 21 1 21 22
M  V30 22 1 22 23
M  V30 23 1 23 24
M  V30 24 1 24 25
M  V30 25 1 24 26
M  V30 26 2 22 27
M  V30 27 1 16 2
M  V30 28 1 27 18
M  V30 29 1 13 3
M  V30 30 2 10 6
M  V30 31 1 4 28
M  V30 32 1 7 29
M  V30 33 1 9 30
M  V30 34 1 10 31
M  V30 35 1 11 32
M  V30 36 1 12 33
M  V30 37 1 15 34
M  V30 38 1 17 35
M  V30 39 1 17 36
M  V30 40 1 19 37
M  V30 41 1 20 38
M  V30 42 1 21 39
M  V30 43 1 24 40
M  V30 44 1 27 41
M  V30 END BOND
M  V30 END CTAB
M  END
>  <Dataset>  (567) 
ChEMBL_Kinases

>  <Ligand_Instance>  (567) 
nan

>  <PDB_ID>  (567) 
nan

>  <Standardized_SMILES>  (567) 
O=c1c2cc(-c3cn[nH]c3)ccc2ncn1Cc1cccc(OC(F)F)c1

>  <Name>  (567) 
nan

>  <Pocket>  (567) 
nan

>  <ATP_Site>  (567) 
nan

>  <Peripheral>  (567) 
nan

>  <Num_H_Atoms_ProtBoundConf>  (567) 
nan

>  <Num_Resolved_Atoms>  (567) 
nan

>  <Num_Not_Resolved_Atoms>  (567) 
nan

$$$$
CHEMBL4209569
     RDKit          3D

  0  0  0  0  0  0  0  0  0  0999 V3000
M  V30 BEGIN CTAB
M  V30 COUNTS 44 47 0 0 0
M  V30 BEGIN ATOM
M  V30 1 C 1.145113 -6.134683 2.024679 0
M  V30 2 N 1.394852 -5.082262 3.012867 0
M  V30 3 C 1.315934 -3.750572 2.514530 0
M  V30 4 N 2.455314 -3.199581 2.032183 0
M  V30 5 C 2.510360 -1.951933 1.534909 0
M  V30 6 C 1.340893 -1.213846 1.523961 0
M  V30 7 C 0.980566 0.054800 1.116422 0
M  V30 8 C 1.885276 1.036954 0.522019 0
M  V30 9 C 1.332466 1.662485 -0.587332 0
M  V30 10 C 2.048388 2.623838 -1.278904 0
M  V30 11 C 3.320102 2.931385 -0.825223 0
M  V30 12 O 4.119785 3.888194 -1.457116 0
M  V30 13 C 3.646614 4.588084 -2.604246 0
M  V30 14 C 3.878893 2.308343 0.285008 0
M  V30 15 C 3.153678 1.342975 0.975386 0
M  V30 16 N -0.332566 0.217912 1.362521 0
M  V30 17 N -0.845961 -0.865021 1.903849 0
M  V30 18 C -2.244013 -0.981927 2.278654 0
M  V30 19 C -2.968821 -1.535847 1.049422 0
M  V30 20 O -2.838406 -0.701354 -0.035787 0
M  V30 21 C -4.020705 -0.019062 -0.225745 0
M  V30 22 C -4.798545 -0.378755 1.018377 0
M  V30 23 O -4.344991 -1.664135 1.292584 0
M  V30 24 C 0.164024 -1.749510 2.009193 0
M  V30 25 N 0.179303 -3.002336 2.491905 0
M  V30 26 H 0.178664 -5.946712 1.528496 0
M  V30 27 H 1.933828 -6.024159 1.251189 0
M  V30 28 H 1.200769 -7.150693 2.483189 0
M  V30 29 H 1.623519 -5.227544 4.041658 0
M  V30 30 H 3.383555 -1.485869 1.148242 0
M  V30 31 H 0.348914 1.465154 -0.986912 0
M  V30 32 H 1.645136 3.125442 -2.142559 0
M  V30 33 H 4.297320 5.464668 -2.777973 0
M  V30 34 H 2.588165 4.917262 -2.437601 0
M  V30 35 H 3.670407 3.887969 -3.446839 0
M  V30 36 H 4.872181 2.527891 0.664189 0
M  V30 37 H 3.500932 0.809214 1.841432 0
M  V30 38 H -2.640759 -0.001170 2.575155 0
M  V30 39 H -2.346890 -1.689223 3.108172 0
M  V30 40 H -2.494187 -2.507322 0.798476 0
M  V30 41 H -4.542850 -0.309815 -1.162325 0
M  V30 42 H -3.890476 1.084130 -0.226220 0
M  V30 43 H -4.512220 0.307569 1.823601 0
M  V30 44 H -5.895672 -0.341756 0.860101 0
M  V30 END ATOM
M  V30 BEGIN BOND
M  V30 1 1 1 2
M  V30 2 1 2 3
M  V30 3 2 3 4
M  V30 4 1 4 5
M  V30 5 2 5 6
M  V30 6 1 6 7
M  V30 7 1 7 8
M  V30 8 2 8 9
M  V30 9 1 9 10
M  V30 10 2 10 11
M  V30 11 1 11 12
M  V30 12 1 12 13
M  V30 13 1 11 14
M  V30 14 2 14 15
M  V30 15 2 7 16
M  V30 16 1 16 17
M  V30 17 1 17 18
M  V30 18 1 18 19
M  V30 19 1 19 20
M  V30 20 1 20 21
M  V30 21 1 21 22
M  V30 22 1 22 23
M  V30 23 1 17 24
M  V30 24 2 24 25
M  V30 25 1 25 3
M  V30 26 1 24 6
M  V30 27 1 15 8
M  V30 28 1 23 19
M  V30 29 1 1 26
M  V30 30 1 1 27
M  V30 31 1 1 28
M  V30 32 1 2 29
M  V30 33 1 5 30
M  V30 34 1 9 31
M  V30 35 1 10 32
M  V30 36 1 13 33
M  V30 37 1 13 34
M  V30 38 1 13 35
M  V30 39 1 14 36
M  V30 40 1 15 37
M  V30 41 1 18 38
M  V30 42 1 18 39
M  V30 43 1 19 40
M  V30 44 1 21 41
M  V30 45 1 21 42
M  V30 46 1 22 43
M  V30 47 1 22 44
M  V30 END BOND
M  V30 END CTAB
M  END
>  <Dataset>  (568) 
ChEMBL_Kinases

>  <Ligand_Instance>  (568) 
nan

>  <PDB_ID>  (568) 
nan

>  <Standardized_SMILES>  (568) 
CNc1ncc2c(-c3ccc(OC)cc3)nn(CC3OCCO3)c2n1

>  <Name>  (568) 
nan

>  <Pocket>  (568) 
nan

>  <ATP_Site>  (568) 
nan

>  <Peripheral>  (568) 
nan

>  <Num_H_Atoms_ProtBoundConf>  (568) 
nan

>  <Num_Resolved_Atoms>  (568) 
nan

>  <Num_Not_Resolved_Atoms>  (568) 
nan

$$$$
CHEMBL4782184
     RDKit          3D

  0  0  0  0  0  0  0  0  0  0999 V3000
M  V30 BEGIN CTAB
M  V30 COUNTS 44 47 0 0 0
M  V30 BEGIN ATOM
M  V30 1 N -1.699227 -2.168465 4.337494 0
M  V30 2 C -0.793458 -1.659492 3.370367 0
M  V30 3 N 0.534607 -1.753314 3.559231 0
M  V30 4 C 1.426297 -1.282663 2.665303 0
M  V30 5 N 2.829993 -1.384810 2.870959 0
M  V30 6 C 3.703518 -0.853707 1.860652 0
M  V30 7 C 3.549774 -1.477326 0.508288 0
M  V30 8 C 4.147760 -0.509735 -0.508228 0
M  V30 9 C 5.456860 0.017764 -0.009942 0
M  V30 10 C 6.081109 -0.814264 1.087173 0
M  V30 11 C 5.162617 -1.020895 2.249909 0
M  V30 12 N 0.894747 -0.711765 1.569547 0
M  V30 13 C -0.430311 -0.603070 1.352257 0
M  V30 14 N -1.202212 -0.090695 0.366739 0
M  V30 15 C -2.496379 -0.243213 0.649307 0
M  V30 16 C -3.466437 0.259036 -0.318229 0
M  V30 17 C -3.529333 -0.259841 -1.613971 0
M  V30 18 C -4.480869 0.285636 -2.444929 0
M  V30 19 O -4.513157 -0.259433 -3.733279 0
M  V30 20 C -5.319170 1.289213 -2.007557 0
M  V30 21 C -5.246968 1.793156 -0.725155 0
M  V30 22 O -6.085630 2.793547 -0.295688 0
M  V30 23 C -4.299234 1.263928 0.133944 0
M  V30 24 N -2.542502 -0.872898 1.853417 0
M  V30 25 N -1.296585 -1.082862 2.263851 0
M  V30 26 H -2.062792 -1.919881 5.288330 0
M  V30 27 H -2.160768 -3.068744 4.034024 0
M  V30 28 H 3.155517 -1.841388 3.747269 0
M  V30 29 H 3.516018 0.243321 1.737205 0
M  V30 30 H 2.543489 -1.790631 0.235930 0
M  V30 31 H 4.225875 -2.371309 0.473926 0
M  V30 32 H 4.239443 -1.002462 -1.511085 0
M  V30 33 H 3.464695 0.351766 -0.663562 0
M  V30 34 H 5.377092 1.093546 0.314954 0
M  V30 35 H 6.175213 0.027381 -0.858353 0
M  V30 36 H 6.461445 -1.752768 0.668460 0
M  V30 37 H 6.951403 -0.196253 1.453478 0
M  V30 38 H 5.383688 -0.379612 3.121555 0
M  V30 39 H 5.252970 -2.100973 2.541536 0
M  V30 40 H -2.827587 -1.051640 -1.872096 0
M  V30 41 H -3.692383 -0.120245 -4.329572 0
M  V30 42 H -6.044614 1.666371 -2.727640 0
M  V30 43 H -6.715848 3.244152 -0.951113 0
M  V30 44 H -4.230779 1.644719 1.132879 0
M  V30 END ATOM
M  V30 BEGIN BOND
M  V30 1 1 1 2
M  V30 2 2 2 3
M  V30 3 1 3 4
M  V30 4 1 4 5
M  V30 5 1 5 6
M  V30 6 1 6 7
M  V30 7 1 7 8
M  V30 8 1 8 9
M  V30 9 1 9 10
M  V30 10 1 10 11
M  V30 11 2 4 12
M  V30 12 1 12 13
M  V30 13 2 13 14
M  V30 14 1 14 15
M  V30 15 1 15 16
M  V30 16 2 16 17
M  V30 17 1 17 18
M  V30 18 1 18 19
M  V30 19 2 18 20
M  V30 20 1 20 21
M  V30 21 1 21 22
M  V30 22 2 21 23
M  V30 23 2 15 24
M  V30 24 1 24 25
M  V30 25 1 25 2
M  V30 26 1 11 6
M  V30 27 1 25 13
M  V30 28 1 23 16
M  V30 29 1 1 26
M  V30 30 1 1 27
M  V30 31 1 5 28
M  V30 32 1 6 29
M  V30 33 1 7 30
M  V30 34 1 7 31
M  V30 35 1 8 32
M  V30 36 1 8 33
M  V30 37 1 9 34
M  V30 38 1 9 35
M  V30 39 1 10 36
M  V30 40 1 10 37
M  V30 41 1 11 38
M  V30 42 1 11 39
M  V30 43 1 17 40
M  V30 44 1 19 41
M  V30 45 1 20 42
M  V30 46 1 22 43
M  V30 47 1 23 44
M  V30 END BOND
M  V30 END CTAB
M  END
>  <Dataset>  (569) 
ChEMBL_Kinases

>  <Ligand_Instance>  (569) 
nan

>  <PDB_ID>  (569) 
nan

>  <Standardized_SMILES>  (569) 
Nc1nc(NC2CCCCC2)nc2nc(-c3cc(O)cc(O)c3)nn12

>  <Name>  (569) 
nan

>  <Pocket>  (569) 
nan

>  <ATP_Site>  (569) 
nan

>  <Peripheral>  (569) 
nan

>  <Num_H_Atoms_ProtBoundConf>  (569) 
nan

>  <Num_Resolved_Atoms>  (569) 
nan

>  <Num_Not_Resolved_Atoms>  (569) 
nan

$$$$
CHEMBL4782205
     RDKit          3D

  0  0  0  0  0  0  0  0  0  0999 V3000
M  V30 BEGIN CTAB
M  V30 COUNTS 58 61 0 0 0
M  V30 BEGIN ATOM
M  V30 1 C 6.050782 0.043243 3.952058 0
M  V30 2 C 4.873047 -0.672870 4.517568 0
M  V30 3 C 4.610766 -2.031075 3.946891 0
M  V30 4 S 4.274547 -2.040839 2.205806 0
M  V30 5 O 3.998249 -3.499311 1.859395 0
M  V30 6 O 5.476493 -1.668297 1.385056 0
M  V30 7 N 2.899682 -1.139340 1.772581 0
M  V30 8 C 2.495307 0.210806 1.854281 0
M  V30 9 C 3.556391 1.090717 1.631717 0
M  V30 10 C 3.359854 2.473191 1.647762 0
M  V30 11 C 2.062379 2.938339 1.893917 0
M  V30 12 F 1.948342 4.297795 1.892699 0
M  V30 13 C 1.027192 2.075233 2.110761 0
M  V30 14 C -0.279881 2.609303 2.398457 0
M  V30 15 O -0.141341 3.801757 2.866721 0
M  V30 16 C -1.665942 2.255276 2.337466 0
M  V30 17 N -2.555783 2.837891 3.146664 0
M  V30 18 N -3.775979 2.362752 2.891008 0
M  V30 19 C -3.746479 1.460524 1.914937 0
M  V30 20 N -4.703665 0.729838 1.314801 0
M  V30 21 C -4.319718 -0.099497 0.323682 0
M  V30 22 C -2.996211 -0.214036 -0.081477 0
M  V30 23 C -2.714031 -1.157444 -1.161187 0
M  V30 24 C -3.526957 -2.276034 -1.205466 0
M  V30 25 C -3.444222 -3.292373 -2.136073 0
M  V30 26 C -2.456334 -3.187781 -3.120111 0
M  V30 27 N -2.227123 -4.132153 -4.157729 0
M  V30 28 S -3.562950 -4.815967 -5.049643 0
M  V30 29 C -4.463736 -3.558390 -5.904359 0
M  V30 30 O -4.469307 -5.464089 -4.047020 0
M  V30 31 O -3.062162 -5.880446 -5.983416 0
M  V30 32 C -1.639960 -2.075357 -3.084123 0
M  V30 33 C -1.730844 -1.061422 -2.146724 0
M  V30 34 C -2.063674 0.545282 0.556625 0
M  V30 35 C -2.407222 1.400417 1.570717 0
M  V30 36 C 1.233094 0.726630 2.093818 0
M  V30 37 F 0.366337 -0.253980 2.323520 0
M  V30 38 H 6.504407 -0.524609 3.116555 0
M  V30 39 H 6.809065 0.312916 4.724590 0
M  V30 40 H 5.720964 1.025561 3.532343 0
M  V30 41 H 3.942122 -0.079520 4.359319 0
M  V30 42 H 5.026620 -0.798314 5.619913 0
M  V30 43 H 3.713522 -2.468032 4.470650 0
M  V30 44 H 5.418663 -2.762517 4.157250 0
M  V30 45 H 2.074315 -1.622868 1.310226 0
M  V30 46 H 4.579820 0.784908 1.432572 0
M  V30 47 H 4.174456 3.149475 1.476883 0
M  V30 48 H -4.592987 2.717152 3.444235 0
M  V30 49 H -5.175427 -0.650428 -0.100324 0
M  V30 50 H -4.330720 -2.466860 -0.490018 0
M  V30 51 H -4.078946 -4.162262 -2.166400 0
M  V30 52 H -1.256499 -4.430999 -4.402139 0
M  V30 53 H -5.558988 -3.688689 -5.715928 0
M  V30 54 H -4.240418 -2.528882 -5.548303 0
M  V30 55 H -4.239431 -3.526660 -7.002456 0
M  V30 56 H -0.851488 -1.955378 -3.839745 0
M  V30 57 H -1.126642 -0.191411 -2.083513 0
M  V30 58 H -1.046746 0.491272 0.259975 0
M  V30 END ATOM
M  V30 BEGIN BOND
M  V30 1 1 1 2
M  V30 2 1 2 3
M  V30 3 1 3 4
M  V30 4 2 4 5
M  V30 5 2 4 6
M  V30 6 1 4 7
M  V30 7 1 7 8
M  V30 8 2 8 9
M  V30 9 1 9 10
M  V30 10 2 10 11
M  V30 11 1 11 12
M  V30 12 1 11 13
M  V30 13 1 13 14
M  V30 14 2 14 15
M  V30 15 1 14 16
M  V30 16 2 16 17
M  V30 17 1 17 18
M  V30 18 1 18 19
M  V30 19 2 19 20
M  V30 20 1 20 21
M  V30 21 2 21 22
M  V30 22 1 22 23
M  V30 23 2 23 24
M  V30 24 1 24 25
M  V30 25 2 25 26
M  V30 26 1 26 27
M  V30 27 1 27 28
M  V30 28 1 28 29
M  V30 29 2 28 30
M  V30 30 2 28 31
M  V30 31 1 26 32
M  V30 32 2 32 33
M  V30 33 1 22 34
M  V30 34 2 34 35
M  V30 35 2 13 36
M  V30 36 1 36 37
M  V30 37 1 36 8
M  V30 38 1 35 16
M  V30 39 1 35 19
M  V30 40 1 33 23
M  V30 41 1 1 38
M  V30 42 1 1 39
M  V30 43 1 1 40
M  V30 44 1 2 41
M  V30 45 1 2 42
M  V30 46 1 3 43
M  V30 47 1 3 44
M  V30 48 1 7 45
M  V30 49 1 9 46
M  V30 50 1 10 47
M  V30 51 1 18 48
M  V30 52 1 21 49
M  V30 53 1 24 50
M  V30 54 1 25 51
M  V30 55 1 27 52
M  V30 56 1 29 53
M  V30 57 1 29 54
M  V30 58 1 29 55
M  V30 59 1 32 56
M  V30 60 1 33 57
M  V30 61 1 34 58
M  V30 END BOND
M  V30 END CTAB
M  END
>  <Dataset>  (570) 
ChEMBL_Kinases

>  <Ligand_Instance>  (570) 
nan

>  <PDB_ID>  (570) 
nan

>  <Standardized_SMILES>  (570) 
CCCS(=O)(=O)Nc1ccc(F)c(C(=O)c2n[nH]c3ncc(-c4ccc(NS(C)(=O)=O)cc4)cc23)c1F

>  <Name>  (570) 
nan

>  <Pocket>  (570) 
nan

>  <ATP_Site>  (570) 
nan

>  <Peripheral>  (570) 
nan

>  <Num_H_Atoms_ProtBoundConf>  (570) 
nan

>  <Num_Resolved_Atoms>  (570) 
nan

>  <Num_Not_Resolved_Atoms>  (570) 
nan

$$$$
CHEMBL4782208
     RDKit          3D

  0  0  0  0  0  0  0  0  0  0999 V3000
M  V30 BEGIN CTAB
M  V30 COUNTS 32 34 0 0 0
M  V30 BEGIN ATOM
M  V30 1 O 3.346393 0.375594 3.106806 0
M  V30 2 C 2.724254 -0.522840 2.487081 0
M  V30 3 N 2.971474 -1.917520 2.381022 0
M  V30 4 C 2.133275 -2.763647 1.619585 0
M  V30 5 C 2.466263 -4.102485 1.586118 0
M  V30 6 C 1.636675 -4.933834 0.833730 0
M  V30 7 C 0.524120 -4.476135 0.140136 0
M  V30 8 C 0.235269 -3.116330 0.208967 0
M  V30 9 C 1.022790 -2.250917 0.938489 0
M  V30 10 N 0.766154 -0.858749 1.036550 0
M  V30 11 C 1.578694 0.047714 1.793684 0
M  V30 12 C 1.189807 1.287598 1.697791 0
M  V30 13 C 0.079804 1.935417 1.049733 0
M  V30 14 O 0.160327 3.207483 1.172448 0
M  V30 15 C -1.140271 1.831515 0.291220 0
M  V30 16 C -1.274246 2.463767 -0.953189 0
M  V30 17 C -2.375082 2.353507 -1.770281 0
M  V30 18 C -3.363620 1.552904 -1.258558 0
M  V30 19 C -3.385636 0.871018 -0.066759 0
M  V30 20 C -2.240674 1.048208 0.672876 0
M  V30 21 Cl -2.215269 0.231898 2.247865 0
M  V30 22 H 3.820319 -2.215636 2.919877 0
M  V30 23 H 3.325655 -4.502916 2.112480 0
M  V30 24 H 1.906376 -5.992360 0.811807 0
M  V30 25 H -0.086581 -5.173553 -0.430866 0
M  V30 26 H -0.633946 -2.727104 -0.326581 0
M  V30 27 H -0.040461 -0.558023 0.489480 0
M  V30 28 H 1.905277 1.913993 2.253468 0
M  V30 29 H -0.431267 3.088560 -1.285715 0
M  V30 30 H -2.453646 2.850440 -2.724721 0
M  V30 31 H -4.245382 1.449485 -1.890566 0
M  V30 32 H -4.208960 0.258650 0.263399 0
M  V30 END ATOM
M  V30 BEGIN BOND
M  V30 1 2 1 2
M  V30 2 1 2 3
M  V30 3 1 3 4
M  V30 4 2 4 5
M  V30 5 1 5 6
M  V30 6 2 6 7
M  V30 7 1 7 8
M  V30 8 2 8 9
M  V30 9 1 9 10
M  V30 10 1 10 11
M  V30 11 2 11 12
M  V30 12 1 12 13
M  V30 13 2 13 14
M  V30 14 1 13 15
M  V30 15 2 15 16
M  V30 16 1 16 17
M  V30 17 2 17 18
M  V30 18 1 18 19
M  V30 19 2 19 20
M  V30 20 1 20 21
M  V30 21 1 11 2
M  V30 22 1 20 15
M  V30 23 1 9 4
M  V30 24 1 3 22
M  V30 25 1 5 23
M  V30 26 1 6 24
M  V30 27 1 7 25
M  V30 28 1 8 26
M  V30 29 1 10 27
M  V30 30 1 12 28
M  V30 31 1 16 29
M  V30 32 1 17 30
M  V30 33 1 18 31
M  V30 34 1 19 32
M  V30 END BOND
M  V30 END CTAB
M  END
>  <Dataset>  (571) 
ChEMBL_Kinases

>  <Ligand_Instance>  (571) 
nan

>  <PDB_ID>  (571) 
nan

>  <Standardized_SMILES>  (571) 
O=C1Nc2ccccc2N/C1=C\C(=O)c1ccccc1Cl

>  <Name>  (571) 
nan

>  <Pocket>  (571) 
nan

>  <ATP_Site>  (571) 
nan

>  <Peripheral>  (571) 
nan

>  <Num_H_Atoms_ProtBoundConf>  (571) 
nan

>  <Num_Resolved_Atoms>  (571) 
nan

>  <Num_Not_Resolved_Atoms>  (571) 
nan

$$$$
CHEMBL4209448
     RDKit          3D

  0  0  0  0  0  0  0  0  0  0999 V3000
M  V30 BEGIN CTAB
M  V30 COUNTS 45 48 0 0 0
M  V30 BEGIN ATOM
M  V30 1 O 3.243997 -2.842203 2.388219 0
M  V30 2 C 4.237670 -2.359445 1.790122 0
M  V30 3 N 5.526013 -2.929573 1.737580 0
M  V30 4 C 6.517360 -2.220809 1.005338 0
M  V30 5 S 8.130962 -2.446604 1.074469 0
M  V30 6 S 5.574912 -1.044381 0.009834 0
M  V30 7 C 4.099796 -1.090751 1.066790 0
M  V30 8 C 3.160406 -0.195492 1.138205 0
M  V30 9 C 3.178963 1.027784 0.337086 0
M  V30 10 C 4.328852 1.743500 0.068807 0
M  V30 11 C 4.282813 2.886273 -0.695245 0
M  V30 12 C 3.092429 3.325702 -1.198027 0
M  V30 13 C 1.976230 2.580927 -0.903882 0
M  V30 14 C 1.931948 1.420504 -0.144668 0
M  V30 15 O 0.727936 0.771849 0.072216 0
M  V30 16 C -0.481825 1.234708 -0.450043 0
M  V30 17 O -1.594599 0.470815 -0.125360 0
M  V30 18 C -2.011523 0.242530 1.202416 0
M  V30 19 C -1.327392 0.766573 2.301827 0
M  V30 20 C -1.783471 0.506246 3.568061 0
M  V30 21 C -2.910746 -0.267994 3.739849 0
M  V30 22 C -3.583272 -0.783897 2.633523 0
M  V30 23 C -3.156707 -0.545425 1.371009 0
M  V30 24 C -3.833810 -1.031044 0.183930 0
M  V30 25 C -4.218227 -2.248412 -0.148515 0
M  V30 26 S -5.054863 -2.952046 -1.564760 0
M  V30 27 C -5.221548 -4.609845 -0.844931 0
M  V30 28 S -6.188094 -5.483478 -1.825810 0
M  V30 29 N -4.449547 -4.612728 0.348524 0
M  V30 30 C -3.923482 -3.382299 0.715484 0
M  V30 31 O -3.228868 -3.407374 1.790535 0
M  V30 32 H 5.764695 -3.836476 2.212257 0
M  V30 33 H 2.335044 -0.398293 1.838086 0
M  V30 34 H 5.277771 1.420234 0.455846 0
M  V30 35 H 5.196343 3.429843 -0.892997 0
M  V30 36 H 3.037700 4.220170 -1.800214 0
M  V30 37 H 1.019596 2.936181 -1.310004 0
M  V30 38 H -0.624849 2.277782 -0.056023 0
M  V30 39 H -0.434335 1.364730 -1.552792 0
M  V30 40 H -0.451933 1.354238 1.988552 0
M  V30 41 H -1.191240 0.952619 4.371199 0
M  V30 42 H -3.188758 -0.414323 4.765099 0
M  V30 43 H -4.448491 -1.346273 2.891687 0
M  V30 44 H -4.067744 -0.274082 -0.560269 0
M  V30 45 H -4.437276 -5.582966 0.727132 0
M  V30 END ATOM
M  V30 BEGIN BOND
M  V30 1 2 1 2
M  V30 2 1 2 3
M  V30 3 1 3 4
M  V30 4 2 4 5
M  V30 5 1 4 6
M  V30 6 1 6 7
M  V30 7 2 7 8
M  V30 8 1 8 9
M  V30 9 2 9 10
M  V30 10 1 10 11
M  V30 11 2 11 12
M  V30 12 1 12 13
M  V30 13 2 13 14
M  V30 14 1 14 15
M  V30 15 1 15 16
M  V30 16 1 16 17
M  V30 17 1 17 18
M  V30 18 2 18 19
M  V30 19 1 19 20
M  V30 20 2 20 21
M  V30 21 1 21 22
M  V30 22 2 22 23
M  V30 23 1 23 24
M  V30 24 2 24 25
M  V30 25 1 25 26
M  V30 26 1 26 27
M  V30 27 2 27 28
M  V30 28 1 27 29
M  V30 29 1 29 30
M  V30 30 2 30 31
M  V30 31 1 7 2
M  V30 32 1 14 9
M  V30 33 1 23 18
M  V30 34 1 30 25
M  V30 35 1 3 32
M  V30 36 1 8 33
M  V30 37 1 10 34
M  V30 38 1 11 35
M  V30 39 1 12 36
M  V30 40 1 13 37
M  V30 41 1 16 38
M  V30 42 1 16 39
M  V30 43 1 19 40
M  V30 44 1 20 41
M  V30 45 1 21 42
M  V30 46 1 22 43
M  V30 47 1 24 44
M  V30 48 1 29 45
M  V30 END BOND
M  V30 END CTAB
M  END
>  <Dataset>  (572) 
ChEMBL_Kinases

>  <Ligand_Instance>  (572) 
nan

>  <PDB_ID>  (572) 
nan

>  <Standardized_SMILES>  (572) 
O=C1NC(=S)S/C1=C\c1ccccc1OCOc1ccccc1/C=C1/SC(=S)NC1=O

>  <Name>  (572) 
nan

>  <Pocket>  (572) 
nan

>  <ATP_Site>  (572) 
nan

>  <Peripheral>  (572) 
nan

>  <Num_H_Atoms_ProtBoundConf>  (572) 
nan

>  <Num_Resolved_Atoms>  (572) 
nan

>  <Num_Not_Resolved_Atoms>  (572) 
nan

$$$$
CHEMBL4209443
     RDKit          3D

  0  0  0  0  0  0  0  0  0  0999 V3000
M  V30 BEGIN CTAB
M  V30 COUNTS 63 66 0 0 0
M  V30 BEGIN ATOM
M  V30 1 C 3.608958 -0.216710 5.277554 0
M  V30 2 C 3.781691 -1.546133 4.623933 0
M  V30 3 C 2.687521 -1.699846 3.608856 0
M  V30 4 C 2.809302 -1.299990 2.290386 0
M  V30 5 C 1.767895 -1.470505 1.391362 0
M  V30 6 C 1.961886 -0.986435 0.009658 0
M  V30 7 O 1.875724 -1.689271 -1.049291 0
M  V30 8 N 2.267510 0.368705 -0.248468 0
M  V30 9 C 2.508776 1.119639 -1.435119 0
M  V30 10 C 1.442467 1.110349 -2.466422 0 CFG=2
M  V30 11 C 1.848082 1.984633 -3.625576 0
M  V30 12 N 0.111470 1.245129 -2.121227 0
M  V30 13 C -0.359379 2.343747 -1.371677 0
M  V30 14 C -0.356294 3.683128 -2.009638 0
M  V30 15 C -0.839408 0.687790 -3.041977 0
M  V30 16 C -0.719013 -0.814330 -3.025990 0
M  V30 17 C 0.595367 -2.049733 1.837230 0
M  V30 18 C 0.488957 -2.439788 3.151289 0
M  V30 19 C -0.721055 -3.048908 3.677800 0
M  V30 20 C -0.893479 -3.641300 4.909455 0
M  V30 21 N -2.197495 -4.033432 4.990218 0
M  V30 22 N -2.799986 -3.695725 3.857914 0
M  V30 23 C -4.095375 -3.898086 3.551122 0
M  V30 24 C -4.608838 -3.475943 2.315996 0
M  V30 25 C -3.709810 -2.859240 1.474858 0
M  V30 26 C -4.213735 -2.382288 0.171605 0
M  V30 27 C -3.611355 -1.744300 -0.818429 0
M  V30 28 C -4.290997 -1.389274 -1.950123 0
M  V30 29 C -5.654915 -1.745619 -1.987151 0
M  V30 30 S -5.866232 -2.605886 -0.307942 0
M  V30 31 N -2.425490 -2.680805 1.828524 0
M  V30 32 C -1.940642 -3.088905 3.015695 0
M  V30 33 N 1.531992 -2.253742 3.986053 0
M  V30 34 H 2.664804 0.317743 4.979577 0
M  V30 35 H 4.418053 0.489333 4.943376 0
M  V30 36 H 3.593673 -0.273990 6.398110 0
M  V30 37 H 4.778979 -1.695266 4.167403 0
M  V30 38 H 3.650718 -2.350154 5.379015 0
M  V30 39 H 3.755079 -0.847731 2.000623 0
M  V30 40 H 2.333695 0.956139 0.642045 0
M  V30 41 H 2.851078 2.157104 -1.241264 0
M  V30 42 H 3.422111 0.650585 -1.917385 0
M  V30 43 H 1.518130 0.044149 -2.916790 0
M  V30 44 H 2.264516 2.959404 -3.286044 0
M  V30 45 H 1.055173 2.104241 -4.386053 0
M  V30 46 H 2.702052 1.521313 -4.202276 0
M  V30 47 H -1.423354 2.093220 -1.095507 0
M  V30 48 H 0.163476 2.392428 -0.381587 0
M  V30 49 H -1.339594 4.212987 -1.822562 0
M  V30 50 H -0.289542 3.622153 -3.104970 0
M  V30 51 H 0.387423 4.340212 -1.522382 0
M  V30 52 H -0.624467 1.069010 -4.056244 0
M  V30 53 H -1.848742 1.034782 -2.754986 0
M  V30 54 H -1.653263 -1.280620 -3.417154 0
M  V30 55 H 0.154511 -1.162108 -3.645766 0
M  V30 56 H -0.608073 -1.206024 -1.998392 0
M  V30 57 H -0.204669 -2.179918 1.135439 0
M  V30 58 H -0.120302 -3.766721 5.664214 0
M  V30 59 H -4.791683 -4.382460 4.221493 0
M  V30 60 H -5.647411 -3.643231 2.091994 0
M  V30 61 H -2.563683 -1.515162 -0.696171 0
M  V30 62 H -3.887315 -0.867663 -2.805844 0
M  V30 63 H -6.350939 -1.513251 -2.862099 0
M  V30 END ATOM
M  V30 BEGIN BOND
M  V30 1 1 1 2
M  V30 2 1 2 3
M  V30 3 2 3 4
M  V30 4 1 4 5
M  V30 5 1 5 6
M  V30 6 2 6 7
M  V30 7 1 6 8
M  V30 8 1 8 9
M  V30 9 1 9 10
M  V30 10 1 10 11
M  V30 11 1 10 12
M  V30 12 1 12 13
M  V30 13 1 13 14
M  V30 14 1 12 15
M  V30 15 1 15 16
M  V30 16 2 5 17
M  V30 17 1 17 18
M  V30 18 1 18 19
M  V30 19 1 19 20
M  V30 20 2 20 21
M  V30 21 1 21 22
M  V30 22 1 22 23
M  V30 23 2 23 24
M  V30 24 1 24 25
M  V30 25 1 25 26
M  V30 26 2 26 27
M  V30 27 1 27 28
M  V30 28 2 28 29
M  V30 29 1 29 30
M  V30 30 2 25 31
M  V30 31 1 31 32
M  V30 32 2 18 33
M  V30 33 1 33 3
M  V30 34 2 32 19
M  V30 35 1 32 22
M  V30 36 1 30 26
M  V30 37 1 1 34
M  V30 38 1 1 35
M  V30 39 1 1 36
M  V30 40 1 2 37
M  V30 41 1 2 38
M  V30 42 1 4 39
M  V30 43 1 8 40
M  V30 44 1 9 41
M  V30 45 1 9 42
M  V30 46 1 10 43 CFG=3
M  V30 47 1 11 44
M  V30 48 1 11 45
M  V30 49 1 11 46
M  V30 50 1 13 47
M  V30 51 1 13 48
M  V30 52 1 14 49
M  V30 53 1 14 50
M  V30 54 1 14 51
M  V30 55 1 15 52
M  V30 56 1 15 53
M  V30 57 1 16 54
M  V30 58 1 16 55
M  V30 59 1 16 56
M  V30 60 1 17 57
M  V30 61 1 20 58
M  V30 62 1 23 59
M  V30 63 1 24 60
M  V30 64 1 27 61
M  V30 65 1 28 62
M  V30 66 1 29 63
M  V30 END BOND
M  V30 END CTAB
M  END
>  <Dataset>  (573) 
ChEMBL_Kinases

>  <Ligand_Instance>  (573) 
nan

>  <PDB_ID>  (573) 
nan

>  <Standardized_SMILES>  (573) 
CCc1cc(C(=O)NC[C@H](C)N(CC)CC)cc(-c2cnn3ccc(-c4cccs4)nc23)n1

>  <Name>  (573) 
nan

>  <Pocket>  (573) 
nan

>  <ATP_Site>  (573) 
nan

>  <Peripheral>  (573) 
nan

>  <Num_H_Atoms_ProtBoundConf>  (573) 
nan

>  <Num_Resolved_Atoms>  (573) 
nan

>  <Num_Not_Resolved_Atoms>  (573) 
nan

$$$$
CHEMBL4209416
     RDKit          3D

  0  0  0  0  0  0  0  0  0  0999 V3000
M  V30 BEGIN CTAB
M  V30 COUNTS 56 60 0 0 0
M  V30 BEGIN ATOM
M  V30 1 C 2.933852 -1.460520 4.693833 0
M  V30 2 C 4.182171 -1.868282 3.999202 0
M  V30 3 N 5.147595 -2.590752 4.573451 0
M  V30 4 N 6.084397 -2.758428 3.674281 0
M  V30 5 C 5.725206 -2.150215 2.533873 0
M  V30 6 C 4.488093 -1.552239 2.693124 0
M  V30 7 C 3.744503 -0.787093 1.680098 0
M  V30 8 C 2.587232 -0.159676 1.638711 0
M  V30 9 C 2.193506 0.467969 0.492450 0
M  V30 10 C 3.043514 0.417459 -0.598534 0
M  V30 11 S 4.437427 -0.563502 0.067794 0
M  V30 12 C 2.748845 1.046811 -1.911614 0
M  V30 13 O 3.646619 0.892258 -2.779837 0
M  V30 14 N 1.516300 1.741657 -2.051451 0
M  V30 15 C 0.477581 1.231094 -1.181288 0 CFG=1
M  V30 16 C -0.780843 2.018640 -1.242623 0
M  V30 17 C -1.843553 1.328118 -0.431666 0
M  V30 18 C -2.247291 0.033438 -1.048488 0 CFG=2
M  V30 19 O -3.460227 0.219007 -1.723209 0
M  V30 20 C -2.462289 -1.065814 -0.034319 0
M  V30 21 C -3.524626 -0.750835 0.958849 0
M  V30 22 C -4.890853 -1.244727 0.610681 0
M  V30 23 C -4.922730 -2.735526 0.474013 0
M  V30 24 C -3.577248 -3.295559 0.153653 0
M  V30 25 C -2.754471 -2.364298 -0.713329 0
M  V30 26 C -1.225256 -0.408440 -2.060804 0
M  V30 27 C 0.191327 -0.221156 -1.544952 0
M  V30 28 N 1.013510 1.205131 0.188625 0
M  V30 29 H 2.812800 -0.347799 4.756303 0
M  V30 30 H 2.897895 -1.853434 5.734797 0
M  V30 31 H 2.010131 -1.846487 4.216247 0
M  V30 32 H 6.952833 -3.285881 3.856521 0
M  V30 33 H 6.354435 -2.159608 1.648059 0
M  V30 34 H 1.993420 -0.173818 2.540944 0
M  V30 35 H 1.547043 2.509818 -2.757250 0
M  V30 36 H -0.616943 3.060141 -0.935965 0
M  V30 37 H -1.112360 2.011734 -2.313040 0
M  V30 38 H -1.421822 1.117134 0.564082 0
M  V30 39 H -2.743576 1.993309 -0.283427 0
M  V30 40 H -3.586914 -0.376264 -2.486572 0
M  V30 41 H -1.486675 -1.152100 0.517826 0
M  V30 42 H -3.621824 0.328837 1.187961 0
M  V30 43 H -3.242268 -1.237416 1.929830 0
M  V30 44 H -5.299837 -0.808508 -0.314161 0
M  V30 45 H -5.561937 -0.897861 1.445714 0
M  V30 46 H -5.285892 -3.190067 1.437020 0
M  V30 47 H -5.641982 -3.061713 -0.324239 0
M  V30 48 H -3.000780 -3.579570 1.065717 0
M  V30 49 H -3.716335 -4.231294 -0.426162 0
M  V30 50 H -3.267942 -2.247240 -1.687104 0
M  V30 51 H -1.800750 -2.923614 -0.934089 0
M  V30 52 H -1.322763 0.118950 -3.043844 0
M  V30 53 H -1.331479 -1.474207 -2.290523 0
M  V30 54 H 0.300995 -0.902847 -0.681690 0
M  V30 55 H 0.863296 -0.577077 -2.340594 0
M  V30 56 H 0.480444 1.756501 0.929962 0
M  V30 END ATOM
M  V30 BEGIN BOND
M  V30 1 1 1 2
M  V30 2 2 2 3
M  V30 3 1 3 4
M  V30 4 1 4 5
M  V30 5 2 5 6
M  V30 6 1 6 7
M  V30 7 2 7 8
M  V30 8 1 8 9
M  V30 9 2 9 10
M  V30 10 1 10 11
M  V30 11 1 10 12
M  V30 12 2 12 13
M  V30 13 1 12 14
M  V30 14 1 15 14 CFG=3
M  V30 15 1 15 16
M  V30 16 1 16 17
M  V30 17 1 17 18
M  V30 18 1 18 19 CFG=3
M  V30 19 1 18 20
M  V30 20 1 20 21
M  V30 21 1 21 22
M  V30 22 1 22 23
M  V30 23 1 23 24
M  V30 24 1 24 25
M  V30 25 1 18 26
M  V30 26 1 26 27
M  V30 27 1 15 28
M  V30 28 1 6 2
M  V30 29 1 11 7
M  V30 30 1 27 15
M  V30 31 1 28 9
M  V30 32 1 25 20
M  V30 33 1 1 29
M  V30 34 1 1 30
M  V30 35 1 1 31
M  V30 36 1 4 32
M  V30 37 1 5 33
M  V30 38 1 8 34
M  V30 39 1 14 35
M  V30 40 1 16 36
M  V30 41 1 16 37
M  V30 42 1 17 38
M  V30 43 1 17 39
M  V30 44 1 19 40
M  V30 45 1 20 41
M  V30 46 1 21 42
M  V30 47 1 21 43
M  V30 48 1 22 44
M  V30 49 1 22 45
M  V30 50 1 23 46
M  V30 51 1 23 47
M  V30 52 1 24 48
M  V30 53 1 24 49
M  V30 54 1 25 50
M  V30 55 1 25 51
M  V30 56 1 26 52
M  V30 57 1 26 53
M  V30 58 1 27 54
M  V30 59 1 27 55
M  V30 60 1 28 56
M  V30 END BOND
M  V30 END CTAB
M  END
>  <Dataset>  (574) 
ChEMBL_Kinases

>  <Ligand_Instance>  (574) 
nan

>  <PDB_ID>  (574) 
nan

>  <Standardized_SMILES>  (574) 
Cc1n[nH]cc1-c1cc2c(s1)C(=O)N[C@]1(CC[C@](O)(C3CCCCC3)CC1)N2

>  <Name>  (574) 
nan

>  <Pocket>  (574) 
nan

>  <ATP_Site>  (574) 
nan

>  <Peripheral>  (574) 
nan

>  <Num_H_Atoms_ProtBoundConf>  (574) 
nan

>  <Num_Resolved_Atoms>  (574) 
nan

>  <Num_Not_Resolved_Atoms>  (574) 
nan

$$$$
CHEMBL4782211
     RDKit          3D

  0  0  0  0  0  0  0  0  0  0999 V3000
M  V30 BEGIN CTAB
M  V30 COUNTS 84 89 0 0 0
M  V30 BEGIN ATOM
M  V30 1 C 0.878451 -7.086301 4.327764 0
M  V30 2 N 0.023687 -6.002658 3.820062 0
M  V30 3 C 0.191918 -4.687480 4.244036 0
M  V30 4 O 1.077268 -4.427702 5.070242 0
M  V30 5 C -0.661195 -3.656509 3.717733 0
M  V30 6 S -0.444080 -1.899281 4.290619 0
M  V30 7 C -1.730833 -1.248194 3.285619 0
M  V30 8 C -2.123954 0.157345 3.236938 0
M  V30 9 C -1.512284 1.094350 4.007328 0
M  V30 10 C -1.869893 2.448733 3.970153 0
M  V30 11 N -2.876727 2.778627 3.110060 0
M  V30 12 C -3.479029 1.847515 2.350310 0
M  V30 13 N -4.543473 2.183145 1.436421 0
M  V30 14 C -5.756387 2.044910 2.157953 0
M  V30 15 O -5.668034 1.678791 3.380250 0
M  V30 16 C -7.158875 2.279280 1.655513 0
M  V30 17 C -8.245160 2.449442 2.621698 0
M  V30 18 C -8.113328 1.095945 2.016343 0
M  V30 19 C -3.124544 0.515166 2.388703 0
M  V30 20 N -2.219254 -2.250046 2.634485 0
M  V30 21 C -1.710744 -3.445765 2.828849 0
M  V30 22 O -2.084532 -4.638296 2.235695 0
M  V30 23 C -3.135758 -4.753639 1.266941 0
M  V30 24 C -2.708336 -3.842481 0.129702 0
M  V30 25 O -1.477370 -4.313288 -0.334400 0
M  V30 26 C -0.979895 -3.515815 -1.351981 0
M  V30 27 C 0.366823 -4.089793 -1.766360 0
M  V30 28 O 0.939322 -3.338777 -2.777499 0
M  V30 29 C 2.183732 -3.916613 -3.090054 0
M  V30 30 C 2.874355 -3.070216 -4.166051 0
M  V30 31 O 3.061697 -1.757509 -3.675441 0
M  V30 32 C 3.659136 -0.806856 -4.464127 0
M  V30 33 C 4.152961 -0.908696 -5.753195 0
M  V30 34 C 4.718462 0.199893 -6.346308 0
M  V30 35 C 4.797663 1.415683 -5.667155 0
M  V30 36 C 4.306840 1.527572 -4.377875 0
M  V30 37 C 3.734109 0.410189 -3.771955 0
M  V30 38 C 3.335785 0.905655 -2.435853 0
M  V30 39 O 2.769964 0.190923 -1.558880 0
M  V30 40 N 3.663157 2.276614 -2.256271 0
M  V30 41 C 3.385515 3.012035 -1.049009 0
M  V30 42 C 4.711216 3.440427 -0.445498 0
M  V30 43 C 4.498979 3.989001 0.963370 0
M  V30 44 C 3.572176 5.141833 0.809806 0
M  V30 45 O 3.710809 6.045696 1.700220 0
M  V30 46 N 2.605134 5.216910 -0.258112 0
M  V30 47 C 2.559935 4.215288 -1.264727 0
M  V30 48 O 1.834904 4.362003 -2.302292 0
M  V30 49 C 4.274616 2.685295 -3.467452 0
M  V30 50 O 4.684646 3.847926 -3.640580 0
M  V30 51 H 1.382264 -6.781996 5.245661 0
M  V30 52 H 1.559202 -7.438192 3.525469 0
M  V30 53 H 0.186786 -7.918735 4.558461 0
M  V30 54 H -0.711542 -6.251077 3.135392 0
M  V30 55 H -0.729498 0.754833 4.657356 0
M  V30 56 H -1.375670 3.188877 4.588670 0
M  V30 57 H -4.670540 2.486947 0.435172 0
M  V30 58 H -7.266783 2.609177 0.594705 0
M  V30 59 H -9.144889 3.007122 2.354949 0
M  V30 60 H -7.928270 2.544359 3.687164 0
M  V30 61 H -8.746113 0.721585 1.210341 0
M  V30 62 H -7.703676 0.291849 2.649372 0
M  V30 63 H -3.622275 -0.210850 1.766105 0
M  V30 64 H -3.246141 -5.776261 0.911844 0
M  V30 65 H -4.081377 -4.405150 1.735075 0
M  V30 66 H -3.460650 -4.027122 -0.681377 0
M  V30 67 H -2.690253 -2.782165 0.392284 0
M  V30 68 H -1.645399 -3.546242 -2.255127 0
M  V30 69 H -0.894452 -2.455662 -1.064743 0
M  V30 70 H 0.235433 -5.138067 -2.060064 0
M  V30 71 H 1.082484 -4.087813 -0.917199 0
M  V30 72 H 1.970906 -4.907422 -3.531937 0
M  V30 73 H 2.862039 -3.989255 -2.239993 0
M  V30 74 H 2.349331 -3.111301 -5.118246 0
M  V30 75 H 3.887476 -3.513708 -4.315405 0
M  V30 76 H 4.040393 -1.878413 -6.177564 0
M  V30 77 H 5.091936 0.095325 -7.337375 0
M  V30 78 H 5.237276 2.299871 -6.114616 0
M  V30 79 H 2.883170 2.362948 -0.284673 0
M  V30 80 H 5.040406 4.319830 -1.048501 0
M  V30 81 H 5.434267 2.630002 -0.375203 0
M  V30 82 H 5.462359 4.321419 1.345193 0
M  V30 83 H 3.981595 3.240297 1.600044 0
M  V30 84 H 1.946900 6.031546 -0.256638 0
M  V30 END ATOM
M  V30 BEGIN BOND
M  V30 1 1 1 2
M  V30 2 1 2 3
M  V30 3 2 3 4
M  V30 4 1 3 5
M  V30 5 1 5 6
M  V30 6 1 6 7
M  V30 7 1 7 8
M  V30 8 2 8 9
M  V30 9 1 9 10
M  V30 10 2 10 11
M  V30 11 1 11 12
M  V30 12 1 12 13
M  V30 13 1 13 14
M  V30 14 2 14 15
M  V30 15 1 14 16
M  V30 16 1 16 17
M  V30 17 1 17 18
M  V30 18 2 12 19
M  V30 19 2 7 20
M  V30 20 1 20 21
M  V30 21 1 21 22
M  V30 22 1 22 23
M  V30 23 1 23 24
M  V30 24 1 24 25
M  V30 25 1 25 26
M  V30 26 1 26 27
M  V30 27 1 27 28
M  V30 28 1 28 29
M  V30 29 1 29 30
M  V30 30 1 30 31
M  V30 31 1 31 32
M  V30 32 2 32 33
M  V30 33 1 33 34
M  V30 34 2 34 35
M  V30 35 1 35 36
M  V30 36 2 36 37
M  V30 37 1 37 38
M  V30 38 2 38 39
M  V30 39 1 38 40
M  V30 40 1 40 41
M  V30 41 1 41 42
M  V30 42 1 42 43
M  V30 43 1 43 44
M  V30 44 2 44 45
M  V30 45 1 44 46
M  V30 46 1 46 47
M  V30 47 2 47 48
M  V30 48 1 40 49
M  V30 49 2 49 50
M  V30 50 2 21 5
M  V30 51 1 37 32
M  V30 52 1 47 41
M  V30 53 1 19 8
M  V30 54 1 49 36
M  V30 55 1 18 16
M  V30 56 1 1 51
M  V30 57 1 1 52
M  V30 58 1 1 53
M  V30 59 1 2 54
M  V30 60 1 9 55
M  V30 61 1 10 56
M  V30 62 1 13 57
M  V30 63 1 16 58
M  V30 64 1 17 59
M  V30 65 1 17 60
M  V30 66 1 18 61
M  V30 67 1 18 62
M  V30 68 1 19 63
M  V30 69 1 23 64
M  V30 70 1 23 65
M  V30 71 1 24 66
M  V30 72 1 24 67
M  V30 73 1 26 68
M  V30 74 1 26 69
M  V30 75 1 27 70
M  V30 76 1 27 71
M  V30 77 1 29 72
M  V30 78 1 29 73
M  V30 79 1 30 74
M  V30 80 1 30 75
M  V30 81 1 33 76
M  V30 82 1 34 77
M  V30 83 1 35 78
M  V30 84 1 41 79
M  V30 85 1 42 80
M  V30 86 1 42 81
M  V30 87 1 43 82
M  V30 88 1 43 83
M  V30 89 1 46 84
M  V30 END BOND
M  V30 END CTAB
M  END
>  <Dataset>  (575) 
ChEMBL_Kinases

>  <Ligand_Instance>  (575) 
nan

>  <PDB_ID>  (575) 
nan

>  <Standardized_SMILES>  (575) 
CNC(=O)c1sc(-c2ccnc(NC(=O)C3CC3)c2)nc1OCCOCCOCCOc1cccc2c1C(=O)N(C1CCC(=O)NC1=O)C2=O

>  <Name>  (575) 
nan

>  <Pocket>  (575) 
nan

>  <ATP_Site>  (575) 
nan

>  <Peripheral>  (575) 
nan

>  <Num_H_Atoms_ProtBoundConf>  (575) 
nan

>  <Num_Resolved_Atoms>  (575) 
nan

>  <Num_Not_Resolved_Atoms>  (575) 
nan

$$$$
CHEMBL4782248
     RDKit          3D

  0  0  0  0  0  0  0  0  0  0999 V3000
M  V30 BEGIN CTAB
M  V30 COUNTS 44 47 0 0 0
M  V30 BEGIN ATOM
M  V30 1 O 3.340987 -0.157324 1.567536 0
M  V30 2 C 2.584487 -0.324092 0.580588 0
M  V30 3 N 3.135715 -0.595501 -0.687063 0
M  V30 4 C 4.490981 -0.720610 -1.062261 0
M  V30 5 C 5.587122 -0.602766 -0.257278 0
M  V30 6 C 6.898151 -0.732427 -0.664189 0
M  V30 7 C 7.142965 -1.004499 -1.994757 0
M  V30 8 F 8.409864 -1.139671 -2.437944 0
M  V30 9 C 6.059058 -1.130418 -2.838283 0
M  V30 10 C 4.765275 -0.991770 -2.382607 0
M  V30 11 F 3.746575 -1.128597 -3.268796 0
M  V30 12 N 1.198443 -0.213717 0.875339 0
M  V30 13 C 0.815643 0.070827 2.241076 0
M  V30 14 C 0.063028 1.371191 2.368367 0
M  V30 15 C -1.269951 1.175174 1.636030 0
M  V30 16 N -2.063795 0.151218 2.253688 0
M  V30 17 C -3.344562 -0.220928 1.776298 0
M  V30 18 N -3.929142 0.344068 0.714149 0
M  V30 19 C -5.141435 -0.054121 0.315213 0
M  V30 20 N -5.819616 -1.031032 0.958545 0
M  V30 21 C -5.313978 -1.662895 2.041747 0
M  V30 22 N -5.700875 -2.637528 2.888287 0
M  V30 23 N -4.737158 -2.820153 3.778988 0
M  V30 24 C -3.716075 -1.967250 3.520359 0
M  V30 25 C -4.066208 -1.212707 2.406000 0
M  V30 26 C -0.914268 0.851909 0.223327 0
M  V30 27 C 0.014371 -0.323837 0.093475 0
M  V30 28 H 2.376146 -0.706684 -1.393444 0
M  V30 29 H 5.456447 -0.392157 0.783977 0
M  V30 30 H 7.720162 -0.628154 0.020083 0
M  V30 31 H 6.203998 -1.342594 -3.884673 0
M  V30 32 H 1.712917 0.187091 2.907617 0
M  V30 33 H 0.261681 -0.807210 2.648422 0
M  V30 34 H -0.092365 1.576545 3.436456 0
M  V30 35 H 0.633286 2.136566 1.835417 0
M  V30 36 H -1.804360 2.138542 1.669719 0
M  V30 37 H -1.670593 -0.325559 3.081304 0
M  V30 38 H -5.593308 0.420453 -0.549289 0
M  V30 39 H -6.622455 -3.073516 2.738129 0
M  V30 40 H -2.805118 -1.918260 4.107625 0
M  V30 41 H -1.834826 0.654598 -0.361658 0
M  V30 42 H -0.459208 1.775741 -0.225959 0
M  V30 43 H 0.224774 -0.439561 -1.004248 0
M  V30 44 H -0.544894 -1.219205 0.422272 0
M  V30 END ATOM
M  V30 BEGIN BOND
M  V30 1 2 1 2
M  V30 2 1 2 3
M  V30 3 1 3 4
M  V30 4 2 4 5
M  V30 5 1 5 6
M  V30 6 2 6 7
M  V30 7 1 7 8
M  V30 8 1 7 9
M  V30 9 2 9 10
M  V30 10 1 10 11
M  V30 11 1 2 12
M  V30 12 1 12 13
M  V30 13 1 13 14
M  V30 14 1 14 15
M  V30 15 1 15 16
M  V30 16 1 16 17
M  V30 17 2 17 18
M  V30 18 1 18 19
M  V30 19 2 19 20
M  V30 20 1 20 21
M  V30 21 1 21 22
M  V30 22 1 22 23
M  V30 23 2 23 24
M  V30 24 1 24 25
M  V30 25 1 15 26
M  V30 26 1 26 27
M  V30 27 1 10 4
M  V30 28 1 27 12
M  V30 29 1 25 17
M  V30 30 2 25 21
M  V30 31 1 3 28
M  V30 32 1 5 29
M  V30 33 1 6 30
M  V30 34 1 9 31
M  V30 35 1 13 32
M  V30 36 1 13 33
M  V30 37 1 14 34
M  V30 38 1 14 35
M  V30 39 1 15 36
M  V30 40 1 16 37
M  V30 41 1 19 38
M  V30 42 1 22 39
M  V30 43 1 24 40
M  V30 44 1 26 41
M  V30 45 1 26 42
M  V30 46 1 27 43
M  V30 47 1 27 44
M  V30 END BOND
M  V30 END CTAB
M  END
>  <Dataset>  (576) 
ChEMBL_Kinases

>  <Ligand_Instance>  (576) 
nan

>  <PDB_ID>  (576) 
nan

>  <Standardized_SMILES>  (576) 
O=C(Nc1ccc(F)cc1F)N1CCC(Nc2ncnc3[nH]ncc23)CC1

>  <Name>  (576) 
nan

>  <Pocket>  (576) 
nan

>  <ATP_Site>  (576) 
nan

>  <Peripheral>  (576) 
nan

>  <Num_H_Atoms_ProtBoundConf>  (576) 
nan

>  <Num_Resolved_Atoms>  (576) 
nan

>  <Num_Not_Resolved_Atoms>  (576) 
nan

$$$$
CHEMBL4209288
     RDKit          3D

  0  0  0  0  0  0  0  0  0  0999 V3000
M  V30 BEGIN CTAB
M  V30 COUNTS 54 57 0 0 0
M  V30 BEGIN ATOM
M  V30 1 C 5.486914 2.465009 4.574624 0
M  V30 2 N 5.732004 2.619725 3.153500 0
M  V30 3 C 5.376548 3.958675 2.782506 0
M  V30 4 C 5.016752 1.594409 2.459072 0
M  V30 5 C 5.196442 1.659306 0.959123 0
M  V30 6 C 4.401763 0.532462 0.284758 0
M  V30 7 O 3.022066 0.629177 0.568306 0
M  V30 8 C 2.076709 -0.262733 0.081754 0
M  V30 9 C 0.753061 -0.070806 0.424612 0
M  V30 10 C -0.278849 -0.884916 0.006790 0
M  V30 11 C -1.672745 -0.668038 0.378292 0
M  V30 12 C -2.127486 0.340121 1.166105 0
M  V30 13 C -3.450676 0.528134 1.505548 0
M  V30 14 C -4.400105 -0.359159 1.021997 0
M  V30 15 N -5.722100 -0.388016 1.206914 0
M  V30 16 C -6.175378 -1.445524 0.525248 0
M  V30 17 C -5.125262 -2.080377 -0.089560 0
M  V30 18 C -5.216934 -3.273763 -0.924153 0
M  V30 19 C -6.426666 -3.871085 -1.161131 0
M  V30 20 C -6.647367 -4.992128 -1.924644 0
M  V30 21 N -5.552064 -5.542968 -2.487092 0
M  V30 22 C -4.326705 -4.990066 -2.284229 0
M  V30 23 N -3.204306 -5.611432 -2.901275 0
M  V30 24 N -4.170108 -3.882246 -1.520140 0
M  V30 25 C -3.952991 -1.398782 0.213041 0
M  V30 26 C -2.615486 -1.553636 -0.105064 0
M  V30 27 N 0.091417 -1.924984 -0.790407 0
M  V30 28 C 1.395515 -2.117481 -1.130683 0
M  V30 29 N 1.649904 -3.248130 -1.975020 0
M  V30 30 N 2.374641 -1.300122 -0.702231 0
M  V30 31 H 6.282197 1.898776 5.102050 0
M  V30 32 H 5.300834 3.450307 5.048260 0
M  V30 33 H 4.514744 1.909472 4.714918 0
M  V30 34 H 5.252539 4.600844 3.677563 0
M  V30 35 H 6.252368 4.377496 2.228620 0
M  V30 36 H 4.466007 3.946481 2.151503 0
M  V30 37 H 3.940406 1.689774 2.732543 0
M  V30 38 H 5.356595 0.623871 2.873101 0
M  V30 39 H 6.264526 1.429345 0.751532 0
M  V30 40 H 4.979192 2.636298 0.538877 0
M  V30 41 H 4.803841 -0.441312 0.604928 0
M  V30 42 H 4.511125 0.586865 -0.815482 0
M  V30 43 H 0.510208 0.753521 1.048559 0
M  V30 44 H -1.435511 1.046909 1.561496 0
M  V30 45 H -3.745227 1.356552 2.140498 0
M  V30 46 H -6.253268 0.308757 1.785435 0
M  V30 47 H -7.235426 -1.729077 0.488464 0
M  V30 48 H -7.310285 -3.418549 -0.701556 0
M  V30 49 H -7.649880 -5.379318 -2.044762 0
M  V30 50 H -2.680033 -6.432129 -2.477418 0
M  V30 51 H -2.685758 -5.435335 -3.807690 0
M  V30 52 H -2.420188 -2.405400 -0.741393 0
M  V30 53 H 2.318223 -4.055309 -1.928558 0
M  V30 54 H 1.045223 -3.302920 -2.839351 0
M  V30 END ATOM
M  V30 BEGIN BOND
M  V30 1 1 1 2
M  V30 2 1 2 3
M  V30 3 1 2 4
M  V30 4 1 4 5
M  V30 5 1 5 6
M  V30 6 1 6 7
M  V30 7 1 7 8
M  V30 8 2 8 9
M  V30 9 1 9 10
M  V30 10 1 10 11
M  V30 11 2 11 12
M  V30 12 1 12 13
M  V30 13 2 13 14
M  V30 14 1 14 15
M  V30 15 1 15 16
M  V30 16 2 16 17
M  V30 17 1 17 18
M  V30 18 2 18 19
M  V30 19 1 19 20
M  V30 20 2 20 21
M  V30 21 1 21 22
M  V30 22 1 22 23
M  V30 23 2 22 24
M  V30 24 1 17 25
M  V30 25 2 25 26
M  V30 26 2 10 27
M  V30 27 1 27 28
M  V30 28 1 28 29
M  V30 29 2 28 30
M  V30 30 1 30 8
M  V30 31 1 26 11
M  V30 32 1 25 14
M  V30 33 1 24 18
M  V30 34 1 1 31
M  V30 35 1 1 32
M  V30 36 1 1 33
M  V30 37 1 3 34
M  V30 38 1 3 35
M  V30 39 1 3 36
M  V30 40 1 4 37
M  V30 41 1 4 38
M  V30 42 1 5 39
M  V30 43 1 5 40
M  V30 44 1 6 41
M  V30 45 1 6 42
M  V30 46 1 9 43
M  V30 47 1 12 44
M  V30 48 1 13 45
M  V30 49 1 15 46
M  V30 50 1 16 47
M  V30 51 1 19 48
M  V30 52 1 20 49
M  V30 53 1 23 50
M  V30 54 1 23 51
M  V30 55 1 26 52
M  V30 56 1 29 53
M  V30 57 1 29 54
M  V30 END BOND
M  V30 END CTAB
M  END
>  <Dataset>  (577) 
ChEMBL_Kinases

>  <Ligand_Instance>  (577) 
nan

>  <PDB_ID>  (577) 
nan

>  <Standardized_SMILES>  (577) 
CN(C)CCCOc1cc(-c2ccc3[nH]cc(-c4ccnc(N)n4)c3c2)nc(N)n1

>  <Name>  (577) 
nan

>  <Pocket>  (577) 
nan

>  <ATP_Site>  (577) 
nan

>  <Peripheral>  (577) 
nan

>  <Num_H_Atoms_ProtBoundConf>  (577) 
nan

>  <Num_Resolved_Atoms>  (577) 
nan

>  <Num_Not_Resolved_Atoms>  (577) 
nan

$$$$
CHEMBL478225
     RDKit          3D

  0  0  0  0  0  0  0  0  0  0999 V3000
M  V30 BEGIN CTAB
M  V30 COUNTS 52 55 0 0 0
M  V30 BEGIN ATOM
M  V30 1 C -1.254367 1.149586 -2.469753 0
M  V30 2 C -0.300751 1.569758 -1.433183 0
M  V30 3 C 0.307964 2.800956 -1.547939 0
M  V30 4 C 1.198077 3.189269 -0.571482 0
M  V30 5 C 1.543881 2.447052 0.531521 0
M  V30 6 N 2.452937 2.815855 1.551659 0
M  V30 7 C 3.206351 3.985362 1.698325 0
M  V30 8 O 3.121290 4.879815 0.851446 0
M  V30 9 C 4.118641 4.264710 2.795428 0
M  V30 10 C 4.807556 5.458996 2.830405 0
M  V30 11 C 5.688734 5.737864 3.882605 0
M  V30 12 N 5.902038 4.872934 4.889588 0
M  V30 13 C 5.241770 3.688187 4.888430 0
M  V30 14 Cl 5.501424 2.544650 6.187323 0
M  V30 15 C 4.381255 3.426255 3.852515 0
M  V30 16 C 0.911772 1.229411 0.601222 0
M  V30 17 C 0.022494 0.797338 -0.338625 0
M  V30 18 C -0.584302 -0.515828 -0.160978 0
M  V30 19 C -0.725395 -1.495848 -1.115431 0
M  V30 20 C -1.322346 -2.702136 -0.824615 0
M  V30 21 C -1.803525 -2.977711 0.436068 0
M  V30 22 C -2.461344 -4.235248 0.861690 0
M  V30 23 O -2.874312 -4.393128 2.060333 0
M  V30 24 N -2.703474 -5.380366 0.012130 0
M  V30 25 C -3.351969 -6.343936 0.840031 0
M  V30 26 C -3.663767 -7.592056 0.067331 0
M  V30 27 C -4.546868 -7.534810 -1.133599 0
M  V30 28 C -3.080994 -7.746394 -1.298246 0
M  V30 29 C -1.672687 -2.010395 1.407667 0
M  V30 30 C -1.072933 -0.807347 1.102204 0
M  V30 31 H -2.009258 0.445500 -2.085093 0
M  V30 32 H -0.739957 0.711617 -3.355441 0
M  V30 33 H -1.791544 2.077897 -2.802226 0
M  V30 34 H 0.084639 3.440951 -2.390477 0
M  V30 35 H 1.643108 4.160693 -0.713160 0
M  V30 36 H 2.620539 2.147387 2.335502 0
M  V30 37 H 4.692868 6.219857 2.050296 0
M  V30 38 H 6.223645 6.699941 3.881658 0
M  V30 39 H 3.876089 2.471761 3.890218 0
M  V30 40 H 1.133741 0.575798 1.452747 0
M  V30 41 H -0.351056 -1.280451 -2.087093 0
M  V30 42 H -1.436124 -3.472853 -1.565788 0
M  V30 43 H -2.337736 -5.164210 -0.938525 0
M  V30 44 H -4.348957 -5.975025 1.223478 0
M  V30 45 H -2.783934 -6.575772 1.766738 0
M  V30 46 H -3.689456 -8.516647 0.705912 0
M  V30 47 H -5.164686 -8.432151 -1.339482 0
M  V30 48 H -4.977853 -6.580091 -1.462743 0
M  V30 49 H -2.708524 -8.779162 -1.567526 0
M  V30 50 H -2.525702 -6.941228 -1.805105 0
M  V30 51 H -2.041091 -2.186467 2.424338 0
M  V30 52 H -0.991560 -0.066684 1.911392 0
M  V30 END ATOM
M  V30 BEGIN BOND
M  V30 1 1 1 2
M  V30 2 2 2 3
M  V30 3 1 3 4
M  V30 4 2 4 5
M  V30 5 1 5 6
M  V30 6 1 6 7
M  V30 7 2 7 8
M  V30 8 1 7 9
M  V30 9 2 9 10
M  V30 10 1 10 11
M  V30 11 2 11 12
M  V30 12 1 12 13
M  V30 13 1 13 14
M  V30 14 2 13 15
M  V30 15 1 5 16
M  V30 16 2 16 17
M  V30 17 1 17 18
M  V30 18 2 18 19
M  V30 19 1 19 20
M  V30 20 2 20 21
M  V30 21 1 21 22
M  V30 22 2 22 23
M  V30 23 1 22 24
M  V30 24 1 24 25
M  V30 25 1 25 26
M  V30 26 1 26 27
M  V30 27 1 27 28
M  V30 28 1 21 29
M  V30 29 2 29 30
M  V30 30 1 17 2
M  V30 31 1 30 18
M  V30 32 1 15 9
M  V30 33 1 28 26
M  V30 34 1 1 31
M  V30 35 1 1 32
M  V30 36 1 1 33
M  V30 37 1 3 34
M  V30 38 1 4 35
M  V30 39 1 6 36
M  V30 40 1 10 37
M  V30 41 1 11 38
M  V30 42 1 15 39
M  V30 43 1 16 40
M  V30 44 1 19 41
M  V30 45 1 20 42
M  V30 46 1 24 43
M  V30 47 1 25 44
M  V30 48 1 25 45
M  V30 49 1 26 46
M  V30 50 1 27 47
M  V30 51 1 27 48
M  V30 52 1 28 49
M  V30 53 1 28 50
M  V30 54 1 29 51
M  V30 55 1 30 52
M  V30 END BOND
M  V30 END CTAB
M  END
>  <Dataset>  (578) 
ChEMBL_Kinases

>  <Ligand_Instance>  (578) 
nan

>  <PDB_ID>  (578) 
nan

>  <Standardized_SMILES>  (578) 
Cc1ccc(NC(=O)c2ccnc(Cl)c2)cc1-c1ccc(C(=O)NCC2CC2)cc1

>  <Name>  (578) 
nan

>  <Pocket>  (578) 
nan

>  <ATP_Site>  (578) 
nan

>  <Peripheral>  (578) 
nan

>  <Num_H_Atoms_ProtBoundConf>  (578) 
nan

>  <Num_Resolved_Atoms>  (578) 
nan

>  <Num_Not_Resolved_Atoms>  (578) 
nan

$$$$
CHEMBL4209192
     RDKit          3D

  0  0  0  0  0  0  0  0  0  0999 V3000
M  V30 BEGIN CTAB
M  V30 COUNTS 90 95 0 0 0
M  V30 BEGIN ATOM
M  V30 1 C 3.207210 -5.837723 1.620207 0
M  V30 2 C 2.555596 -5.552868 0.262215 0
M  V30 3 C 3.677171 -5.143565 -0.650511 0
M  V30 4 C 3.243759 -4.818084 -2.061321 0 CFG=2
M  V30 5 C 4.524172 -4.436384 -2.780431 0
M  V30 6 O 5.082846 -5.021627 -3.749836 0
M  V30 7 N 5.184741 -3.252149 -2.286412 0
M  V30 8 C 6.637999 -3.048276 -2.384319 0
M  V30 9 C 4.345154 -2.257850 -1.696316 0
M  V30 10 C 4.933868 -1.117345 -1.216088 0
M  V30 11 N 4.102916 -0.221013 -0.681580 0
M  V30 12 C 2.793039 -0.328670 -0.572637 0
M  V30 13 N 1.923104 0.638041 -0.003315 0
M  V30 14 C 0.536438 0.661255 0.180731 0
M  V30 15 C -0.310286 -0.350021 -0.201563 0
M  V30 16 C -1.669276 -0.277225 -0.004246 0
M  V30 17 C -2.230860 0.847180 0.601217 0
M  V30 18 C -3.673750 0.862847 0.770025 0
M  V30 19 O -4.338054 -0.110666 0.346628 0
M  V30 20 N -4.397069 1.899946 1.381948 0
M  V30 21 C -5.819463 1.831618 1.503014 0
M  V30 22 C -6.493377 2.965017 0.796165 0
M  V30 23 C -7.977480 2.711024 0.819932 0
M  V30 24 N -8.396697 1.603195 1.602952 0
M  V30 25 C -8.847566 0.450107 0.908277 0
M  V30 26 C -7.777662 1.406927 2.863419 0
M  V30 27 C -6.327079 1.820917 2.926641 0
M  V30 28 C -1.332587 1.851711 0.974565 0
M  V30 29 C 0.061453 1.811033 0.787697 0
M  V30 30 O 0.541680 2.918397 1.258046 0
M  V30 31 C 1.576894 3.682795 1.508595 0
M  V30 32 C 1.646397 4.250089 2.938095 0
M  V30 33 C 2.668140 5.359070 2.758489 0
M  V30 34 C 2.578517 5.785813 1.302583 0
M  V30 35 C 1.402884 5.015022 0.746143 0
M  V30 36 N 2.295149 -1.464165 -1.061047 0
M  V30 37 C 2.966464 -2.451039 -1.620291 0
M  V30 38 N 2.400816 -3.674082 -2.148145 0
M  V30 39 C 1.077455 -3.559965 -2.709707 0
M  V30 40 C 1.236550 -3.842379 -4.205030 0
M  V30 41 C 0.387784 -5.035720 -4.518195 0
M  V30 42 C 0.058971 -5.687904 -3.193208 0
M  V30 43 C 0.066122 -4.528324 -2.249829 0
M  V30 44 H 2.470353 -5.566412 2.410297 0
M  V30 45 H 4.135252 -5.237711 1.761768 0
M  V30 46 H 3.488704 -6.909864 1.712111 0
M  V30 47 H 1.847619 -4.709715 0.401881 0
M  V30 48 H 2.108833 -6.486241 -0.080943 0
M  V30 49 H 4.436635 -5.939177 -0.616669 0
M  V30 50 H 4.169703 -4.231332 -0.222449 0
M  V30 51 H 2.907356 -5.724351 -2.562734 0
M  V30 52 H 6.952812 -2.737092 -1.374274 0
M  V30 53 H 7.092329 -4.005915 -2.651337 0
M  V30 54 H 6.832348 -2.290154 -3.166794 0
M  V30 55 H 5.974874 -0.885829 -1.234253 0
M  V30 56 H 2.520787 1.422345 0.297200 0
M  V30 57 H 0.039642 -1.237266 -0.664686 0
M  V30 58 H -2.295807 -1.098332 -0.322842 0
M  V30 59 H -3.916586 2.738731 1.763567 0
M  V30 60 H -6.240998 0.892043 1.041845 0
M  V30 61 H -6.085225 3.053665 -0.222876 0
M  V30 62 H -6.264297 3.911190 1.329336 0
M  V30 63 H -8.509451 3.635902 1.129342 0
M  V30 64 H -8.292156 2.516345 -0.236806 0
M  V30 65 H -8.292896 -0.482076 1.187184 0
M  V30 66 H -9.907284 0.267966 1.194496 0
M  V30 67 H -8.821078 0.553434 -0.201995 0
M  V30 68 H -7.822686 0.322939 3.112607 0
M  V30 69 H -8.355632 1.950539 3.633670 0
M  V30 70 H -6.294474 2.857400 3.319687 0
M  V30 71 H -5.719229 1.198195 3.611263 0
M  V30 72 H -1.918171 2.652456 1.426634 0
M  V30 73 H 2.628047 3.368547 1.314313 0
M  V30 74 H 0.678873 4.623559 3.287378 0
M  V30 75 H 2.128656 3.522186 3.628337 0
M  V30 76 H 2.416299 6.253632 3.361956 0
M  V30 77 H 3.699385 5.007250 2.933622 0
M  V30 78 H 2.337091 6.854439 1.199723 0
M  V30 79 H 3.496918 5.529118 0.749614 0
M  V30 80 H 0.453192 5.450983 1.082508 0
M  V30 81 H 1.517419 4.895913 -0.327562 0
M  V30 82 H 0.653246 -2.532147 -2.577131 0
M  V30 83 H 2.280043 -4.126174 -4.478037 0
M  V30 84 H 0.909319 -2.972457 -4.817181 0
M  V30 85 H 0.910991 -5.785338 -5.158499 0
M  V30 86 H -0.542498 -4.762963 -5.088388 0
M  V30 87 H 0.704966 -6.526280 -2.928755 0
M  V30 88 H -0.974117 -6.105289 -3.322453 0
M  V30 89 H -0.959107 -4.051649 -2.359143 0
M  V30 90 H 0.104170 -4.825055 -1.188576 0
M  V30 END ATOM
M  V30 BEGIN BOND
M  V30 1 1 1 2
M  V30 2 1 2 3
M  V30 3 1 3 4
M  V30 4 1 4 5
M  V30 5 2 5 6
M  V30 6 1 5 7
M  V30 7 1 7 8
M  V30 8 1 7 9
M  V30 9 2 9 10
M  V30 10 1 10 11
M  V30 11 2 11 12
M  V30 12 1 12 13
M  V30 13 1 13 14
M  V30 14 2 14 15
M  V30 15 1 15 16
M  V30 16 2 16 17
M  V30 17 1 17 18
M  V30 18 2 18 19
M  V30 19 1 18 20
M  V30 20 1 20 21
M  V30 21 1 21 22
M  V30 22 1 22 23
M  V30 23 1 23 24
M  V30 24 1 24 25
M  V30 25 1 24 26
M  V30 26 1 26 27
M  V30 27 1 17 28
M  V30 28 2 28 29
M  V30 29 1 29 30
M  V30 30 1 30 31
M  V30 31 1 31 32
M  V30 32 1 32 33
M  V30 33 1 33 34
M  V30 34 1 34 35
M  V30 35 1 12 36
M  V30 36 2 36 37
M  V30 37 1 37 38
M  V30 38 1 38 39
M  V30 39 1 39 40
M  V30 40 1 40 41
M  V30 41 1 41 42
M  V30 42 1 42 43
M  V30 43 1 38 4
M  V30 44 1 43 39
M  V30 45 1 37 9
M  V30 46 1 29 14
M  V30 47 1 35 31
M  V30 48 1 27 21
M  V30 49 1 1 44
M  V30 50 1 1 45
M  V30 51 1 1 46
M  V30 52 1 2 47
M  V30 53 1 2 48
M  V30 54 1 3 49
M  V30 55 1 3 50
M  V30 56 1 4 51 CFG=3
M  V30 57 1 8 52
M  V30 58 1 8 53
M  V30 59 1 8 54
M  V30 60 1 10 55
M  V30 61 1 13 56
M  V30 62 1 15 57
M  V30 63 1 16 58
M  V30 64 1 20 59
M  V30 65 1 21 60
M  V30 66 1 22 61
M  V30 67 1 22 62
M  V30 68 1 23 63
M  V30 69 1 23 64
M  V30 70 1 25 65
M  V30 71 1 25 66
M  V30 72 1 25 67
M  V30 73 1 26 68
M  V30 74 1 26 69
M  V30 75 1 27 70
M  V30 76 1 27 71
M  V30 77 1 28 72
M  V30 78 1 31 73
M  V30 79 1 32 74
M  V30 80 1 32 75
M  V30 81 1 33 76
M  V30 82 1 33 77
M  V30 83 1 34 78
M  V30 84 1 34 79
M  V30 85 1 35 80
M  V30 86 1 35 81
M  V30 87 1 39 82
M  V30 88 1 40 83
M  V30 89 1 40 84
M  V30 90 1 41 85
M  V30 91 1 41 86
M  V30 92 1 42 87
M  V30 93 1 42 88
M  V30 94 1 43 89
M  V30 95 1 43 90
M  V30 END BOND
M  V30 END CTAB
M  END
>  <Dataset>  (579) 
ChEMBL_Kinases

>  <Ligand_Instance>  (579) 
nan

>  <PDB_ID>  (579) 
nan

>  <Standardized_SMILES>  (579) 
CCC[C@@H]1C(=O)N(C)c2cnc(Nc3ccc(C(=O)NC4CCN(C)CC4)cc3OC3CCCC3)nc2N1C1CCCC1

>  <Name>  (579) 
nan

>  <Pocket>  (579) 
nan

>  <ATP_Site>  (579) 
nan

>  <Peripheral>  (579) 
nan

>  <Num_H_Atoms_ProtBoundConf>  (579) 
nan

>  <Num_Resolved_Atoms>  (579) 
nan

>  <Num_Not_Resolved_Atoms>  (579) 
nan

$$$$
CHEMBL4782123
     RDKit          3D

  0  0  0  0  0  0  0  0  0  0999 V3000
M  V30 BEGIN CTAB
M  V30 COUNTS 49 52 0 0 0
M  V30 BEGIN ATOM
M  V30 1 O -0.987325 4.030709 1.206235 0
M  V30 2 C -0.197064 3.066408 1.018515 0
M  V30 3 N 0.767099 2.600794 1.864806 0
M  V30 4 C 1.489684 1.611834 1.538226 0
M  V30 5 N 2.530418 1.051703 2.358433 0
M  V30 6 C 2.341831 0.755196 3.747614 0 CFG=1
M  V30 7 C 1.864565 1.826926 4.613016 0
M  V30 8 C 0.769091 1.524558 5.591790 0
M  V30 9 C -0.348632 0.675039 5.078924 0 CFG=2
M  V30 10 O -0.753449 -0.186228 6.098798 0
M  V30 11 C 0.062969 -0.202294 3.924437 0
M  V30 12 C 1.527204 -0.490076 3.911861 0
M  V30 13 S 0.958186 1.055446 -0.104688 0
M  V30 14 C -0.304664 2.353996 -0.228853 0
M  V30 15 C -1.035182 2.440910 -1.350879 0
M  V30 16 C -0.890158 1.517043 -2.474172 0
M  V30 17 C -0.835908 1.842151 -3.869060 0
M  V30 18 S -0.683153 0.135616 -4.659445 0
M  V30 19 C -0.725674 -0.659212 -2.945807 0
M  V30 20 C -0.648592 -2.154731 -2.861312 0
M  V30 21 C -0.721896 -2.739168 -1.610489 0
M  V30 22 C -0.676300 -4.112920 -1.473260 0
M  V30 23 C -0.555901 -4.889689 -2.602461 0
M  V30 24 O -0.525160 -6.253808 -2.340657 0
M  V30 25 C -1.688156 -7.046454 -2.294259 0
M  V30 26 F -2.308826 -6.990912 -3.540800 0
M  V30 27 F -1.534178 -8.294218 -1.800570 0
M  V30 28 F -2.582120 -6.378839 -1.440969 0
M  V30 29 C -0.482661 -4.298508 -3.844411 0
M  V30 30 C -0.526796 -2.929355 -4.007413 0
M  V30 31 N -0.818644 0.214749 -2.252731 0
M  V30 32 H 3.439799 0.879636 1.816776 0
M  V30 33 H 3.385990 0.441392 4.108560 0
M  V30 34 H 1.631725 2.783119 4.042850 0
M  V30 35 H 2.721456 2.176645 5.245953 0
M  V30 36 H 0.316616 2.525243 5.857751 0
M  V30 37 H 1.123888 1.140286 6.569868 0
M  V30 38 H -1.240430 1.266596 4.804187 0
M  V30 39 H -1.051791 0.388764 6.874736 0
M  V30 40 H -0.464019 -1.198259 3.941906 0
M  V30 41 H -0.225254 0.248350 2.959511 0
M  V30 42 H 1.757436 -0.961733 4.903185 0
M  V30 43 H 1.769460 -1.196920 3.100883 0
M  V30 44 H -1.733113 3.292881 -1.276867 0
M  V30 45 H -0.900943 3.031551 -4.080686 0
M  V30 46 H -0.818970 -2.052410 -0.767834 0
M  V30 47 H -0.739055 -4.504816 -0.469526 0
M  V30 48 H -0.390540 -4.976205 -4.655115 0
M  V30 49 H -0.469963 -2.468236 -4.980957 0
M  V30 END ATOM
M  V30 BEGIN BOND
M  V30 1 2 1 2
M  V30 2 1 2 3
M  V30 3 2 3 4
M  V30 4 1 4 5
M  V30 5 1 5 6
M  V30 6 1 6 7
M  V30 7 1 7 8
M  V30 8 1 8 9
M  V30 9 1 9 10
M  V30 10 1 9 11
M  V30 11 1 11 12
M  V30 12 1 4 13
M  V30 13 1 13 14
M  V30 14 2 14 15
M  V30 15 1 15 16
M  V30 16 2 16 17
M  V30 17 1 17 18
M  V30 18 1 18 19
M  V30 19 1 19 20
M  V30 20 2 20 21
M  V30 21 1 21 22
M  V30 22 2 22 23
M  V30 23 1 23 24
M  V30 24 1 24 25
M  V30 25 1 25 26
M  V30 26 1 25 27
M  V30 27 1 25 28
M  V30 28 1 23 29
M  V30 29 2 29 30
M  V30 30 2 19 31
M  V30 31 1 14 2
M  V30 32 1 31 16
M  V30 33 1 12 6
M  V30 34 1 30 20
M  V30 35 1 5 32
M  V30 36 1 6 33 CFG=1
M  V30 37 1 7 34
M  V30 38 1 7 35
M  V30 39 1 8 36
M  V30 40 1 8 37
M  V30 41 1 9 38 CFG=3
M  V30 42 1 10 39
M  V30 43 1 11 40
M  V30 44 1 11 41
M  V30 45 1 12 42
M  V30 46 1 12 43
M  V30 47 1 15 44
M  V30 48 1 17 45
M  V30 49 1 21 46
M  V30 50 1 22 47
M  V30 51 1 29 48
M  V30 52 1 30 49
M  V30 END BOND
M  V30 END CTAB
M  END
>  <Dataset>  (580) 
ChEMBL_Kinases

>  <Ligand_Instance>  (580) 
nan

>  <PDB_ID>  (580) 
nan

>  <Standardized_SMILES>  (580) 
O=C1N=C(N[C@H]2CC[C@H](O)CC2)S/C1=C\c1csc(-c2ccc(OC(F)(F)F)cc2)n1

>  <Name>  (580) 
nan

>  <Pocket>  (580) 
nan

>  <ATP_Site>  (580) 
nan

>  <Peripheral>  (580) 
nan

>  <Num_H_Atoms_ProtBoundConf>  (580) 
nan

>  <Num_Resolved_Atoms>  (580) 
nan

>  <Num_Not_Resolved_Atoms>  (580) 
nan

$$$$
CHEMBL4207519
     RDKit          3D

  0  0  0  0  0  0  0  0  0  0999 V3000
M  V30 BEGIN CTAB
M  V30 COUNTS 52 58 0 0 0
M  V30 BEGIN ATOM
M  V30 1 O 3.863630 -4.826877 1.673179 0
M  V30 2 C 4.415871 -3.903227 1.006703 0
M  V30 3 C 4.992110 -2.626727 1.535740 0
M  V30 4 C 4.162689 -1.503178 0.901051 0
M  V30 5 C 4.266204 -1.696530 -0.553519 0
M  V30 6 C 4.199220 -0.568687 -1.344521 0
M  V30 7 O 4.041838 0.746896 -0.942013 0
M  V30 8 C 2.935335 1.216236 -0.256302 0
M  V30 9 C 3.100541 2.564751 0.085067 0
M  V30 10 C 2.119490 3.266130 0.781578 0
M  V30 11 C 0.935837 2.656355 1.166592 0
M  V30 12 C 0.808141 1.333625 0.814908 0
M  V30 13 C 1.759141 0.617403 0.128251 0
M  V30 14 C -0.515956 0.893121 1.321303 0 CFG=1
M  V30 15 C -1.113410 2.036232 2.056141 0 CFG=1
M  V30 16 O -0.184039 3.071485 1.841219 0
M  V30 17 C -1.751148 1.488108 0.812426 0 CFG=2
M  V30 18 C -2.985966 0.657782 0.953395 0
M  V30 19 N -3.982777 0.638355 0.032139 0
M  V30 20 C -4.943025 -0.208731 0.462039 0
M  V30 21 C -6.150562 -0.587334 -0.089302 0
M  V30 22 C -6.894287 -1.492681 0.640072 0
M  V30 23 C -6.519416 -2.033749 1.858608 0
M  V30 24 C -7.385509 -3.005433 2.576561 0
M  V30 25 F -8.335535 -2.429464 3.364858 0
M  V30 26 F -8.040753 -3.811804 1.640741 0
M  V30 27 F -6.595638 -3.880548 3.332876 0
M  V30 28 C -5.299076 -1.618187 2.363404 0
M  V30 29 C -4.494102 -0.706930 1.683136 0
M  V30 30 N -3.290475 -0.155619 1.956086 0
M  V30 31 C 4.294745 -0.676159 -2.737091 0
M  V30 32 C 4.456653 -1.903745 -3.347044 0
M  V30 33 N 4.518879 -2.981004 -2.565010 0
M  V30 34 C 4.428309 -2.885198 -1.229474 0
M  V30 35 N 4.510917 -4.080304 -0.422888 0
M  V30 36 H 6.033284 -2.563267 1.222596 0
M  V30 37 H 4.839345 -2.528091 2.619229 0
M  V30 38 H 4.575791 -0.513198 1.173995 0
M  V30 39 H 3.133410 -1.643312 1.293176 0
M  V30 40 H 3.978163 3.185599 -0.147634 0
M  V30 41 H 2.231833 4.309420 1.053208 0
M  V30 42 H 1.711967 -0.416370 -0.177237 0
M  V30 43 H -0.573107 -0.071901 1.884085 0
M  V30 44 H -1.603404 1.936501 3.034403 0
M  V30 45 H -1.681040 2.108312 -0.107056 0
M  V30 46 H -6.510999 -0.205284 -1.041162 0
M  V30 47 H -7.853684 -1.818828 0.242336 0
M  V30 48 H -4.954269 -2.014327 3.322742 0
M  V30 49 H -2.711856 -0.341801 2.804879 0
M  V30 50 H 4.251309 0.166870 -3.433509 0
M  V30 51 H 4.535445 -2.042118 -4.414281 0
M  V30 52 H 4.634275 -5.049110 -0.846988 0
M  V30 END ATOM
M  V30 BEGIN BOND
M  V30 1 2 1 2
M  V30 2 1 2 3
M  V30 3 1 3 4
M  V30 4 1 4 5
M  V30 5 2 5 6
M  V30 6 1 6 7
M  V30 7 1 7 8
M  V30 8 2 8 9
M  V30 9 1 9 10
M  V30 10 2 10 11
M  V30 11 1 11 12
M  V30 12 2 12 13
M  V30 13 1 12 14
M  V30 14 1 14 15
M  V30 15 1 15 16
M  V30 16 1 15 17
M  V30 17 1 17 18
M  V30 18 2 18 19
M  V30 19 1 19 20
M  V30 20 2 20 21
M  V30 21 1 21 22
M  V30 22 2 22 23
M  V30 23 1 23 24
M  V30 24 1 24 25
M  V30 25 1 24 26
M  V30 26 1 24 27
M  V30 27 1 23 28
M  V30 28 2 28 29
M  V30 29 1 29 30
M  V30 30 1 6 31
M  V30 31 2 31 32
M  V30 32 1 32 33
M  V30 33 2 33 34
M  V30 34 1 34 35
M  V30 35 1 35 2
M  V30 36 1 34 5
M  V30 37 1 13 8
M  V30 38 1 17 14
M  V30 39 1 30 18
M  V30 40 1 16 11
M  V30 41 1 29 20
M  V30 42 1 3 36
M  V30 43 1 3 37
M  V30 44 1 4 38
M  V30 45 1 4 39
M  V30 46 1 9 40
M  V30 47 1 10 41
M  V30 48 1 13 42
M  V30 49 1 14 43 CFG=1
M  V30 50 1 15 44 CFG=1
M  V30 51 1 17 45 CFG=3
M  V30 52 1 21 46
M  V30 53 1 22 47
M  V30 54 1 28 48
M  V30 55 1 30 49
M  V30 56 1 31 50
M  V30 57 1 32 51
M  V30 58 1 35 52
M  V30 END BOND
M  V30 END CTAB
M  END
>  <Dataset>  (581) 
ChEMBL_Kinases

>  <Ligand_Instance>  (581) 
nan

>  <PDB_ID>  (581) 
nan

>  <Standardized_SMILES>  (581) 
O=C1CCc2c(Oc3ccc4c(c3)[C@H]3[C@@H](O4)[C@@H]3c3nc4ccc(C(F)(F)F)cc4[nH]3)ccnc2N1

>  <Name>  (581) 
nan

>  <Pocket>  (581) 
nan

>  <ATP_Site>  (581) 
nan

>  <Peripheral>  (581) 
nan

>  <Num_H_Atoms_ProtBoundConf>  (581) 
nan

>  <Num_Resolved_Atoms>  (581) 
nan

>  <Num_Not_Resolved_Atoms>  (581) 
nan

$$$$
CHEMBL4782953
     RDKit          3D

  0  0  0  0  0  0  0  0  0  0999 V3000
M  V30 BEGIN CTAB
M  V30 COUNTS 49 52 0 0 0
M  V30 BEGIN ATOM
M  V30 1 N 2.683382 0.016413 -5.149336 0
M  V30 2 C 1.636673 -0.292516 -4.237868 0
M  V30 3 N 0.384545 -0.544127 -4.683028 0
M  V30 4 C -0.627179 -0.839428 -3.847638 0
M  V30 5 C -0.413809 -0.895531 -2.485504 0
M  V30 6 C -1.423082 -1.203762 -1.474697 0
M  V30 7 C -1.160133 -1.844328 -0.272224 0
M  V30 8 N -2.306557 -1.969628 0.418494 0
M  V30 9 N -3.302061 -1.428632 -0.302910 0
M  V30 10 C -4.669355 -1.412838 0.183839 0
M  V30 11 C -4.782978 -0.370917 1.284243 0
M  V30 12 C -4.979835 1.015014 0.758586 0
M  V30 13 N -5.815123 1.086350 -0.404145 0
M  V30 14 C -6.617280 -0.088124 -0.609162 0
M  V30 15 C -5.682986 -1.245605 -0.892169 0
M  V30 16 C -2.781344 -0.962975 -1.447526 0
M  V30 17 C 0.870633 -0.635486 -2.053333 0
M  V30 18 C 1.936550 -0.329164 -2.871440 0
M  V30 19 C 3.302017 -0.058811 -2.332315 0
M  V30 20 O 3.223763 -0.182245 -0.924884 0
M  V30 21 C 4.277023 -0.007880 -0.052289 0
M  V30 22 C 3.881364 -0.197361 1.277364 0
M  V30 23 C 4.823476 -0.058677 2.289468 0
M  V30 24 C 6.139951 0.259456 2.041866 0
M  V30 25 C 6.496588 0.438996 0.726517 0
M  V30 26 C 5.595575 0.311447 -0.309656 0
M  V30 27 H 3.195715 0.917864 -5.096962 0
M  V30 28 H 3.107434 -0.504362 -5.947821 0
M  V30 29 H -1.647372 -1.046021 -4.189982 0
M  V30 30 H -0.162637 -2.185330 0.042017 0
M  V30 31 H -4.849183 -2.391894 0.719934 0
M  V30 32 H -5.546026 -0.635082 2.041545 0
M  V30 33 H -3.806345 -0.388908 1.815313 0
M  V30 34 H -5.444124 1.621183 1.564997 0
M  V30 35 H -3.989504 1.508123 0.546632 0
M  V30 36 H -5.315887 1.315380 -1.289403 0
M  V30 37 H -7.203663 0.079748 -1.544860 0
M  V30 38 H -7.336782 -0.275115 0.194748 0
M  V30 39 H -5.232472 -1.089975 -1.879341 0
M  V30 40 H -6.336131 -2.150795 -0.955891 0
M  V30 41 H -3.320935 -0.480410 -2.223154 0
M  V30 42 H 1.090036 -0.667075 -0.995876 0
M  V30 43 H 4.051582 -0.756264 -2.760911 0
M  V30 44 H 3.581283 1.004348 -2.537494 0
M  V30 45 H 2.882296 -0.450351 1.619054 0
M  V30 46 H 4.550914 -0.198423 3.329862 0
M  V30 47 H 6.889025 0.371710 2.820882 0
M  V30 48 H 7.499103 0.688379 0.442442 0
M  V30 49 H 5.801364 0.437358 -1.365955 0
M  V30 END ATOM
M  V30 BEGIN BOND
M  V30 1 1 1 2
M  V30 2 2 2 3
M  V30 3 1 3 4
M  V30 4 2 4 5
M  V30 5 1 5 6
M  V30 6 1 6 7
M  V30 7 2 7 8
M  V30 8 1 8 9
M  V30 9 1 9 10
M  V30 10 1 10 11
M  V30 11 1 11 12
M  V30 12 1 12 13
M  V30 13 1 13 14
M  V30 14 1 14 15
M  V30 15 1 9 16
M  V30 16 1 5 17
M  V30 17 2 17 18
M  V30 18 1 18 19
M  V30 19 1 19 20
M  V30 20 1 20 21
M  V30 21 2 21 22
M  V30 22 1 22 23
M  V30 23 2 23 24
M  V30 24 1 24 25
M  V30 25 2 25 26
M  V30 26 1 18 2
M  V30 27 1 26 21
M  V30 28 2 16 6
M  V30 29 1 15 10
M  V30 30 1 1 27
M  V30 31 1 1 28
M  V30 32 1 4 29
M  V30 33 1 7 30
M  V30 34 1 10 31
M  V30 35 1 11 32
M  V30 36 1 11 33
M  V30 37 1 12 34
M  V30 38 1 12 35
M  V30 39 1 13 36
M  V30 40 1 14 37
M  V30 41 1 14 38
M  V30 42 1 15 39
M  V30 43 1 15 40
M  V30 44 1 16 41
M  V30 45 1 17 42
M  V30 46 1 19 43
M  V30 47 1 19 44
M  V30 48 1 22 45
M  V30 49 1 23 46
M  V30 50 1 24 47
M  V30 51 1 25 48
M  V30 52 1 26 49
M  V30 END BOND
M  V30 END CTAB
M  END
>  <Dataset>  (582) 
ChEMBL_Kinases

>  <Ligand_Instance>  (582) 
nan

>  <PDB_ID>  (582) 
nan

>  <Standardized_SMILES>  (582) 
Nc1ncc(-c2cnn(C3CCNCC3)c2)cc1COc1ccccc1

>  <Name>  (582) 
nan

>  <Pocket>  (582) 
nan

>  <ATP_Site>  (582) 
nan

>  <Peripheral>  (582) 
nan

>  <Num_H_Atoms_ProtBoundConf>  (582) 
nan

>  <Num_Resolved_Atoms>  (582) 
nan

>  <Num_Not_Resolved_Atoms>  (582) 
nan

$$$$
CHEMBL4782961
     RDKit          3D

  0  0  0  0  0  0  0  0  0  0999 V3000
M  V30 BEGIN CTAB
M  V30 COUNTS 36 39 0 0 0
M  V30 BEGIN ATOM
M  V30 1 F -2.567364 -1.716927 3.761622 0
M  V30 2 C -2.274577 -2.879595 3.067369 0
M  V30 3 F -3.415871 -3.392973 2.450047 0
M  V30 4 F -1.927746 -3.823184 4.011816 0
M  V30 5 C -1.204474 -2.644284 2.056889 0
M  V30 6 C -0.024355 -3.340060 2.146910 0
M  V30 7 N 0.980877 -3.154556 1.241459 0
M  V30 8 C 0.758404 -2.249605 0.247198 0
M  V30 9 N 1.587540 -1.824364 -0.839998 0
M  V30 10 C 2.374387 -0.629883 -0.665695 0
M  V30 11 C 3.129822 -0.110378 -1.695611 0
M  V30 12 C 3.882738 1.036396 -1.533745 0
M  V30 13 C 3.895822 1.699316 -0.314560 0
M  V30 14 N 4.463620 2.799192 0.253022 0
M  V30 15 N 4.087329 2.928308 1.501129 0
M  V30 16 N 3.270272 1.957155 1.842663 0
M  V30 17 C 3.146189 1.190843 0.722289 0
M  V30 18 C 2.403085 0.045268 0.535888 0
M  V30 19 N -0.410174 -1.595521 0.201006 0
M  V30 20 C -1.435248 -1.727848 1.052792 0
M  V30 21 N -2.658530 -1.013072 0.948851 0
M  V30 22 C -3.081912 -0.018562 -0.010699 0
M  V30 23 C -2.413752 1.293879 -0.149412 0
M  V30 24 C -2.262726 0.254362 -1.245849 0
M  V30 25 H 0.181182 -4.060042 2.918214 0
M  V30 26 H 1.668008 -2.317816 -1.756303 0
M  V30 27 H 3.144848 -0.600054 -2.655911 0
M  V30 28 H 4.490833 1.482478 -2.310577 0
M  V30 29 H 2.828509 1.827225 2.779425 0
M  V30 30 H 1.811762 -0.364270 1.335874 0
M  V30 31 H -3.384072 -1.238672 1.688907 0
M  V30 32 H -4.196745 -0.002123 -0.215956 0
M  V30 33 H -1.558620 1.585475 0.475435 0
M  V30 34 H -3.031793 2.169687 -0.479386 0
M  V30 35 H -2.808432 0.387849 -2.203853 0
M  V30 36 H -1.235169 -0.080517 -1.366266 0
M  V30 END ATOM
M  V30 BEGIN BOND
M  V30 1 1 1 2
M  V30 2 1 2 3
M  V30 3 1 2 4
M  V30 4 1 2 5
M  V30 5 2 5 6
M  V30 6 1 6 7
M  V30 7 2 7 8
M  V30 8 1 8 9
M  V30 9 1 9 10
M  V30 10 2 10 11
M  V30 11 1 11 12
M  V30 12 2 12 13
M  V30 13 1 13 14
M  V30 14 2 14 15
M  V30 15 1 15 16
M  V30 16 1 16 17
M  V30 17 2 17 18
M  V30 18 1 8 19
M  V30 19 2 19 20
M  V30 20 1 20 21
M  V30 21 1 21 22
M  V30 22 1 22 23
M  V30 23 1 23 24
M  V30 24 1 20 5
M  V30 25 1 24 22
M  V30 26 1 18 10
M  V30 27 1 17 13
M  V30 28 1 6 25
M  V30 29 1 9 26
M  V30 30 1 11 27
M  V30 31 1 12 28
M  V30 32 1 16 29
M  V30 33 1 18 30
M  V30 34 1 21 31
M  V30 35 1 22 32
M  V30 36 1 23 33
M  V30 37 1 23 34
M  V30 38 1 24 35
M  V30 39 1 24 36
M  V30 END BOND
M  V30 END CTAB
M  END
>  <Dataset>  (583) 
ChEMBL_Kinases

>  <Ligand_Instance>  (583) 
nan

>  <PDB_ID>  (583) 
nan

>  <Standardized_SMILES>  (583) 
FC(F)(F)c1cnc(Nc2ccc3nn[nH]c3c2)nc1NC1CC1

>  <Name>  (583) 
nan

>  <Pocket>  (583) 
nan

>  <ATP_Site>  (583) 
nan

>  <Peripheral>  (583) 
nan

>  <Num_H_Atoms_ProtBoundConf>  (583) 
nan

>  <Num_Resolved_Atoms>  (583) 
nan

>  <Num_Not_Resolved_Atoms>  (583) 
nan

$$$$
CHEMBL4207437
     RDKit          3D

  0  0  0  0  0  0  0  0  0  0999 V3000
M  V30 BEGIN CTAB
M  V30 COUNTS 84 89 0 0 0
M  V30 BEGIN ATOM
M  V30 1 C 5.714877 0.082183 4.081944 0
M  V30 2 C 4.239972 -0.216955 4.308489 0 CFG=2
M  V30 3 C 4.125604 -1.634914 4.705309 0
M  V30 4 O 4.243953 -1.937532 5.937704 0
M  V30 5 N 3.892542 -2.700601 3.823239 0
M  V30 6 C 4.089496 -4.108808 4.110300 0
M  V30 7 C 3.413376 -2.358784 2.516279 0
M  V30 8 C 3.141207 -3.314525 1.549686 0
M  V30 9 N 2.692951 -2.935351 0.344901 0
M  V30 10 C 2.498439 -1.620729 0.050389 0
M  V30 11 N 2.017636 -1.132263 -1.218784 0
M  V30 12 C 0.584484 -1.032435 -1.356762 0
M  V30 13 C -0.273646 -1.407086 -0.322287 0
M  V30 14 C -1.644544 -1.323619 -0.434370 0
M  V30 15 C -2.161319 -0.849579 -1.621253 0
M  V30 16 C -3.610955 -0.758533 -1.751723 0
M  V30 17 O -4.140363 -0.317710 -2.825486 0
M  V30 18 N -4.549869 -1.125162 -0.765774 0
M  V30 19 C -5.975885 -1.003575 -0.976438 0
M  V30 20 C -6.621276 -2.363352 -0.952360 0
M  V30 21 C -6.551845 -2.914105 0.431519 0
M  V30 22 N -7.282986 -2.080171 1.374914 0
M  V30 23 C -7.076374 -2.673523 2.690252 0
M  V30 24 C -6.712979 -0.762134 1.405259 0
M  V30 25 C -6.628641 -0.129344 0.036637 0
M  V30 26 C -1.377032 -0.461225 -2.684510 0
M  V30 27 C -0.009890 -0.563254 -2.524771 0
M  V30 28 O 0.857019 -0.205908 -3.514156 0
M  V30 29 C 0.586088 0.296176 -4.779122 0
M  V30 30 C 1.350549 1.554745 -5.109934 0
M  V30 31 C 1.713770 1.453855 -6.579969 0
M  V30 32 C 1.333329 0.082640 -7.041271 0
M  V30 33 C 1.159654 -0.706496 -5.783248 0
M  V30 34 N 2.773197 -0.729179 1.011059 0
M  V30 35 C 3.220874 -1.027326 2.229769 0
M  V30 36 N 3.448731 0.063605 3.100406 0
M  V30 37 C 3.013697 1.409011 2.971200 0
M  V30 38 C 2.218388 1.757801 1.761614 0
M  V30 39 C 2.144396 3.290225 1.904434 0
M  V30 40 C 3.400082 3.686622 2.615701 0
M  V30 41 C 4.173377 2.404445 2.848494 0
M  V30 42 H 5.929741 0.450381 3.070697 0
M  V30 43 H 6.124321 0.783049 4.842623 0
M  V30 44 H 6.338372 -0.843640 4.195664 0
M  V30 45 H 3.893673 0.399148 5.163771 0
M  V30 46 H 4.528555 -4.226808 5.133514 0
M  V30 47 H 3.072144 -4.581443 4.088709 0
M  V30 48 H 4.698711 -4.625507 3.350871 0
M  V30 49 H 3.291403 -4.359821 1.771199 0
M  V30 50 H 2.580993 -0.850180 -2.028697 0
M  V30 51 H 0.192701 -1.774632 0.592043 0
M  V30 52 H -2.195093 -1.637630 0.418720 0
M  V30 53 H -4.193332 -1.490028 0.134002 0
M  V30 54 H -6.203700 -0.565569 -1.975852 0
M  V30 55 H -6.055595 -3.003066 -1.652379 0
M  V30 56 H -7.668996 -2.306202 -1.336420 0
M  V30 57 H -6.955896 -3.952259 0.443524 0
M  V30 58 H -5.502308 -2.877858 0.789685 0
M  V30 59 H -8.017330 -3.093349 3.097737 0
M  V30 60 H -6.296502 -3.470881 2.677198 0
M  V30 61 H -6.702226 -1.922418 3.422482 0
M  V30 62 H -7.369012 -0.120195 2.028034 0
M  V30 63 H -5.698221 -0.799085 1.855911 0
M  V30 64 H -7.675674 0.083000 -0.316379 0
M  V30 65 H -6.036328 0.793401 0.124865 0
M  V30 66 H -1.831551 -0.103426 -3.574121 0
M  V30 67 H -0.489488 0.427680 -5.011367 0
M  V30 68 H 0.746786 2.477207 -4.990405 0
M  V30 69 H 2.289271 1.618279 -4.519739 0
M  V30 70 H 1.152555 2.177166 -7.200073 0
M  V30 71 H 2.793068 1.671742 -6.730604 0
M  V30 72 H 2.153883 -0.314415 -7.680148 0
M  V30 73 H 0.376474 0.097607 -7.616273 0
M  V30 74 H 2.152459 -1.057798 -5.435737 0
M  V30 75 H 0.441143 -1.546272 -5.901173 0
M  V30 76 H 2.431950 1.743655 3.861144 0
M  V30 77 H 1.180395 1.416858 1.758427 0
M  V30 78 H 2.767019 1.619198 0.803219 0
M  V30 79 H 1.260628 3.567235 2.535449 0
M  V30 80 H 2.004914 3.786461 0.927211 0
M  V30 81 H 3.974888 4.429428 2.049921 0
M  V30 82 H 3.205360 4.125081 3.623990 0
M  V30 83 H 4.759661 2.210374 1.940740 0
M  V30 84 H 4.786367 2.445233 3.751072 0
M  V30 END ATOM
M  V30 BEGIN BOND
M  V30 1 1 1 2
M  V30 2 1 2 3
M  V30 3 2 3 4
M  V30 4 1 3 5
M  V30 5 1 5 6
M  V30 6 1 5 7
M  V30 7 2 7 8
M  V30 8 1 8 9
M  V30 9 2 9 10
M  V30 10 1 10 11
M  V30 11 1 11 12
M  V30 12 2 12 13
M  V30 13 1 13 14
M  V30 14 2 14 15
M  V30 15 1 15 16
M  V30 16 2 16 17
M  V30 17 1 16 18
M  V30 18 1 18 19
M  V30 19 1 19 20
M  V30 20 1 20 21
M  V30 21 1 21 22
M  V30 22 1 22 23
M  V30 23 1 22 24
M  V30 24 1 24 25
M  V30 25 1 15 26
M  V30 26 2 26 27
M  V30 27 1 27 28
M  V30 28 1 28 29
M  V30 29 1 29 30
M  V30 30 1 30 31
M  V30 31 1 31 32
M  V30 32 1 32 33
M  V30 33 1 10 34
M  V30 34 2 34 35
M  V30 35 1 35 36
M  V30 36 1 36 37
M  V30 37 1 37 38
M  V30 38 1 38 39
M  V30 39 1 39 40
M  V30 40 1 40 41
M  V30 41 1 36 2
M  V30 42 1 41 37
M  V30 43 1 35 7
M  V30 44 1 27 12
M  V30 45 1 33 29
M  V30 46 1 25 19
M  V30 47 1 1 42
M  V30 48 1 1 43
M  V30 49 1 1 44
M  V30 50 1 2 45 CFG=1
M  V30 51 1 6 46
M  V30 52 1 6 47
M  V30 53 1 6 48
M  V30 54 1 8 49
M  V30 55 1 11 50
M  V30 56 1 13 51
M  V30 57 1 14 52
M  V30 58 1 18 53
M  V30 59 1 19 54
M  V30 60 1 20 55
M  V30 61 1 20 56
M  V30 62 1 21 57
M  V30 63 1 21 58
M  V30 64 1 23 59
M  V30 65 1 23 60
M  V30 66 1 23 61
M  V30 67 1 24 62
M  V30 68 1 24 63
M  V30 69 1 25 64
M  V30 70 1 25 65
M  V30 71 1 26 66
M  V30 72 1 29 67
M  V30 73 1 30 68
M  V30 74 1 30 69
M  V30 75 1 31 70
M  V30 76 1 31 71
M  V30 77 1 32 72
M  V30 78 1 32 73
M  V30 79 1 33 74
M  V30 80 1 33 75
M  V30 81 1 37 76
M  V30 82 1 38 77
M  V30 83 1 38 78
M  V30 84 1 39 79
M  V30 85 1 39 80
M  V30 86 1 40 81
M  V30 87 1 40 82
M  V30 88 1 41 83
M  V30 89 1 41 84
M  V30 END BOND
M  V30 END CTAB
M  END
>  <Dataset>  (584) 
ChEMBL_Kinases

>  <Ligand_Instance>  (584) 
nan

>  <PDB_ID>  (584) 
nan

>  <Standardized_SMILES>  (584) 
C[C@@H]1C(=O)N(C)c2cnc(Nc3ccc(C(=O)NC4CCN(C)CC4)cc3OC3CCCC3)nc2N1C1CCCC1

>  <Name>  (584) 
nan

>  <Pocket>  (584) 
nan

>  <ATP_Site>  (584) 
nan

>  <Peripheral>  (584) 
nan

>  <Num_H_Atoms_ProtBoundConf>  (584) 
nan

>  <Num_Resolved_Atoms>  (584) 
nan

>  <Num_Not_Resolved_Atoms>  (584) 
nan

$$$$
CHEMBL4782976
     RDKit          3D

  0  0  0  0  0  0  0  0  0  0999 V3000
M  V30 BEGIN CTAB
M  V30 COUNTS 64 67 0 0 0
M  V30 BEGIN ATOM
M  V30 1 C 3.474218 -3.395019 2.620651 0
M  V30 2 C 4.903447 -2.891033 2.622999 0
M  V30 3 C 4.923625 -1.629077 3.437544 0
M  V30 4 C 5.759444 -3.925328 3.303517 0
M  V30 5 O 5.417725 -2.700036 1.318524 0
M  V30 6 C 4.786840 -1.780431 0.451787 0
M  V30 7 O 3.772244 -1.118563 0.822122 0
M  V30 8 N 5.178771 -1.475051 -0.906630 0
M  V30 9 C 4.282594 -0.502866 -1.419025 0
M  V30 10 C 3.155125 -1.074211 -1.984528 0
M  V30 11 C 2.200607 -0.190736 -2.510779 0
M  V30 12 C 2.448604 1.177504 -2.430639 0
M  V30 13 C 1.295966 1.935509 -3.041489 0
M  V30 14 C 0.277078 2.112076 -1.956925 0
M  V30 15 O 0.628439 2.831066 -0.992076 0
M  V30 16 N -0.992790 1.514035 -2.005198 0
M  V30 17 C -2.021798 1.654302 -0.972369 0
M  V30 18 C -1.476544 1.148465 0.321681 0
M  V30 19 C -2.477757 1.245621 1.464399 0
M  V30 20 N -3.665728 0.468143 1.199528 0
M  V30 21 C -3.658069 -0.821086 1.620743 0
M  V30 22 O -2.635091 -1.280154 2.218837 0
M  V30 23 C -4.721680 -1.689964 1.434933 0
M  V30 24 C -4.657609 -2.977436 1.880578 0
M  V30 25 C -5.777069 -3.754623 1.640230 0
M  V30 26 F -5.759412 -5.044712 2.067001 0
M  V30 27 C -6.899038 -3.274133 0.991507 0
M  V30 28 C -6.906690 -1.955530 0.560499 0
M  V30 29 C -5.813107 -1.158327 0.782738 0
M  V30 30 N -5.819978 0.095505 0.373515 0
M  V30 31 C -6.724618 0.826811 -0.260354 0
M  V30 32 S -8.216298 0.503515 -0.810593 0
M  V30 33 N -6.264758 2.063794 -0.458184 0
M  V30 34 N -5.043236 2.126774 0.057996 0
M  V30 35 C -4.767696 0.907505 0.572692 0
M  V30 36 C 3.575048 1.725401 -1.865667 0
M  V30 37 C 4.516918 0.832862 -1.345264 0
M  V30 38 H 3.286801 -4.087947 3.482688 0
M  V30 39 H 2.742946 -2.561653 2.744411 0
M  V30 40 H 3.259755 -3.954947 1.702835 0
M  V30 41 H 5.886873 -1.123570 3.483887 0
M  V30 42 H 4.150127 -0.900107 3.114436 0
M  V30 43 H 4.625041 -1.912330 4.484512 0
M  V30 44 H 5.251470 -4.919667 3.159431 0
M  V30 45 H 6.720923 -4.041010 2.748282 0
M  V30 46 H 5.919931 -3.707179 4.380619 0
M  V30 47 H 6.032965 -2.025387 -1.231708 0
M  V30 48 H 2.965655 -2.145731 -2.044638 0
M  V30 49 H 1.312906 -0.660228 -2.955601 0
M  V30 50 H 1.698420 2.929726 -3.344557 0
M  V30 51 H 0.847303 1.434050 -3.893288 0
M  V30 52 H -1.151676 0.941980 -2.861651 0
M  V30 53 H -2.878737 1.011923 -1.289099 0
M  V30 54 H -2.286387 2.709536 -0.875909 0
M  V30 55 H -0.566812 1.680483 0.633820 0
M  V30 56 H -1.207260 0.068264 0.245683 0
M  V30 57 H -2.739677 2.320079 1.609843 0
M  V30 58 H -2.027867 0.895438 2.393984 0
M  V30 59 H -3.790076 -3.384690 2.393576 0
M  V30 60 H -7.719593 -3.957161 0.853367 0
M  V30 61 H -7.819498 -1.693715 0.075774 0
M  V30 62 H -6.628525 2.939594 -0.900868 0
M  V30 63 H 3.640459 2.791490 -1.872163 0
M  V30 64 H 5.387271 1.236808 -0.908256 0
M  V30 END ATOM
M  V30 BEGIN BOND
M  V30 1 1 1 2
M  V30 2 1 2 3
M  V30 3 1 2 4
M  V30 4 1 2 5
M  V30 5 1 5 6
M  V30 6 2 6 7
M  V30 7 1 6 8
M  V30 8 1 8 9
M  V30 9 2 9 10
M  V30 10 1 10 11
M  V30 11 2 11 12
M  V30 12 1 12 13
M  V30 13 1 13 14
M  V30 14 2 14 15
M  V30 15 1 14 16
M  V30 16 1 16 17
M  V30 17 1 17 18
M  V30 18 1 18 19
M  V30 19 1 19 20
M  V30 20 1 20 21
M  V30 21 2 21 22
M  V30 22 1 21 23
M  V30 23 2 23 24
M  V30 24 1 24 25
M  V30 25 1 25 26
M  V30 26 2 25 27
M  V30 27 1 27 28
M  V30 28 2 28 29
M  V30 29 1 29 30
M  V30 30 1 30 31
M  V30 31 2 31 32
M  V30 32 1 31 33
M  V30 33 1 33 34
M  V30 34 2 34 35
M  V30 35 1 12 36
M  V30 36 2 36 37
M  V30 37 1 37 9
M  V30 38 1 35 20
M  V30 39 1 29 23
M  V30 40 1 35 30
M  V30 41 1 1 38
M  V30 42 1 1 39
M  V30 43 1 1 40
M  V30 44 1 3 41
M  V30 45 1 3 42
M  V30 46 1 3 43
M  V30 47 1 4 44
M  V30 48 1 4 45
M  V30 49 1 4 46
M  V30 50 1 8 47
M  V30 51 1 10 48
M  V30 52 1 11 49
M  V30 53 1 13 50
M  V30 54 1 13 51
M  V30 55 1 16 52
M  V30 56 1 17 53
M  V30 57 1 17 54
M  V30 58 1 18 55
M  V30 59 1 18 56
M  V30 60 1 19 57
M  V30 61 1 19 58
M  V30 62 1 24 59
M  V30 63 1 27 60
M  V30 64 1 28 61
M  V30 65 1 33 62
M  V30 66 1 36 63
M  V30 67 1 37 64
M  V30 END BOND
M  V30 END CTAB
M  END
>  <Dataset>  (585) 
ChEMBL_Kinases

>  <Ligand_Instance>  (585) 
nan

>  <PDB_ID>  (585) 
nan

>  <Standardized_SMILES>  (585) 
CC(C)(C)OC(=O)Nc1ccc(CC(=O)NCCCn2c(=O)c3cc(F)ccc3n3c(=S)[nH]nc23)cc1

>  <Name>  (585) 
nan

>  <Pocket>  (585) 
nan

>  <ATP_Site>  (585) 
nan

>  <Peripheral>  (585) 
nan

>  <Num_H_Atoms_ProtBoundConf>  (585) 
nan

>  <Num_Resolved_Atoms>  (585) 
nan

>  <Num_Not_Resolved_Atoms>  (585) 
nan

$$$$
CHEMBL4783060
     RDKit          3D

  0  0  0  0  0  0  0  0  0  0999 V3000
M  V30 BEGIN CTAB
M  V30 COUNTS 36 38 0 0 0
M  V30 BEGIN ATOM
M  V30 1 C -0.320256 -6.432708 3.443181 0
M  V30 2 C -0.139652 -5.292299 3.039721 0
M  V30 3 C 0.049714 -3.954338 2.573589 0
M  V30 4 N 0.248881 -3.704247 1.275195 0
M  V30 5 C 0.429850 -2.489926 0.784575 0
M  V30 6 N 0.637189 -2.286535 -0.606705 0
M  V30 7 C 0.847022 -1.093685 -1.326510 0
M  V30 8 C 1.031624 -1.097577 -2.693170 0
M  V30 9 C 1.238296 0.044543 -3.425145 0
M  V30 10 C 1.272445 1.274655 -2.821139 0
M  V30 11 C 1.096345 1.345087 -1.470946 0
M  V30 12 C 1.129590 2.669064 -0.795068 0
M  V30 13 S -0.540827 3.280154 -0.791405 0
M  V30 14 C -1.531603 2.108867 0.100099 0
M  V30 15 O -0.630547 4.654153 -0.197151 0
M  V30 16 O -0.979233 3.316315 -2.231083 0
M  V30 17 C 0.892128 0.168931 -0.780832 0
M  V30 18 N 0.399798 -1.505807 1.693949 0
M  V30 19 C 0.207954 -1.653659 3.009578 0
M  V30 20 N 0.159859 -0.755020 3.992721 0
M  V30 21 C -0.061709 -1.467610 5.133935 0
M  V30 22 N -0.143706 -2.792358 4.815440 0
M  V30 23 C 0.023847 -2.930245 3.479929 0
M  V30 24 H -0.489473 -7.427826 3.784903 0
M  V30 25 H 0.634464 -3.167442 -1.200707 0
M  V30 26 H 1.014364 -2.050921 -3.229285 0
M  V30 27 H 1.375323 -0.048790 -4.502484 0
M  V30 28 H 1.434961 2.172815 -3.396707 0
M  V30 29 H 1.789863 3.390587 -1.340960 0
M  V30 30 H 1.487223 2.539201 0.255016 0
M  V30 31 H -2.491715 2.548025 0.434808 0
M  V30 32 H -1.036169 1.720903 1.013489 0
M  V30 33 H -1.696626 1.218373 -0.562647 0
M  V30 34 H 0.760842 0.303302 0.282706 0
M  V30 35 H 0.269281 0.298229 3.918859 0
M  V30 36 H -0.155683 -1.029086 6.135236 0
M  V30 END ATOM
M  V30 BEGIN BOND
M  V30 1 3 1 2
M  V30 2 1 2 3
M  V30 3 2 3 4
M  V30 4 1 4 5
M  V30 5 1 5 6
M  V30 6 1 6 7
M  V30 7 2 7 8
M  V30 8 1 8 9
M  V30 9 2 9 10
M  V30 10 1 10 11
M  V30 11 1 11 12
M  V30 12 1 12 13
M  V30 13 1 13 14
M  V30 14 2 13 15
M  V30 15 2 13 16
M  V30 16 2 11 17
M  V30 17 2 5 18
M  V30 18 1 18 19
M  V30 19 1 19 20
M  V30 20 1 20 21
M  V30 21 2 21 22
M  V30 22 1 22 23
M  V30 23 1 23 3
M  V30 24 1 17 7
M  V30 25 2 23 19
M  V30 26 1 1 24
M  V30 27 1 6 25
M  V30 28 1 8 26
M  V30 29 1 9 27
M  V30 30 1 10 28
M  V30 31 1 12 29
M  V30 32 1 12 30
M  V30 33 1 14 31
M  V30 34 1 14 32
M  V30 35 1 14 33
M  V30 36 1 17 34
M  V30 37 1 20 35
M  V30 38 1 21 36
M  V30 END BOND
M  V30 END CTAB
M  END
>  <Dataset>  (586) 
ChEMBL_Kinases

>  <Ligand_Instance>  (586) 
nan

>  <PDB_ID>  (586) 
nan

>  <Standardized_SMILES>  (586) 
C#Cc1nc(Nc2cccc(CS(C)(=O)=O)c2)nc2[nH]cnc12

>  <Name>  (586) 
nan

>  <Pocket>  (586) 
nan

>  <ATP_Site>  (586) 
nan

>  <Peripheral>  (586) 
nan

>  <Num_H_Atoms_ProtBoundConf>  (586) 
nan

>  <Num_Resolved_Atoms>  (586) 
nan

>  <Num_Not_Resolved_Atoms>  (586) 
nan

$$$$
CHEMBL4207347
     RDKit          3D

  0  0  0  0  0  0  0  0  0  0999 V3000
M  V30 BEGIN CTAB
M  V30 COUNTS 84 88 0 0 0
M  V30 BEGIN ATOM
M  V30 1 C 4.546291 -2.842582 1.384788 0
M  V30 2 O 3.277912 -2.355983 1.697362 0
M  V30 3 C 2.178265 -2.344868 0.836423 0
M  V30 4 C 2.335244 -2.848285 -0.427363 0
M  V30 5 C 1.283185 -2.858018 -1.308856 0
M  V30 6 C 1.363088 -3.344802 -2.673577 0
M  V30 7 O 0.364785 -3.538319 -3.439239 0
M  V30 8 N 2.619884 -3.639488 -3.247877 0
M  V30 9 C 3.163252 -4.122881 -4.502301 0
M  V30 10 C 4.225450 -5.165432 -4.350365 0
M  V30 11 C 4.698248 -5.578212 -5.725667 0
M  V30 12 N 5.214101 -4.427340 -6.468776 0
M  V30 13 C 5.658338 -4.923021 -7.754304 0
M  V30 14 C 4.134532 -3.445648 -6.642577 0
M  V30 15 C 3.794816 -2.939843 -5.266473 0
M  V30 16 C 0.072735 -2.355060 -0.895052 0
M  V30 17 C -0.027429 -1.858592 0.397849 0
M  V30 18 C 0.997572 -1.820554 1.329295 0
M  V30 19 N 0.802600 -1.325087 2.629401 0
M  V30 20 C -0.256065 -0.575590 3.220939 0
M  V30 21 N -0.252050 -0.596748 4.573170 0
M  V30 22 C -1.153697 0.098012 5.270217 0
M  V30 23 C -2.082374 0.833435 4.596296 0
M  V30 24 C -2.125733 0.887130 3.228358 0
M  V30 25 N -1.184901 0.158074 2.618704 0
M  V30 26 N -3.012230 1.656344 2.446983 0
M  V30 27 C -3.218279 1.751781 1.026680 0
M  V30 28 C -2.236351 1.133330 0.121034 0
M  V30 29 C -2.848343 0.004630 -0.726048 0
M  V30 30 O -3.900646 0.649974 -1.403469 0
M  V30 31 C -4.946994 0.676770 -0.519081 0
M  V30 32 C -4.645843 1.331812 0.768963 0
M  V30 33 C -3.918047 2.536580 3.133450 0 CFG=2
M  V30 34 C -3.619971 3.994457 3.015359 0
M  V30 35 C -2.325481 4.476110 3.551198 0
M  V30 36 C -2.235994 5.989176 3.325117 0
M  V30 37 C -1.073570 3.886759 3.030067 0
M  V30 38 C -4.008600 2.258245 4.602185 0
M  V30 39 O -5.021411 2.701053 5.225758 0
M  V30 40 N -3.039113 1.529817 5.362049 0
M  V30 41 C -3.113140 1.561084 6.811605 0
M  V30 42 H 4.476902 -3.948521 1.229268 0
M  V30 43 H 5.206706 -2.626808 2.275565 0
M  V30 44 H 5.009825 -2.404189 0.480300 0
M  V30 45 H 3.297029 -3.235260 -0.710485 0
M  V30 46 H 3.465910 -3.494377 -2.681800 0
M  V30 47 H 2.379688 -4.486968 -5.182610 0
M  V30 48 H 3.867294 -6.086981 -3.846662 0
M  V30 49 H 5.127703 -4.739369 -3.836770 0
M  V30 50 H 5.577933 -6.256406 -5.585371 0
M  V30 51 H 3.886417 -6.102531 -6.293648 0
M  V30 52 H 5.085404 -5.826145 -8.052982 0
M  V30 53 H 5.586918 -4.110806 -8.506494 0
M  V30 54 H 6.756280 -5.169825 -7.694403 0
M  V30 55 H 3.291220 -4.004423 -7.127749 0
M  V30 56 H 4.515374 -2.646997 -7.292640 0
M  V30 57 H 3.068009 -2.096752 -5.275722 0
M  V30 58 H 4.730591 -2.666058 -4.754474 0
M  V30 59 H -0.799468 -2.337521 -1.551035 0
M  V30 60 H -0.963259 -1.473949 0.772082 0
M  V30 61 H 1.630221 -1.590241 3.220207 0
M  V30 62 H -1.141387 0.072996 6.356281 0
M  V30 63 H -3.221674 2.867455 0.742619 0
M  V30 64 H -1.948223 1.881364 -0.713835 0
M  V30 65 H -1.276183 0.814068 0.487400 0
M  V30 66 H -2.155044 -0.309936 -1.533614 0
M  V30 67 H -3.261485 -0.805153 -0.122861 0
M  V30 68 H -5.895693 1.054895 -0.989897 0
M  V30 69 H -5.184693 -0.412356 -0.311655 0
M  V30 70 H -4.998827 0.691659 1.633655 0
M  V30 71 H -5.306312 2.249872 0.820452 0
M  V30 72 H -4.940994 2.354462 2.755947 0
M  V30 73 H -3.835518 4.341569 1.979960 0
M  V30 74 H -4.421172 4.513947 3.626608 0
M  V30 75 H -2.329895 4.291816 4.671781 0
M  V30 76 H -1.729238 6.172485 2.365793 0
M  V30 77 H -1.607837 6.386758 4.169623 0
M  V30 78 H -3.247967 6.410714 3.385567 0
M  V30 79 H -1.219197 3.461697 2.042660 0
M  V30 80 H -0.282857 4.696726 2.875597 0
M  V30 81 H -0.569573 3.214698 3.770702 0
M  V30 82 H -2.104521 1.619471 7.265187 0
M  V30 83 H -3.750687 2.393864 7.136882 0
M  V30 84 H -3.585488 0.619670 7.198681 0
M  V30 END ATOM
M  V30 BEGIN BOND
M  V30 1 1 1 2
M  V30 2 1 2 3
M  V30 3 2 3 4
M  V30 4 1 4 5
M  V30 5 1 5 6
M  V30 6 2 6 7
M  V30 7 1 6 8
M  V30 8 1 8 9
M  V30 9 1 9 10
M  V30 10 1 10 11
M  V30 11 1 11 12
M  V30 12 1 12 13
M  V30 13 1 12 14
M  V30 14 1 14 15
M  V30 15 2 5 16
M  V30 16 1 16 17
M  V30 17 2 17 18
M  V30 18 1 18 19
M  V30 19 1 19 20
M  V30 20 2 20 21
M  V30 21 1 21 22
M  V30 22 2 22 23
M  V30 23 1 23 24
M  V30 24 2 24 25
M  V30 25 1 24 26
M  V30 26 1 26 27
M  V30 27 1 27 28
M  V30 28 1 28 29
M  V30 29 1 29 30
M  V30 30 1 30 31
M  V30 31 1 31 32
M  V30 32 1 26 33
M  V30 33 1 33 34
M  V30 34 1 34 35
M  V30 35 1 35 36
M  V30 36 1 35 37
M  V30 37 1 33 38
M  V30 38 2 38 39
M  V30 39 1 38 40
M  V30 40 1 40 41
M  V30 41 1 18 3
M  V30 42 1 25 20
M  V30 43 1 32 27
M  V30 44 1 15 9
M  V30 45 1 40 23
M  V30 46 1 1 42
M  V30 47 1 1 43
M  V30 48 1 1 44
M  V30 49 1 4 45
M  V30 50 1 8 46
M  V30 51 1 9 47
M  V30 52 1 10 48
M  V30 53 1 10 49
M  V30 54 1 11 50
M  V30 55 1 11 51
M  V30 56 1 13 52
M  V30 57 1 13 53
M  V30 58 1 13 54
M  V30 59 1 14 55
M  V30 60 1 14 56
M  V30 61 1 15 57
M  V30 62 1 15 58
M  V30 63 1 16 59
M  V30 64 1 17 60
M  V30 65 1 19 61
M  V30 66 1 22 62
M  V30 67 1 27 63
M  V30 68 1 28 64
M  V30 69 1 28 65
M  V30 70 1 29 66
M  V30 71 1 29 67
M  V30 72 1 31 68
M  V30 73 1 31 69
M  V30 74 1 32 70
M  V30 75 1 32 71
M  V30 76 1 33 72 CFG=3
M  V30 77 1 34 73
M  V30 78 1 34 74
M  V30 79 1 35 75
M  V30 80 1 36 76
M  V30 81 1 36 77
M  V30 82 1 36 78
M  V30 83 1 37 79
M  V30 84 1 37 80
M  V30 85 1 37 81
M  V30 86 1 41 82
M  V30 87 1 41 83
M  V30 88 1 41 84
M  V30 END BOND
M  V30 END CTAB
M  END
>  <Dataset>  (587) 
ChEMBL_Kinases

>  <Ligand_Instance>  (587) 
nan

>  <PDB_ID>  (587) 
nan

>  <Standardized_SMILES>  (587) 
COc1cc(C(=O)NC2CCN(C)CC2)ccc1Nc1ncc2c(n1)N(C1CCOCC1)[C@H](CC(C)C)C(=O)N2C

>  <Name>  (587) 
nan

>  <Pocket>  (587) 
nan

>  <ATP_Site>  (587) 
nan

>  <Peripheral>  (587) 
nan

>  <Num_H_Atoms_ProtBoundConf>  (587) 
nan

>  <Num_Resolved_Atoms>  (587) 
nan

>  <Num_Not_Resolved_Atoms>  (587) 
nan

$$$$
CHEMBL4783062
     RDKit          3D

  0  0  0  0  0  0  0  0  0  0999 V3000
M  V30 BEGIN CTAB
M  V30 COUNTS 65 69 0 0 0
M  V30 BEGIN ATOM
M  V30 1 C 3.920272 -1.454654 4.312263 0
M  V30 2 C 2.573853 -0.782996 4.130915 0
M  V30 3 C 1.964557 -0.553805 5.494882 0
M  V30 4 C 1.668761 -1.791935 3.426472 0
M  V30 5 C 2.665635 0.474993 3.359549 0
M  V30 6 C 2.527307 0.387206 1.997478 0
M  V30 7 C 2.611266 1.542514 1.258312 0
M  V30 8 C 2.829088 2.811770 1.797586 0
M  V30 9 S 2.895410 4.115006 0.637121 0
M  V30 10 O 3.444118 3.605522 -0.658858 0
M  V30 11 O 3.827722 5.161456 1.175336 0
M  V30 12 N 1.314284 4.821788 0.413421 0
M  V30 13 C 0.327898 3.929350 -0.086273 0
M  V30 14 C 0.429418 2.975089 -1.074876 0
M  V30 15 C -0.654300 2.188750 -1.398439 0
M  V30 16 C -1.862189 2.329283 -0.751369 0
M  V30 17 C -2.983156 1.446592 -1.120672 0
M  V30 18 N -2.930126 0.460392 -2.030860 0
M  V30 19 C -4.113413 -0.170680 -2.144942 0
M  V30 20 C -4.067374 -1.266472 -3.134442 0
M  V30 21 C -4.615839 -1.258816 -4.395538 0
M  V30 22 C -4.459838 -2.389563 -5.163492 0
M  V30 23 N -3.805779 -3.470262 -4.729886 0
M  V30 24 C -3.250281 -3.555203 -3.529838 0
M  V30 25 N -2.560374 -4.733250 -3.160414 0
M  V30 26 C -1.974458 -5.207375 -1.962715 0
M  V30 27 C -0.836657 -5.992939 -1.923077 0
M  V30 28 C -0.292396 -6.457941 -0.760002 0
M  V30 29 C -0.869536 -6.155466 0.450034 0
M  V30 30 C -2.003256 -5.377729 0.464521 0
M  V30 31 Cl -2.676911 -5.036313 2.039465 0
M  V30 32 C -2.523556 -4.927064 -0.729526 0
M  V30 33 C -3.400512 -2.430169 -2.754673 0
M  V30 34 N -4.898017 0.471394 -1.265097 0
M  V30 35 O -4.217250 1.408253 -0.681704 0
M  V30 36 C -2.006531 3.272581 0.242826 0
M  V30 37 C -0.904062 4.058694 0.558733 0
M  V30 38 C 2.962903 2.860461 3.167519 0
M  V30 39 C 2.881172 1.710513 3.921998 0
M  V30 40 H 4.113703 -2.177624 3.478067 0
M  V30 41 H 3.835944 -2.076229 5.232596 0
M  V30 42 H 4.725003 -0.705781 4.347366 0
M  V30 43 H 1.243610 0.286517 5.389670 0
M  V30 44 H 2.759221 -0.348491 6.256649 0
M  V30 45 H 1.461202 -1.487399 5.817192 0
M  V30 46 H 1.412394 -2.581854 4.163247 0
M  V30 47 H 2.168537 -2.305455 2.588375 0
M  V30 48 H 0.768065 -1.239545 3.085368 0
M  V30 49 H 2.355278 -0.577159 1.523105 0
M  V30 50 H 2.493268 1.396655 0.172239 0
M  V30 51 H 1.077199 5.815834 0.619465 0
M  V30 52 H 1.394431 2.923070 -1.531614 0
M  V30 53 H -0.521410 1.459380 -2.175507 0
M  V30 54 H -5.129531 -0.349112 -4.675866 0
M  V30 55 H -4.892273 -2.381319 -6.154453 0
M  V30 56 H -2.422806 -5.468046 -3.918912 0
M  V30 57 H -0.365958 -6.243254 -2.863066 0
M  V30 58 H 0.601685 -7.070979 -0.782977 0
M  V30 59 H -0.396482 -6.549768 1.334944 0
M  V30 60 H -3.416402 -4.344293 -0.566031 0
M  V30 61 H -2.958949 -2.425165 -1.768149 0
M  V30 62 H -2.952377 3.390005 0.753595 0
M  V30 63 H -1.093684 4.781311 1.351759 0
M  V30 64 H 3.130227 3.858450 3.546038 0
M  V30 65 H 2.991190 1.793471 4.989953 0
M  V30 END ATOM
M  V30 BEGIN BOND
M  V30 1 1 1 2
M  V30 2 1 2 3
M  V30 3 1 2 4
M  V30 4 1 2 5
M  V30 5 2 5 6
M  V30 6 1 6 7
M  V30 7 2 7 8
M  V30 8 1 8 9
M  V30 9 2 9 10
M  V30 10 2 9 11
M  V30 11 1 9 12
M  V30 12 1 12 13
M  V30 13 2 13 14
M  V30 14 1 14 15
M  V30 15 2 15 16
M  V30 16 1 16 17
M  V30 17 2 17 18
M  V30 18 1 18 19
M  V30 19 1 19 20
M  V30 20 2 20 21
M  V30 21 1 21 22
M  V30 22 2 22 23
M  V30 23 1 23 24
M  V30 24 1 24 25
M  V30 25 1 25 26
M  V30 26 2 26 27
M  V30 27 1 27 28
M  V30 28 2 28 29
M  V30 29 1 29 30
M  V30 30 1 30 31
M  V30 31 2 30 32
M  V30 32 2 24 33
M  V30 33 2 19 34
M  V30 34 1 34 35
M  V30 35 1 16 36
M  V30 36 2 36 37
M  V30 37 1 8 38
M  V30 38 2 38 39
M  V30 39 1 39 5
M  V30 40 1 37 13
M  V30 41 1 35 17
M  V30 42 1 33 20
M  V30 43 1 32 26
M  V30 44 1 1 40
M  V30 45 1 1 41
M  V30 46 1 1 42
M  V30 47 1 3 43
M  V30 48 1 3 44
M  V30 49 1 3 45
M  V30 50 1 4 46
M  V30 51 1 4 47
M  V30 52 1 4 48
M  V30 53 1 6 49
M  V30 54 1 7 50
M  V30 55 1 12 51
M  V30 56 1 14 52
M  V30 57 1 15 53
M  V30 58 1 21 54
M  V30 59 1 22 55
M  V30 60 1 25 56
M  V30 61 1 27 57
M  V30 62 1 28 58
M  V30 63 1 29 59
M  V30 64 1 32 60
M  V30 65 1 33 61
M  V30 66 1 36 62
M  V30 67 1 37 63
M  V30 68 1 38 64
M  V30 69 1 39 65
M  V30 END BOND
M  V30 END CTAB
M  END
>  <Dataset>  (588) 
ChEMBL_Kinases

>  <Ligand_Instance>  (588) 
nan

>  <PDB_ID>  (588) 
nan

>  <Standardized_SMILES>  (588) 
CC(C)(C)c1ccc(S(=O)(=O)Nc2ccc(-c3nc(-c4ccnc(Nc5cccc(Cl)c5)c4)no3)cc2)cc1

>  <Name>  (588) 
nan

>  <Pocket>  (588) 
nan

>  <ATP_Site>  (588) 
nan

>  <Peripheral>  (588) 
nan

>  <Num_H_Atoms_ProtBoundConf>  (588) 
nan

>  <Num_Resolved_Atoms>  (588) 
nan

>  <Num_Not_Resolved_Atoms>  (588) 
nan

$$$$
CHEMBL4207271
     RDKit          3D

  0  0  0  0  0  0  0  0  0  0999 V3000
M  V30 BEGIN CTAB
M  V30 COUNTS 55 59 0 0 0
M  V30 BEGIN ATOM
M  V30 1 O 0.862165 1.189350 2.465206 0
M  V30 2 C 0.108732 0.771660 1.552278 0
M  V30 3 N 0.663572 -0.147266 0.626531 0
M  V30 4 C 2.004682 -0.636623 0.642865 0
M  V30 5 C 3.061612 0.442404 0.508726 0
M  V30 6 N 4.336893 -0.205290 0.542426 0
M  V30 7 C 4.673146 -0.778595 1.807667 0
M  V30 8 C 5.829766 -0.007249 2.438932 0
M  V30 9 N 6.990347 -0.230468 1.618979 0
M  V30 10 C 6.681023 -0.297229 0.206752 0
M  V30 11 C 5.402458 0.485898 -0.112402 0
M  V30 12 C -1.262011 1.269278 1.529479 0
M  V30 13 C -1.628908 2.156230 2.518566 0
M  V30 14 C -2.929127 2.669607 2.549075 0
M  V30 15 C -3.879095 2.303339 1.591438 0
M  V30 16 C -3.499577 1.414703 0.605956 0
M  V30 17 C -4.411488 0.952190 -0.463793 0
M  V30 18 C -5.301904 1.613588 -1.280355 0
M  V30 19 N -5.882167 0.693016 -2.091410 0
M  V30 20 C -5.361651 -0.509851 -1.782269 0
M  V30 21 C -5.642938 -1.740708 -2.337522 0
M  V30 22 C -4.984829 -2.868660 -1.866433 0
M  V30 23 C -4.055472 -2.688645 -0.834510 0
M  V30 24 C -3.256970 -3.708940 -0.192823 0
M  V30 25 C -3.338576 -5.061251 -0.570258 0
M  V30 26 C -2.562374 -5.985439 0.066662 0
M  V30 27 C -1.676102 -5.434724 1.137962 0
M  V30 28 S -2.094596 -3.593849 1.081831 0
M  V30 29 N -3.848723 -1.451428 -0.357384 0
M  V30 30 N -4.460899 -0.366762 -0.788772 0
M  V30 31 C -2.204860 0.920069 0.597791 0
M  V30 32 H -0.017051 -0.467109 -0.123270 0
M  V30 33 H 2.143166 -1.231105 1.570050 0
M  V30 34 H 2.154344 -1.336977 -0.194693 0
M  V30 35 H 2.936101 0.925398 -0.473033 0
M  V30 36 H 3.018590 1.183091 1.334399 0
M  V30 37 H 3.850106 -0.725539 2.559796 0
M  V30 38 H 4.989517 -1.836294 1.653363 0
M  V30 39 H 5.973789 -0.452672 3.467305 0
M  V30 40 H 5.539460 1.043000 2.521563 0
M  V30 41 H 7.431553 -1.114004 1.966415 0
M  V30 42 H 7.522606 0.161609 -0.335970 0
M  V30 43 H 6.597383 -1.345503 -0.154075 0
M  V30 44 H 5.544910 1.510456 0.256639 0
M  V30 45 H 5.292718 0.465518 -1.223927 0
M  V30 46 H -0.973460 2.515693 3.322161 0
M  V30 47 H -3.272036 3.376582 3.310315 0
M  V30 48 H -4.889884 2.684995 1.592274 0
M  V30 49 H -5.415400 2.671545 -1.182797 0
M  V30 50 H -6.350891 -1.931891 -3.134655 0
M  V30 51 H -5.086781 -3.896413 -2.189319 0
M  V30 52 H -3.982617 -5.441605 -1.344895 0
M  V30 53 H -2.480772 -7.046425 -0.072906 0
M  V30 54 H -0.985858 -6.053183 1.746304 0
M  V30 55 H -1.926534 0.231544 -0.174987 0
M  V30 END ATOM
M  V30 BEGIN BOND
M  V30 1 2 1 2
M  V30 2 1 2 3
M  V30 3 1 3 4
M  V30 4 1 4 5
M  V30 5 1 5 6
M  V30 6 1 6 7
M  V30 7 1 7 8
M  V30 8 1 8 9
M  V30 9 1 9 10
M  V30 10 1 10 11
M  V30 11 1 2 12
M  V30 12 2 12 13
M  V30 13 1 13 14
M  V30 14 2 14 15
M  V30 15 1 15 16
M  V30 16 1 16 17
M  V30 17 2 17 18
M  V30 18 1 18 19
M  V30 19 2 19 20
M  V30 20 1 20 21
M  V30 21 2 21 22
M  V30 22 1 22 23
M  V30 23 1 23 24
M  V30 24 2 24 25
M  V30 25 1 25 26
M  V30 26 2 26 27
M  V30 27 1 27 28
M  V30 28 2 23 29
M  V30 29 1 29 30
M  V30 30 2 16 31
M  V30 31 1 11 6
M  V30 32 1 31 12
M  V30 33 1 30 17
M  V30 34 1 30 20
M  V30 35 1 28 24
M  V30 36 1 3 32
M  V30 37 1 4 33
M  V30 38 1 4 34
M  V30 39 1 5 35
M  V30 40 1 5 36
M  V30 41 1 7 37
M  V30 42 1 7 38
M  V30 43 1 8 39
M  V30 44 1 8 40
M  V30 45 1 9 41
M  V30 46 1 10 42
M  V30 47 1 10 43
M  V30 48 1 11 44
M  V30 49 1 11 45
M  V30 50 1 13 46
M  V30 51 1 14 47
M  V30 52 1 15 48
M  V30 53 1 18 49
M  V30 54 1 21 50
M  V30 55 1 22 51
M  V30 56 1 25 52
M  V30 57 1 26 53
M  V30 58 1 27 54
M  V30 59 1 31 55
M  V30 END BOND
M  V30 END CTAB
M  END
>  <Dataset>  (589) 
ChEMBL_Kinases

>  <Ligand_Instance>  (589) 
nan

>  <PDB_ID>  (589) 
nan

>  <Standardized_SMILES>  (589) 
O=C(NCCN1CCNCC1)c1cccc(-c2cnc3ccc(-c4cccs4)nn23)c1

>  <Name>  (589) 
nan

>  <Pocket>  (589) 
nan

>  <ATP_Site>  (589) 
nan

>  <Peripheral>  (589) 
nan

>  <Num_H_Atoms_ProtBoundConf>  (589) 
nan

>  <Num_Resolved_Atoms>  (589) 
nan

>  <Num_Not_Resolved_Atoms>  (589) 
nan

$$$$
CHEMBL4207231
     RDKit          3D

  0  0  0  0  0  0  0  0  0  0999 V3000
M  V30 BEGIN CTAB
M  V30 COUNTS 55 59 0 0 0
M  V30 BEGIN ATOM
M  V30 1 O 0.817331 -2.785529 0.982085 0
M  V30 2 C -0.082308 -1.864927 1.064244 0
M  V30 3 N 0.322849 -0.925720 2.078344 0
M  V30 4 C -0.143278 0.315176 2.688330 0
M  V30 5 C 0.861114 1.436159 2.649090 0
M  V30 6 N 1.923784 1.016615 1.756799 0
M  V30 7 C 2.468667 1.327879 0.483950 0
M  V30 8 N 2.309622 0.280259 -0.365390 0
M  V30 9 C 2.744257 0.361850 -1.641573 0
M  V30 10 N 3.340312 1.477348 -2.093357 0
M  V30 11 C 3.523268 2.542083 -1.296636 0
M  V30 12 N 4.057693 3.784406 -1.377630 0
M  V30 13 C 3.955182 4.438634 -0.197156 0
M  V30 14 C 3.321894 3.604965 0.731972 0
M  V30 15 Br 2.914354 3.985325 2.552196 0
M  V30 16 C 3.081597 2.462357 0.004607 0
M  V30 17 C 2.583476 -0.081459 2.498743 0
M  V30 18 C 1.550538 -1.136966 2.820549 0
M  V30 19 C -1.147756 -2.157198 0.085545 0
M  V30 20 C -2.360379 -2.571201 0.775104 0
M  V30 21 C -2.986817 -2.048712 1.874864 0
M  V30 22 C -4.141095 -2.503139 2.470774 0
M  V30 23 C -4.759438 -3.599827 1.928572 0
M  V30 24 Cl -6.219267 -4.176058 2.680749 0
M  V30 25 C -4.178479 -4.190085 0.801776 0
M  V30 26 C -3.000952 -3.674640 0.246253 0
M  V30 27 C -0.646858 -3.128284 -0.933932 0
M  V30 28 C -1.112057 -2.866730 -2.341531 0
M  V30 29 N -2.395923 -2.259527 -2.455434 0
M  V30 30 C -2.555007 -1.074730 -1.682557 0
M  V30 31 C -1.448524 -0.858941 -0.663268 0
M  V30 32 H -0.407239 0.156751 3.760656 0
M  V30 33 H -1.032417 0.643852 2.104523 0
M  V30 34 H 0.329861 2.341195 2.235976 0
M  V30 35 H 1.237237 1.675458 3.678247 0
M  V30 36 H 2.640867 -0.444788 -2.356436 0
M  V30 37 H 4.485395 4.150776 -2.261954 0
M  V30 38 H 4.298921 5.445525 0.022151 0
M  V30 39 H 3.431183 -0.508160 1.929488 0
M  V30 40 H 3.011187 0.309979 3.439716 0
M  V30 41 H 1.423722 -1.192255 3.903844 0
M  V30 42 H 1.962227 -2.121323 2.499367 0
M  V30 43 H -2.525579 -1.184784 2.322432 0
M  V30 44 H -4.538367 -2.004543 3.337138 0
M  V30 45 H -4.756445 -5.045738 0.465974 0
M  V30 46 H -2.763354 -4.296628 -0.600457 0
M  V30 47 H -0.766543 -4.207157 -0.640789 0
M  V30 48 H 0.485829 -3.030835 -0.975851 0
M  V30 49 H -0.385365 -2.155444 -2.827420 0
M  V30 50 H -1.145887 -3.813374 -2.924586 0
M  V30 51 H -3.205370 -2.881361 -2.535533 0
M  V30 52 H -2.548491 -0.143776 -2.320915 0
M  V30 53 H -3.518512 -1.081714 -1.131703 0
M  V30 54 H -0.518021 -0.573702 -1.179186 0
M  V30 55 H -1.847556 -0.108272 0.036482 0
M  V30 END ATOM
M  V30 BEGIN BOND
M  V30 1 2 1 2
M  V30 2 1 2 3
M  V30 3 1 3 4
M  V30 4 1 4 5
M  V30 5 1 5 6
M  V30 6 1 6 7
M  V30 7 2 7 8
M  V30 8 1 8 9
M  V30 9 2 9 10
M  V30 10 1 10 11
M  V30 11 1 11 12
M  V30 12 1 12 13
M  V30 13 2 13 14
M  V30 14 1 14 15
M  V30 15 1 14 16
M  V30 16 1 6 17
M  V30 17 1 17 18
M  V30 18 1 2 19
M  V30 19 1 19 20
M  V30 20 2 20 21
M  V30 21 1 21 22
M  V30 22 2 22 23
M  V30 23 1 23 24
M  V30 24 1 23 25
M  V30 25 2 25 26
M  V30 26 1 19 27
M  V30 27 1 27 28
M  V30 28 1 28 29
M  V30 29 1 29 30
M  V30 30 1 30 31
M  V30 31 1 18 3
M  V30 32 1 31 19
M  V30 33 1 16 7
M  V30 34 1 26 20
M  V30 35 2 16 11
M  V30 36 1 4 32
M  V30 37 1 4 33
M  V30 38 1 5 34
M  V30 39 1 5 35
M  V30 40 1 9 36
M  V30 41 1 12 37
M  V30 42 1 13 38
M  V30 43 1 17 39
M  V30 44 1 17 40
M  V30 45 1 18 41
M  V30 46 1 18 42
M  V30 47 1 21 43
M  V30 48 1 22 44
M  V30 49 1 25 45
M  V30 50 1 26 46
M  V30 51 1 27 47
M  V30 52 1 27 48
M  V30 53 1 28 49
M  V30 54 1 28 50
M  V30 55 1 29 51
M  V30 56 1 30 52
M  V30 57 1 30 53
M  V30 58 1 31 54
M  V30 59 1 31 55
M  V30 END BOND
M  V30 END CTAB
M  END
>  <Dataset>  (590) 
ChEMBL_Kinases

>  <Ligand_Instance>  (590) 
nan

>  <PDB_ID>  (590) 
nan

>  <Standardized_SMILES>  (590) 
O=C(N1CCN(c2ncnc3[nH]cc(Br)c23)CC1)C1(c2ccc(Cl)cc2)CCNCC1

>  <Name>  (590) 
nan

>  <Pocket>  (590) 
nan

>  <ATP_Site>  (590) 
nan

>  <Peripheral>  (590) 
nan

>  <Num_H_Atoms_ProtBoundConf>  (590) 
nan

>  <Num_Resolved_Atoms>  (590) 
nan

>  <Num_Not_Resolved_Atoms>  (590) 
nan

$$$$
CHEMBL4783065
     RDKit          3D

  0  0  0  0  0  0  0  0  0  0999 V3000
M  V30 BEGIN CTAB
M  V30 COUNTS 32 33 0 0 0
M  V30 BEGIN ATOM
M  V30 1 N -0.255590 0.944278 3.720355 0
M  V30 2 C -0.113465 0.274818 2.763455 0
M  V30 3 C 0.043295 -0.544093 1.567185 0
M  V30 4 C 0.978200 -0.283973 0.696063 0
M  V30 5 C 1.917581 0.815454 0.844271 0
M  V30 6 C 2.549585 1.203811 2.003830 0
M  V30 7 C 3.417482 2.269533 2.045062 0
M  V30 8 C 3.594797 2.904477 0.837358 0
M  V30 9 O 4.476156 4.003416 0.830966 0
M  V30 10 C 3.025492 2.613120 -0.379489 0
M  V30 11 N 3.308911 3.363856 -1.544293 0 CHG=1 VAL=4
M  V30 12 O 4.456726 3.880831 -1.663916 0
M  V30 13 O 2.251271 3.432639 -2.427209 0 CHG=-1 VAL=1
M  V30 14 C 2.153317 1.516143 -0.343561 0
M  V30 15 C -0.933826 -1.618647 1.501201 0
M  V30 16 O -1.867442 -1.979363 2.248729 0
M  V30 17 N -0.899012 -2.515065 0.367730 0
M  V30 18 C -1.922499 -3.506043 0.463344 0
M  V30 19 N -3.013683 -3.202433 -0.051523 0
M  V30 20 N -4.034991 -3.991152 -0.045048 0
M  V30 21 C -4.014085 -5.117350 0.474717 0
M  V30 22 C -5.221249 -5.980212 0.451239 0
M  V30 23 F -5.551833 -6.263176 -0.857046 0
M  V30 24 F -6.249052 -5.238077 0.990778 0
M  V30 25 F -4.935269 -7.125844 1.164542 0
M  V30 26 S -2.274581 -5.191878 1.108606 0
M  V30 27 H 1.042827 -0.921254 -0.167374 0
M  V30 28 H 2.349439 0.634023 2.895686 0
M  V30 29 H 3.914861 2.577929 2.951107 0
M  V30 30 H 4.051799 4.916186 0.680976 0
M  V30 31 H 1.680242 1.252780 -1.292243 0
M  V30 32 H -0.227515 -2.469033 -0.428124 0
M  V30 END ATOM
M  V30 BEGIN BOND
M  V30 1 3 1 2
M  V30 2 1 2 3
M  V30 3 2 3 4
M  V30 4 1 4 5
M  V30 5 2 5 6
M  V30 6 1 6 7
M  V30 7 2 7 8
M  V30 8 1 8 9
M  V30 9 1 8 10
M  V30 10 1 10 11
M  V30 11 2 11 12
M  V30 12 1 11 13
M  V30 13 2 10 14
M  V30 14 1 3 15
M  V30 15 2 15 16
M  V30 16 1 15 17
M  V30 17 1 17 18
M  V30 18 2 18 19
M  V30 19 1 19 20
M  V30 20 2 20 21
M  V30 21 1 21 22
M  V30 22 1 22 23
M  V30 23 1 22 24
M  V30 24 1 22 25
M  V30 25 1 21 26
M  V30 26 1 14 5
M  V30 27 1 26 18
M  V30 28 1 4 27
M  V30 29 1 6 28
M  V30 30 1 7 29
M  V30 31 1 9 30
M  V30 32 1 14 31
M  V30 33 1 17 32
M  V30 END BOND
M  V30 END CTAB
M  END
>  <Dataset>  (591) 
ChEMBL_Kinases

>  <Ligand_Instance>  (591) 
nan

>  <PDB_ID>  (591) 
nan

>  <Standardized_SMILES>  (591) 
N#C/C(=C\c1ccc(O)c([N+](=O)[O-])c1)C(=O)Nc1nnc(C(F)(F)F)s1

>  <Name>  (591) 
nan

>  <Pocket>  (591) 
nan

>  <ATP_Site>  (591) 
nan

>  <Peripheral>  (591) 
nan

>  <Num_H_Atoms_ProtBoundConf>  (591) 
nan

>  <Num_Resolved_Atoms>  (591) 
nan

>  <Num_Not_Resolved_Atoms>  (591) 
nan

$$$$
CHEMBL4782598
     RDKit          3D

  0  0  0  0  0  0  0  0  0  0999 V3000
M  V30 BEGIN CTAB
M  V30 COUNTS 49 53 0 0 0
M  V30 BEGIN ATOM
M  V30 1 C 4.640164 -2.217079 5.131076 0
M  V30 2 N 3.992622 -1.895767 3.880579 0
M  V30 3 C 4.659898 -2.278353 2.686210 0
M  V30 4 O 5.768510 -2.872069 2.723648 0
M  V30 5 C 4.106233 -2.008879 1.363120 0
M  V30 6 C 4.823153 -2.416142 0.260123 0
M  V30 7 N 4.375677 -2.202536 -1.011655 0
M  V30 8 C 3.202545 -1.577812 -1.220715 0
M  V30 9 N 2.520328 -1.234889 -2.326647 0
M  V30 10 C 1.367311 -0.609024 -1.959770 0
M  V30 11 C 1.310787 -0.549942 -0.569875 0
M  V30 12 C 0.195739 0.062818 0.148254 0
M  V30 13 C 0.447230 0.922612 1.220670 0
M  V30 14 C -0.551294 1.553092 1.964697 0
M  V30 15 C -0.209231 2.452874 3.089591 0
M  V30 16 C -1.863084 1.306419 1.612903 0
M  V30 17 N -2.883065 1.887809 2.284954 0
M  V30 18 C -4.177434 1.641969 1.924479 0
M  V30 19 C -4.406869 0.785986 0.859202 0
M  V30 20 C -3.388533 0.162673 0.136034 0
M  V30 21 C -3.855234 -0.702398 -0.909005 0
M  V30 22 C -3.578519 -2.001165 -1.198283 0
M  V30 23 C -4.129347 -2.656871 -2.276355 0
M  V30 24 C -5.003283 -2.009786 -3.124844 0
M  V30 25 N -5.302597 -0.715935 -2.867703 0
M  V30 26 C -4.748389 -0.099558 -1.805560 0
M  V30 27 C -2.108117 0.457021 0.554210 0
M  V30 28 C -1.123324 -0.166504 -0.182450 0
M  V30 29 C 2.470894 -1.163103 -0.139662 0
M  V30 30 C 2.901928 -1.367381 1.157063 0
M  V30 31 H 4.849639 -3.307635 5.250328 0
M  V30 32 H 4.034372 -1.904609 6.008441 0
M  V30 33 H 5.618069 -1.679133 5.223168 0
M  V30 34 H 3.078341 -1.406109 3.850007 0
M  V30 35 H 5.789326 -2.932789 0.329595 0
M  V30 36 H 2.815542 -1.413529 -3.309148 0
M  V30 37 H 0.652083 -0.240627 -2.691095 0
M  V30 38 H 1.460158 1.148980 1.536915 0
M  V30 39 H 0.588872 3.175418 2.822223 0
M  V30 40 H -1.128867 3.013020 3.357855 0
M  V30 41 H 0.082142 1.887850 4.021855 0
M  V30 42 H -4.988022 2.110190 2.465633 0
M  V30 43 H -5.474492 0.640369 0.632394 0
M  V30 44 H -2.892275 -2.486201 -0.501628 0
M  V30 45 H -3.862883 -3.683422 -2.441230 0
M  V30 46 H -5.400238 -2.582775 -3.953095 0
M  V30 47 H -5.086436 0.931445 -1.734836 0
M  V30 48 H -1.325265 -0.823511 -1.014978 0
M  V30 49 H 2.328135 -1.042466 1.988910 0
M  V30 END ATOM
M  V30 BEGIN BOND
M  V30 1 1 1 2
M  V30 2 1 2 3
M  V30 3 2 3 4
M  V30 4 1 3 5
M  V30 5 2 5 6
M  V30 6 1 6 7
M  V30 7 2 7 8
M  V30 8 1 8 9
M  V30 9 1 9 10
M  V30 10 2 10 11
M  V30 11 1 11 12
M  V30 12 2 12 13
M  V30 13 1 13 14
M  V30 14 1 14 15
M  V30 15 2 14 16
M  V30 16 1 16 17
M  V30 17 2 17 18
M  V30 18 1 18 19
M  V30 19 2 19 20
M  V30 20 1 20 21
M  V30 21 2 21 22
M  V30 22 1 22 23
M  V30 23 2 23 24
M  V30 24 1 24 25
M  V30 25 2 25 26
M  V30 26 1 20 27
M  V30 27 2 27 28
M  V30 28 1 11 29
M  V30 29 2 29 30
M  V30 30 1 30 5
M  V30 31 1 29 8
M  V30 32 1 28 12
M  V30 33 1 27 16
M  V30 34 1 26 21
M  V30 35 1 1 31
M  V30 36 1 1 32
M  V30 37 1 1 33
M  V30 38 1 2 34
M  V30 39 1 6 35
M  V30 40 1 9 36
M  V30 41 1 10 37
M  V30 42 1 13 38
M  V30 43 1 15 39
M  V30 44 1 15 40
M  V30 45 1 15 41
M  V30 46 1 18 42
M  V30 47 1 19 43
M  V30 48 1 22 44
M  V30 49 1 23 45
M  V30 50 1 24 46
M  V30 51 1 26 47
M  V30 52 1 28 48
M  V30 53 1 30 49
M  V30 END BOND
M  V30 END CTAB
M  END
>  <Dataset>  (592) 
ChEMBL_Kinases

>  <Ligand_Instance>  (592) 
nan

>  <PDB_ID>  (592) 
nan

>  <Standardized_SMILES>  (592) 
CNC(=O)c1cnc2[nH]cc(-c3cc(C)c4nccc(-c5cccnc5)c4c3)c2c1

>  <Name>  (592) 
nan

>  <Pocket>  (592) 
nan

>  <ATP_Site>  (592) 
nan

>  <Peripheral>  (592) 
nan

>  <Num_H_Atoms_ProtBoundConf>  (592) 
nan

>  <Num_Resolved_Atoms>  (592) 
nan

>  <Num_Not_Resolved_Atoms>  (592) 
nan

$$$$
CHEMBL4207209
     RDKit          3D

  0  0  0  0  0  0  0  0  0  0999 V3000
M  V30 BEGIN CTAB
M  V30 COUNTS 53 56 0 0 0
M  V30 BEGIN ATOM
M  V30 1 C 5.326648 2.259733 0.909509 0
M  V30 2 C 4.529802 1.007763 1.093508 0
M  V30 3 C 5.163698 -0.090527 1.622416 0
M  V30 4 C 4.492316 -1.276059 1.821712 0
M  V30 5 F 5.176322 -2.314643 2.344932 0
M  V30 6 C 3.173323 -1.323628 1.475601 0
M  V30 7 C 2.478262 -2.616410 1.703480 0
M  V30 8 O 2.196468 -2.788005 3.044664 0
M  V30 9 C 2.575756 -0.216871 0.953807 0
M  V30 10 C 3.203351 0.991953 0.734918 0
M  V30 11 N 2.557849 2.131862 0.186159 0
M  V30 12 C 1.214856 2.318829 -0.227232 0
M  V30 13 N 0.857035 3.514241 -0.731601 0
M  V30 14 C -0.393643 3.771129 -1.140853 0
M  V30 15 C -1.350156 2.784482 -1.045471 0
M  V30 16 C -1.023102 1.549762 -0.535283 0
M  V30 17 C -2.022629 0.494111 -0.424565 0
M  V30 18 C -3.329349 0.680423 -0.823150 0
M  V30 19 C -4.299111 -0.296140 -0.730261 0
M  V30 20 C -5.644805 -0.071677 -1.150943 0
M  V30 21 N -6.733705 0.099418 -1.508405 0
M  V30 22 C -3.996765 -1.539981 -0.219466 0
M  V30 23 C -2.698903 -1.752677 0.186128 0
M  V30 24 C -1.735307 -0.752655 0.083477 0
M  V30 25 C -2.587639 -3.144509 0.702893 0 CFG=1
M  V30 26 C -1.821709 -3.955532 -0.285215 0
M  V30 27 C -1.904648 -3.155215 2.060696 0
M  V30 28 O -2.613953 -2.408601 2.993228 0
M  V30 29 C -4.012771 -3.609770 0.879864 0
M  V30 30 N -4.735831 -2.713480 0.001502 0
M  V30 31 N 0.251891 1.386600 -0.152198 0
M  V30 32 H 4.809929 3.159153 1.317253 0
M  V30 33 H 6.270758 2.212518 1.528681 0
M  V30 34 H 5.664713 2.360461 -0.129662 0
M  V30 35 H 6.210713 -0.010386 1.882525 0
M  V30 36 H 3.124321 -3.433868 1.352618 0
M  V30 37 H 1.514331 -2.646481 1.138235 0
M  V30 38 H 2.330757 -3.730676 3.319633 0
M  V30 39 H 1.539525 -0.350530 0.712142 0
M  V30 40 H 3.207786 2.969573 0.075758 0
M  V30 41 H -0.578327 4.777650 -1.535230 0
M  V30 42 H -2.313822 3.061156 -1.387756 0
M  V30 43 H -3.683650 1.611610 -1.236432 0
M  V30 44 H -0.740336 -0.990888 0.420569 0
M  V30 45 H -1.494143 -4.932904 0.131983 0
M  V30 46 H -2.459333 -4.107845 -1.183546 0
M  V30 47 H -0.953781 -3.339006 -0.631856 0
M  V30 48 H -0.890094 -2.763264 2.016510 0
M  V30 49 H -1.878540 -4.200194 2.425566 0
M  V30 50 H -2.214788 -2.615448 3.878407 0
M  V30 51 H -4.154255 -4.671517 0.637836 0
M  V30 52 H -4.335265 -3.472663 1.950449 0
M  V30 53 H -5.683981 -2.864358 -0.439931 0
M  V30 END ATOM
M  V30 BEGIN BOND
M  V30 1 1 1 2
M  V30 2 2 2 3
M  V30 3 1 3 4
M  V30 4 1 4 5
M  V30 5 2 4 6
M  V30 6 1 6 7
M  V30 7 1 7 8
M  V30 8 1 6 9
M  V30 9 2 9 10
M  V30 10 1 10 11
M  V30 11 1 11 12
M  V30 12 2 12 13
M  V30 13 1 13 14
M  V30 14 2 14 15
M  V30 15 1 15 16
M  V30 16 1 16 17
M  V30 17 2 17 18
M  V30 18 1 18 19
M  V30 19 1 19 20
M  V30 20 3 20 21
M  V30 21 2 19 22
M  V30 22 1 22 23
M  V30 23 2 23 24
M  V30 24 1 23 25
M  V30 25 1 25 26 CFG=3
M  V30 26 1 25 27
M  V30 27 1 27 28
M  V30 28 1 25 29
M  V30 29 1 29 30
M  V30 30 2 16 31
M  V30 31 1 10 2
M  V30 32 1 31 12
M  V30 33 1 24 17
M  V30 34 1 30 22
M  V30 35 1 1 32
M  V30 36 1 1 33
M  V30 37 1 1 34
M  V30 38 1 3 35
M  V30 39 1 7 36
M  V30 40 1 7 37
M  V30 41 1 8 38
M  V30 42 1 9 39
M  V30 43 1 11 40
M  V30 44 1 14 41
M  V30 45 1 15 42
M  V30 46 1 18 43
M  V30 47 1 24 44
M  V30 48 1 26 45
M  V30 49 1 26 46
M  V30 50 1 26 47
M  V30 51 1 27 48
M  V30 52 1 27 49
M  V30 53 1 28 50
M  V30 54 1 29 51
M  V30 55 1 29 52
M  V30 56 1 30 53
M  V30 END BOND
M  V30 END CTAB
M  END
>  <Dataset>  (593) 
ChEMBL_Kinases

>  <Ligand_Instance>  (593) 
nan

>  <PDB_ID>  (593) 
nan

>  <Standardized_SMILES>  (593) 
Cc1cc(F)c(CO)cc1Nc1nccc(-c2cc(C#N)c3c(c2)[C@@](C)(CO)CN3)n1

>  <Name>  (593) 
nan

>  <Pocket>  (593) 
nan

>  <ATP_Site>  (593) 
nan

>  <Peripheral>  (593) 
nan

>  <Num_H_Atoms_ProtBoundConf>  (593) 
nan

>  <Num_Resolved_Atoms>  (593) 
nan

>  <Num_Not_Resolved_Atoms>  (593) 
nan

$$$$
CHEMBL4783187
     RDKit          3D

  0  0  0  0  0  0  0  0  0  0999 V3000
M  V30 BEGIN CTAB
M  V30 COUNTS 51 54 0 0 0
M  V30 BEGIN ATOM
M  V30 1 C 3.271848 -0.172574 6.143035 0
M  V30 2 C 3.957563 -0.367142 4.792801 0
M  V30 3 C 2.940102 -0.093281 3.683592 0
M  V30 4 S 3.743521 -0.321465 2.092685 0
M  V30 5 O 5.031776 0.449087 2.041530 0
M  V30 6 O 4.171131 -1.779478 2.089847 0
M  V30 7 N 2.703833 -0.042247 0.780880 0
M  V30 8 C 1.954321 1.006297 0.254674 0
M  V30 9 C 2.535862 1.845313 -0.673373 0
M  V30 10 F 3.814692 1.683882 -1.090937 0
M  V30 11 C 1.839540 2.898037 -1.225939 0
M  V30 12 C 0.536916 3.100923 -0.831357 0
M  V30 13 C -0.149033 2.309697 0.102261 0
M  V30 14 C -1.510137 2.556013 0.459872 0
M  V30 15 O -1.595311 3.803904 0.733504 0
M  V30 16 C -2.714090 1.783777 0.574485 0
M  V30 17 N -3.812033 2.331758 1.122075 0
M  V30 18 N -4.799448 1.433560 1.111756 0
M  V30 19 C -4.420517 0.267655 0.569180 0
M  V30 20 N -5.006451 -0.916110 0.322351 0
M  V30 21 C -4.311495 -1.928247 -0.271573 0
M  V30 22 C -2.976347 -1.689389 -0.611763 0
M  V30 23 C -2.208179 -2.772952 -1.254403 0
M  V30 24 C -2.578505 -4.044762 -0.861514 0
M  V30 25 N -1.931006 -5.122176 -1.394874 0
M  V30 26 C -0.947902 -4.944769 -2.289158 0
M  V30 27 C -0.294735 -6.165923 -2.821350 0
M  V30 28 F -1.202073 -6.994395 -3.450669 0
M  V30 29 F 0.206793 -6.845648 -1.704067 0
M  V30 30 F 0.710959 -5.860366 -3.724252 0
M  V30 31 N -0.595539 -3.707822 -2.664248 0
M  V30 32 C -1.196107 -2.599023 -2.174594 0
M  V30 33 C -2.363054 -0.479384 -0.364031 0
M  V30 34 C -3.105695 0.508634 0.237275 0
M  V30 35 C 0.652244 1.289010 0.584515 0
M  V30 36 F 0.102980 0.453185 1.502776 0
M  V30 37 H 2.704424 -1.109542 6.328864 0
M  V30 38 H 2.650615 0.729974 6.059733 0
M  V30 39 H 4.082154 -0.009814 6.877672 0
M  V30 40 H 4.769523 0.389975 4.735380 0
M  V30 41 H 4.389594 -1.371649 4.684356 0
M  V30 42 H 2.135590 -0.843541 3.821170 0
M  V30 43 H 2.486570 0.899357 3.788982 0
M  V30 44 H 2.468203 -0.801387 0.075947 0
M  V30 45 H 2.285783 3.568439 -1.959533 0
M  V30 46 H 0.012203 3.939844 -1.285061 0
M  V30 47 H -5.746674 1.659989 1.495649 0
M  V30 48 H -4.799756 -2.875830 -0.462984 0
M  V30 49 H -3.358617 -4.284266 -0.147268 0
M  V30 50 H -0.952076 -1.588463 -2.441809 0
M  V30 51 H -1.336260 -0.303373 -0.637432 0
M  V30 END ATOM
M  V30 BEGIN BOND
M  V30 1 1 1 2
M  V30 2 1 2 3
M  V30 3 1 3 4
M  V30 4 2 4 5
M  V30 5 2 4 6
M  V30 6 1 4 7
M  V30 7 1 7 8
M  V30 8 2 8 9
M  V30 9 1 9 10
M  V30 10 1 9 11
M  V30 11 2 11 12
M  V30 12 1 12 13
M  V30 13 1 13 14
M  V30 14 2 14 15
M  V30 15 1 14 16
M  V30 16 2 16 17
M  V30 17 1 17 18
M  V30 18 1 18 19
M  V30 19 2 19 20
M  V30 20 1 20 21
M  V30 21 2 21 22
M  V30 22 1 22 23
M  V30 23 2 23 24
M  V30 24 1 24 25
M  V30 25 2 25 26
M  V30 26 1 26 27
M  V30 27 1 27 28
M  V30 28 1 27 29
M  V30 29 1 27 30
M  V30 30 1 26 31
M  V30 31 2 31 32
M  V30 32 1 22 33
M  V30 33 2 33 34
M  V30 34 2 13 35
M  V30 35 1 35 36
M  V30 36 1 35 8
M  V30 37 1 34 16
M  V30 38 1 34 19
M  V30 39 1 32 23
M  V30 40 1 1 37
M  V30 41 1 1 38
M  V30 42 1 1 39
M  V30 43 1 2 40
M  V30 44 1 2 41
M  V30 45 1 3 42
M  V30 46 1 3 43
M  V30 47 1 7 44
M  V30 48 1 11 45
M  V30 49 1 12 46
M  V30 50 1 18 47
M  V30 51 1 21 48
M  V30 52 1 24 49
M  V30 53 1 32 50
M  V30 54 1 33 51
M  V30 END BOND
M  V30 END CTAB
M  END
>  <Dataset>  (594) 
ChEMBL_Kinases

>  <Ligand_Instance>  (594) 
nan

>  <PDB_ID>  (594) 
nan

>  <Standardized_SMILES>  (594) 
CCCS(=O)(=O)Nc1c(F)ccc(C(=O)c2n[nH]c3ncc(-c4cnc(C(F)(F)F)nc4)cc23)c1F

>  <Name>  (594) 
nan

>  <Pocket>  (594) 
nan

>  <ATP_Site>  (594) 
nan

>  <Peripheral>  (594) 
nan

>  <Num_H_Atoms_ProtBoundConf>  (594) 
nan

>  <Num_Resolved_Atoms>  (594) 
nan

>  <Num_Not_Resolved_Atoms>  (594) 
nan

$$$$
CHEMBL4207165
     RDKit          3D

  0  0  0  0  0  0  0  0  0  0999 V3000
M  V30 BEGIN CTAB
M  V30 COUNTS 73 76 0 0 0
M  V30 BEGIN ATOM
M  V30 1 C 1.868498 -3.560848 5.540103 0
M  V30 2 C 1.808098 -2.653446 4.334627 0
M  V30 3 C 2.720142 -1.453395 4.501822 0 CFG=2
M  V30 4 C 2.269255 -0.715399 5.699936 0
M  V30 5 O 2.668965 -1.096534 6.850758 0
M  V30 6 N 1.406993 0.409290 5.671289 0
M  V30 7 C 0.716727 0.909803 6.828350 0
M  V30 8 C 1.266249 1.021240 4.396158 0
M  V30 9 C 0.448528 2.131263 4.233661 0
M  V30 10 N 0.278997 2.748030 3.049717 0
M  V30 11 C 0.951923 2.230705 2.005343 0
M  V30 12 N 0.920973 2.705497 0.642155 0
M  V30 13 C 0.224988 2.093121 -0.436271 0
M  V30 14 C -0.421410 0.902836 -0.135924 0
M  V30 15 C -1.126840 0.178751 -1.107392 0
M  V30 16 C -1.166992 0.689036 -2.410211 0
M  V30 17 C -1.874935 -0.022745 -3.461507 0
M  V30 18 O -1.879605 0.368795 -4.636717 0
M  V30 19 N -2.602904 -1.204449 -3.210995 0
M  V30 20 C -3.359051 -2.044445 -4.118355 0
M  V30 21 C -4.853113 -1.974701 -3.771771 0
M  V30 22 C -5.608929 -2.908575 -4.678351 0
M  V30 23 N -5.153909 -4.266615 -4.574030 0
M  V30 24 C -4.992272 -4.974329 -5.796577 0
M  V30 25 C -4.061722 -4.422431 -3.648177 0
M  V30 26 C -2.933798 -3.469980 -3.897481 0
M  V30 27 C -0.520233 1.869011 -2.682782 0
M  V30 28 C 0.172170 2.578527 -1.725518 0
M  V30 29 O 0.834950 3.753872 -1.925543 0
M  V30 30 C 0.972161 4.494595 -3.089534 0
M  V30 31 N 1.749051 1.156813 2.134668 0
M  V30 32 C 1.939259 0.516972 3.307076 0
M  V30 33 N 2.814588 -0.631427 3.344620 0
M  V30 34 C 3.721073 -0.983866 2.314669 0
M  V30 35 C 3.785050 0.022182 1.159748 0
M  V30 36 C 5.128014 -1.278269 2.728620 0
M  V30 37 H 0.966921 -3.506364 6.187218 0
M  V30 38 H 1.901435 -4.607981 5.179644 0
M  V30 39 H 2.809601 -3.396285 6.106022 0
M  V30 40 H 2.088882 -3.264878 3.452289 0
M  V30 41 H 0.747269 -2.289784 4.289793 0
M  V30 42 H 3.737677 -1.829303 4.727608 0
M  V30 43 H 0.949026 1.980792 7.026238 0
M  V30 44 H 0.957750 0.271623 7.698808 0
M  V30 45 H -0.372434 0.845735 6.637751 0
M  V30 46 H -0.060769 2.494655 5.110519 0
M  V30 47 H 1.495480 3.568502 0.602552 0
M  V30 48 H -0.394055 0.498194 0.889176 0
M  V30 49 H -1.602669 -0.738344 -0.800982 0
M  V30 50 H -2.668442 -1.614701 -2.252018 0
M  V30 51 H -3.211178 -1.740812 -5.179292 0
M  V30 52 H -5.250959 -0.961678 -3.774862 0
M  V30 53 H -4.934313 -2.388587 -2.744397 0
M  V30 54 H -6.688205 -2.875523 -4.452396 0
M  V30 55 H -5.469926 -2.567061 -5.721070 0
M  V30 56 H -3.978086 -5.354925 -5.956932 0
M  V30 57 H -5.639885 -5.899405 -5.743264 0
M  V30 58 H -5.390924 -4.428023 -6.679102 0
M  V30 59 H -4.433307 -4.365882 -2.605317 0
M  V30 60 H -3.663417 -5.459175 -3.778088 0
M  V30 61 H -2.300089 -3.498572 -2.977380 0
M  V30 62 H -2.254031 -3.822011 -4.709929 0
M  V30 63 H -0.539002 2.275825 -3.676812 0
M  V30 64 H 1.318831 3.892261 -3.934791 0
M  V30 65 H -0.037381 4.927995 -3.349826 0
M  V30 66 H 1.616161 5.404293 -2.931382 0
M  V30 67 H 3.326485 -1.952445 1.868222 0
M  V30 68 H 4.660613 -0.248897 0.491024 0
M  V30 69 H 2.909916 -0.084585 0.489020 0
M  V30 70 H 4.002715 1.041166 1.487678 0
M  V30 71 H 5.214511 -2.175849 3.371146 0
M  V30 72 H 5.493496 -0.417734 3.333497 0
M  V30 73 H 5.822104 -1.336746 1.846581 0
M  V30 END ATOM
M  V30 BEGIN BOND
M  V30 1 1 1 2
M  V30 2 1 2 3
M  V30 3 1 3 4
M  V30 4 2 4 5
M  V30 5 1 4 6
M  V30 6 1 6 7
M  V30 7 1 6 8
M  V30 8 2 8 9
M  V30 9 1 9 10
M  V30 10 2 10 11
M  V30 11 1 11 12
M  V30 12 1 12 13
M  V30 13 2 13 14
M  V30 14 1 14 15
M  V30 15 2 15 16
M  V30 16 1 16 17
M  V30 17 2 17 18
M  V30 18 1 17 19
M  V30 19 1 19 20
M  V30 20 1 20 21
M  V30 21 1 21 22
M  V30 22 1 22 23
M  V30 23 1 23 24
M  V30 24 1 23 25
M  V30 25 1 25 26
M  V30 26 1 16 27
M  V30 27 2 27 28
M  V30 28 1 28 29
M  V30 29 1 29 30
M  V30 30 1 11 31
M  V30 31 2 31 32
M  V30 32 1 32 33
M  V30 33 1 33 34
M  V30 34 1 34 35
M  V30 35 1 34 36
M  V30 36 1 33 3
M  V30 37 1 32 8
M  V30 38 1 28 13
M  V30 39 1 26 20
M  V30 40 1 1 37
M  V30 41 1 1 38
M  V30 42 1 1 39
M  V30 43 1 2 40
M  V30 44 1 2 41
M  V30 45 1 3 42 CFG=1
M  V30 46 1 7 43
M  V30 47 1 7 44
M  V30 48 1 7 45
M  V30 49 1 9 46
M  V30 50 1 12 47
M  V30 51 1 14 48
M  V30 52 1 15 49
M  V30 53 1 19 50
M  V30 54 1 20 51
M  V30 55 1 21 52
M  V30 56 1 21 53
M  V30 57 1 22 54
M  V30 58 1 22 55
M  V30 59 1 24 56
M  V30 60 1 24 57
M  V30 61 1 24 58
M  V30 62 1 25 59
M  V30 63 1 25 60
M  V30 64 1 26 61
M  V30 65 1 26 62
M  V30 66 1 27 63
M  V30 67 1 30 64
M  V30 68 1 30 65
M  V30 69 1 30 66
M  V30 70 1 34 67
M  V30 71 1 35 68
M  V30 72 1 35 69
M  V30 73 1 35 70
M  V30 74 1 36 71
M  V30 75 1 36 72
M  V30 76 1 36 73
M  V30 END BOND
M  V30 END CTAB
M  END
>  <Dataset>  (595) 
ChEMBL_Kinases

>  <Ligand_Instance>  (595) 
nan

>  <PDB_ID>  (595) 
nan

>  <Standardized_SMILES>  (595) 
CC[C@@H]1C(=O)N(C)c2cnc(Nc3ccc(C(=O)NC4CCN(C)CC4)cc3OC)nc2N1C(C)C

>  <Name>  (595) 
nan

>  <Pocket>  (595) 
nan

>  <ATP_Site>  (595) 
nan

>  <Peripheral>  (595) 
nan

>  <Num_H_Atoms_ProtBoundConf>  (595) 
nan

>  <Num_Resolved_Atoms>  (595) 
nan

>  <Num_Not_Resolved_Atoms>  (595) 
nan

$$$$
CHEMBL4207147
     RDKit          3D

  0  0  0  0  0  0  0  0  0  0999 V3000
M  V30 BEGIN CTAB
M  V30 COUNTS 68 72 0 0 0
M  V30 BEGIN ATOM
M  V30 1 C 3.507292 1.582303 7.817120 0
M  V30 2 O 2.628241 2.505659 7.214013 0
M  V30 3 C 2.166732 2.262293 5.915174 0
M  V30 4 C 1.300280 3.115504 5.246784 0
M  V30 5 C 0.840114 2.880761 3.966413 0
M  V30 6 C 1.268822 1.727498 3.312135 0
M  V30 7 C 2.134089 0.844547 3.936440 0
M  V30 8 C 2.584748 -0.395383 3.204611 0 CFG=1
M  V30 9 C 1.596792 -1.499336 3.328030 0
M  V30 10 N 2.911353 -0.007301 1.869206 0
M  V30 11 C 4.137786 0.125704 1.170390 0
M  V30 12 O 5.167416 -0.150150 1.847166 0
M  V30 13 C 4.310785 0.541660 -0.222081 0
M  V30 14 N 2.995060 0.795059 -0.786192 0
M  V30 15 C 2.170502 1.982586 -0.853187 0
M  V30 16 C 0.961070 1.542051 -1.560974 0
M  V30 17 C -0.214635 2.183556 -1.950074 0
M  V30 18 C -1.264526 1.594480 -2.622290 0
M  V30 19 C -1.176781 0.271308 -2.950179 0
M  V30 20 C -2.202415 -0.455684 -3.648083 0
M  V30 21 N -2.519870 -1.676803 -3.178832 0
M  V30 22 C -3.441294 -2.494582 -3.690525 0
M  V30 23 N -3.721546 -3.769982 -3.143758 0
M  V30 24 C -3.060817 -4.308950 -2.011672 0
M  V30 25 C -3.581805 -5.699940 -1.669773 0
M  V30 26 C -4.715022 -5.631002 -0.673584 0
M  V30 27 O -5.317562 -4.385171 -0.647891 0
M  V30 28 C -4.474374 -3.429654 -0.140195 0
M  V30 29 C -3.095680 -3.503733 -0.759109 0
M  V30 30 N -4.106783 -2.044626 -4.774915 0
M  V30 31 C -3.848373 -0.837572 -5.303387 0
M  V30 32 C -2.894818 0.004184 -4.771527 0
M  V30 33 Cl -2.456448 1.592650 -5.350929 0
M  V30 34 C -0.035473 -0.427459 -2.594047 0
M  V30 35 C 0.993547 0.198695 -1.921101 0
M  V30 36 C 2.282627 -0.280204 -1.431352 0
M  V30 37 O 2.653680 -1.490795 -1.590256 0
M  V30 38 C 2.569898 1.130195 5.235224 0
M  V30 39 H 2.955806 0.644247 8.013327 0
M  V30 40 H 3.865493 1.998182 8.779652 0
M  V30 41 H 4.326482 1.404137 7.076667 0
M  V30 42 H 0.955733 4.029312 5.753867 0
M  V30 43 H 0.158574 3.619772 3.529542 0
M  V30 44 H 0.893515 1.565497 2.307363 0
M  V30 45 H 3.534464 -0.687735 3.712730 0
M  V30 46 H 2.022940 -2.309766 3.947898 0
M  V30 47 H 0.648793 -1.190298 3.820417 0
M  V30 48 H 1.423024 -1.933417 2.323083 0
M  V30 49 H 2.040527 0.221270 1.305611 0
M  V30 50 H 4.883623 1.487888 -0.330542 0
M  V30 51 H 4.851747 -0.234320 -0.772329 0
M  V30 52 H 1.912583 2.332491 0.185423 0
M  V30 53 H 2.710922 2.801036 -1.361728 0
M  V30 54 H -0.312347 3.230581 -1.706253 0
M  V30 55 H -2.134535 2.167308 -2.883558 0
M  V30 56 H -4.472535 -4.359526 -3.611755 0
M  V30 57 H -1.993111 -4.477130 -2.307941 0
M  V30 58 H -2.808051 -6.366833 -1.283741 0
M  V30 59 H -3.963573 -6.167006 -2.615064 0
M  V30 60 H -4.354017 -5.961729 0.320338 0
M  V30 61 H -5.531660 -6.348876 -0.958076 0
M  V30 62 H -4.412962 -3.549642 0.982460 0
M  V30 63 H -4.910602 -2.403157 -0.317295 0
M  V30 64 H -2.644818 -2.503132 -0.819715 0
M  V30 65 H -2.466191 -4.074269 -0.015234 0
M  V30 66 H -4.342130 -0.418293 -6.167862 0
M  V30 67 H 0.051181 -1.491095 -2.850071 0
M  V30 68 H 3.241287 0.401268 5.660762 0
M  V30 END ATOM
M  V30 BEGIN BOND
M  V30 1 1 1 2
M  V30 2 1 2 3
M  V30 3 2 3 4
M  V30 4 1 4 5
M  V30 5 2 5 6
M  V30 6 1 6 7
M  V30 7 1 7 8
M  V30 8 1 8 9
M  V30 9 1 8 10
M  V30 10 1 10 11
M  V30 11 2 11 12
M  V30 12 1 11 13
M  V30 13 1 13 14
M  V30 14 1 14 15
M  V30 15 1 15 16
M  V30 16 2 16 17
M  V30 17 1 17 18
M  V30 18 2 18 19
M  V30 19 1 19 20
M  V30 20 2 20 21
M  V30 21 1 21 22
M  V30 22 1 22 23
M  V30 23 1 23 24
M  V30 24 1 24 25
M  V30 25 1 25 26
M  V30 26 1 26 27
M  V30 27 1 27 28
M  V30 28 1 28 29
M  V30 29 2 22 30
M  V30 30 1 30 31
M  V30 31 2 31 32
M  V30 32 1 32 33
M  V30 33 1 19 34
M  V30 34 2 34 35
M  V30 35 1 35 36
M  V30 36 2 36 37
M  V30 37 2 7 38
M  V30 38 1 38 3
M  V30 39 1 36 14
M  V30 40 1 35 16
M  V30 41 1 32 20
M  V30 42 1 29 24
M  V30 43 1 1 39
M  V30 44 1 1 40
M  V30 45 1 1 41
M  V30 46 1 4 42
M  V30 47 1 5 43
M  V30 48 1 6 44
M  V30 49 1 8 45 CFG=1
M  V30 50 1 9 46
M  V30 51 1 9 47
M  V30 52 1 9 48
M  V30 53 1 10 49
M  V30 54 1 13 50
M  V30 55 1 13 51
M  V30 56 1 15 52
M  V30 57 1 15 53
M  V30 58 1 17 54
M  V30 59 1 18 55
M  V30 60 1 23 56
M  V30 61 1 24 57
M  V30 62 1 25 58
M  V30 63 1 25 59
M  V30 64 1 26 60
M  V30 65 1 26 61
M  V30 66 1 28 62
M  V30 67 1 28 63
M  V30 68 1 29 64
M  V30 69 1 29 65
M  V30 70 1 31 66
M  V30 71 1 34 67
M  V30 72 1 38 68
M  V30 END BOND
M  V30 END CTAB
M  END
>  <Dataset>  (596) 
ChEMBL_Kinases

>  <Ligand_Instance>  (596) 
nan

>  <PDB_ID>  (596) 
nan

>  <Standardized_SMILES>  (596) 
COc1cccc([C@@H](C)NC(=O)CN2Cc3ccc(-c4nc(NC5CCOCC5)ncc4Cl)cc3C2=O)c1

>  <Name>  (596) 
nan

>  <Pocket>  (596) 
nan

>  <ATP_Site>  (596) 
nan

>  <Peripheral>  (596) 
nan

>  <Num_H_Atoms_ProtBoundConf>  (596) 
nan

>  <Num_Resolved_Atoms>  (596) 
nan

>  <Num_Not_Resolved_Atoms>  (596) 
nan

$$$$
CHEMBL4207133
     RDKit          3D

  0  0  0  0  0  0  0  0  0  0999 V3000
M  V30 BEGIN CTAB
M  V30 COUNTS 30 32 0 0 0
M  V30 BEGIN ATOM
M  V30 1 C -2.735308 -1.604952 3.356976 0
M  V30 2 S -0.951610 -1.763634 3.658367 0
M  V30 3 C -0.133837 -0.798067 2.383183 0
M  V30 4 C 0.210467 -1.400066 1.188001 0
M  V30 5 C 0.840142 -0.721978 0.163498 0
M  V30 6 C 1.217765 -1.327182 -1.111437 0
M  V30 7 C 1.842435 -0.519891 -2.040001 0
M  V30 8 C 2.235579 -1.018884 -3.281744 0
M  V30 9 C 1.985808 -2.351261 -3.569445 0
M  V30 10 C 1.362635 -3.183002 -2.660330 0
M  V30 11 C 0.990730 -2.645817 -1.443147 0
M  V30 12 N 1.128179 0.580714 0.342724 0
M  V30 13 C 0.807257 1.220320 1.507973 0
M  V30 14 N 0.960960 2.477380 1.970395 0
M  V30 15 N 0.465900 2.580962 3.191477 0
M  V30 16 C -0.038682 1.395854 3.593555 0
M  V30 17 N -0.661241 1.071627 4.832401 0
M  V30 18 C 0.176739 0.538245 2.531833 0
M  V30 19 H -3.148995 -2.556844 2.947097 0
M  V30 20 H -2.978696 -0.823945 2.596658 0
M  V30 21 H -3.245674 -1.279094 4.280667 0
M  V30 22 H -0.024395 -2.446135 1.052397 0
M  V30 23 H 2.078338 0.529938 -1.904416 0
M  V30 24 H 2.725225 -0.440021 -4.044809 0
M  V30 25 H 2.286936 -2.763537 -4.540221 0
M  V30 26 H 1.164889 -4.230568 -2.883344 0
M  V30 27 H 0.502602 -3.286298 -0.723837 0
M  V30 28 H 1.407004 3.261823 1.443191 0
M  V30 29 H -1.657867 0.752419 4.694974 0
M  V30 30 H -1.610411 0.734751 5.050267 0
M  V30 END ATOM
M  V30 BEGIN BOND
M  V30 1 1 1 2
M  V30 2 1 2 3
M  V30 3 2 3 4
M  V30 4 1 4 5
M  V30 5 1 5 6
M  V30 6 2 6 7
M  V30 7 1 7 8
M  V30 8 2 8 9
M  V30 9 1 9 10
M  V30 10 2 10 11
M  V30 11 2 5 12
M  V30 12 1 12 13
M  V30 13 1 13 14
M  V30 14 1 14 15
M  V30 15 2 15 16
M  V30 16 1 16 17
M  V30 17 1 16 18
M  V30 18 1 18 3
M  V30 19 1 11 6
M  V30 20 2 18 13
M  V30 21 1 1 19
M  V30 22 1 1 20
M  V30 23 1 1 21
M  V30 24 1 4 22
M  V30 25 1 7 23
M  V30 26 1 8 24
M  V30 27 1 9 25
M  V30 28 1 10 26
M  V30 29 1 11 27
M  V30 30 1 14 28
M  V30 31 1 17 29
M  V30 32 1 17 30
M  V30 END BOND
M  V30 END CTAB
M  END
>  <Dataset>  (597) 
ChEMBL_Kinases

>  <Ligand_Instance>  (597) 
nan

>  <PDB_ID>  (597) 
nan

>  <Standardized_SMILES>  (597) 
CSc1cc(-c2ccccc2)nc2[nH]nc(N)c12

>  <Name>  (597) 
nan

>  <Pocket>  (597) 
nan

>  <ATP_Site>  (597) 
nan

>  <Peripheral>  (597) 
nan

>  <Num_H_Atoms_ProtBoundConf>  (597) 
nan

>  <Num_Resolved_Atoms>  (597) 
nan

>  <Num_Not_Resolved_Atoms>  (597) 
nan

$$$$
CHEMBL4207117
     RDKit          3D

  0  0  0  0  0  0  0  0  0  0999 V3000
M  V30 BEGIN CTAB
M  V30 COUNTS 64 68 0 0 0
M  V30 BEGIN ATOM
M  V30 1 C 2.133136 0.749313 5.657377 0
M  V30 2 C 3.459769 0.863232 4.903111 0 CFG=1
M  V30 3 N 3.463984 -0.242305 3.953180 0
M  V30 4 C 4.337668 -1.342481 3.782653 0
M  V30 5 O 5.278997 -1.324131 4.637313 0
M  V30 6 C 4.014162 -2.286277 2.680234 0
M  V30 7 N 2.823195 -1.908695 1.944709 0
M  V30 8 C 2.775223 -1.044373 0.765517 0
M  V30 9 C 1.323193 -1.012487 0.447743 0
M  V30 10 C 0.744853 -0.315868 -0.605230 0
M  V30 11 C -0.633639 -0.393591 -0.760461 0
M  V30 12 C -1.384267 -1.159356 0.135023 0
M  V30 13 C -2.821100 -1.175253 -0.115429 0
M  V30 14 N -3.313769 -1.344151 -1.346626 0
M  V30 15 C -4.592534 -1.375778 -1.693338 0
M  V30 16 N -5.048807 -1.560212 -3.027289 0
M  V30 17 C -4.106137 -1.725556 -4.087317 0
M  V30 18 C -3.197049 -2.924895 -3.926575 0
M  V30 19 C -3.985590 -4.122886 -4.406667 0
M  V30 20 O -4.054754 -4.081252 -5.780902 0
M  V30 21 C -4.088866 -2.822005 -6.328745 0
M  V30 22 C -4.741815 -1.791751 -5.437627 0
M  V30 23 N -5.476449 -1.217276 -0.669879 0
M  V30 24 C -5.074174 -1.040258 0.609273 0
M  V30 25 C -3.726834 -1.017028 0.904041 0
M  V30 26 Cl -3.208673 -0.788058 2.557269 0
M  V30 27 C -0.782240 -1.840975 1.172147 0
M  V30 28 C 0.586692 -1.774048 1.340201 0
M  V30 29 C 1.517764 -2.354243 2.301770 0
M  V30 30 O 1.205958 -3.106483 3.261752 0
M  V30 31 C 3.447867 2.162787 4.181298 0
M  V30 32 C 2.628268 3.233814 4.517117 0
M  V30 33 C 2.660550 4.420220 3.808549 0
M  V30 34 C 3.530122 4.537113 2.742957 0
M  V30 35 C 4.353396 3.467846 2.401923 0
M  V30 36 C 4.314932 2.278645 3.119182 0
M  V30 37 H 1.326887 0.854080 4.926263 0
M  V30 38 H 2.078298 -0.317840 6.013071 0
M  V30 39 H 2.082778 1.417454 6.524992 0
M  V30 40 H 4.313106 0.788645 5.599980 0
M  V30 41 H 2.622641 -0.108353 3.319123 0
M  V30 42 H 3.976145 -3.340202 3.007877 0
M  V30 43 H 4.869568 -2.209094 1.965753 0
M  V30 44 H 3.358467 -1.530570 -0.063175 0
M  V30 45 H 3.197870 -0.053847 0.989315 0
M  V30 46 H 1.293573 0.282423 -1.312087 0
M  V30 47 H -1.101815 0.143212 -1.576114 0
M  V30 48 H -6.076930 -1.570852 -3.204361 0
M  V30 49 H -3.431515 -0.834669 -4.055559 0
M  V30 50 H -2.798591 -3.053190 -2.919383 0
M  V30 51 H -2.317812 -2.797279 -4.592966 0
M  V30 52 H -3.504402 -5.079922 -4.119062 0
M  V30 53 H -5.022723 -4.041992 -4.009311 0
M  V30 54 H -3.102074 -2.499131 -6.728291 0
M  V30 55 H -4.741577 -2.901773 -7.247422 0
M  V30 56 H -4.658884 -0.812399 -5.943513 0
M  V30 57 H -5.824002 -2.032771 -5.402275 0
M  V30 58 H -5.803150 -0.916387 1.405119 0
M  V30 59 H -1.385614 -2.420919 1.843549 0
M  V30 60 H 1.966714 3.098045 5.354271 0
M  V30 61 H 1.974835 5.193362 4.159063 0
M  V30 62 H 3.532448 5.486854 2.202611 0
M  V30 63 H 5.031039 3.571021 1.564713 0
M  V30 64 H 4.992151 1.479410 2.793277 0
M  V30 END ATOM
M  V30 BEGIN BOND
M  V30 1 1 1 2
M  V30 2 1 2 3
M  V30 3 1 3 4
M  V30 4 2 4 5
M  V30 5 1 4 6
M  V30 6 1 6 7
M  V30 7 1 7 8
M  V30 8 1 8 9
M  V30 9 2 9 10
M  V30 10 1 10 11
M  V30 11 2 11 12
M  V30 12 1 12 13
M  V30 13 2 13 14
M  V30 14 1 14 15
M  V30 15 1 15 16
M  V30 16 1 16 17
M  V30 17 1 17 18
M  V30 18 1 18 19
M  V30 19 1 19 20
M  V30 20 1 20 21
M  V30 21 1 21 22
M  V30 22 2 15 23
M  V30 23 1 23 24
M  V30 24 2 24 25
M  V30 25 1 25 26
M  V30 26 1 12 27
M  V30 27 2 27 28
M  V30 28 1 28 29
M  V30 29 2 29 30
M  V30 30 1 2 31
M  V30 31 2 31 32
M  V30 32 1 32 33
M  V30 33 2 33 34
M  V30 34 1 34 35
M  V30 35 2 35 36
M  V30 36 1 29 7
M  V30 37 1 36 31
M  V30 38 1 28 9
M  V30 39 1 25 13
M  V30 40 1 22 17
M  V30 41 1 1 37
M  V30 42 1 1 38
M  V30 43 1 1 39
M  V30 44 1 2 40 CFG=1
M  V30 45 1 3 41
M  V30 46 1 6 42
M  V30 47 1 6 43
M  V30 48 1 8 44
M  V30 49 1 8 45
M  V30 50 1 10 46
M  V30 51 1 11 47
M  V30 52 1 16 48
M  V30 53 1 17 49
M  V30 54 1 18 50
M  V30 55 1 18 51
M  V30 56 1 19 52
M  V30 57 1 19 53
M  V30 58 1 21 54
M  V30 59 1 21 55
M  V30 60 1 22 56
M  V30 61 1 22 57
M  V30 62 1 24 58
M  V30 63 1 27 59
M  V30 64 1 32 60
M  V30 65 1 33 61
M  V30 66 1 34 62
M  V30 67 1 35 63
M  V30 68 1 36 64
M  V30 END BOND
M  V30 END CTAB
M  END
>  <Dataset>  (598) 
ChEMBL_Kinases

>  <Ligand_Instance>  (598) 
nan

>  <PDB_ID>  (598) 
nan

>  <Standardized_SMILES>  (598) 
C[C@@H](NC(=O)CN1Cc2ccc(-c3nc(NC4CCOCC4)ncc3Cl)cc2C1=O)c1ccccc1

>  <Name>  (598) 
nan

>  <Pocket>  (598) 
nan

>  <ATP_Site>  (598) 
nan

>  <Peripheral>  (598) 
nan

>  <Num_H_Atoms_ProtBoundConf>  (598) 
nan

>  <Num_Resolved_Atoms>  (598) 
nan

>  <Num_Not_Resolved_Atoms>  (598) 
nan

$$$$
CHEMBL4207100
     RDKit          3D

  0  0  0  0  0  0  0  0  0  0999 V3000
M  V30 BEGIN CTAB
M  V30 COUNTS 84 89 0 0 0
M  V30 BEGIN ATOM
M  V30 1 C -2.221405 -6.928060 -6.948320 0
M  V30 2 C -2.396993 -5.499524 -6.598260 0
M  V30 3 C -2.228322 -4.484888 -7.509827 0
M  V30 4 C -2.384520 -3.143936 -7.206574 0
M  V30 5 C -2.735985 -2.749277 -5.903382 0
M  V30 6 N -2.910135 -1.400597 -5.530398 0
M  V30 7 C -3.155574 -0.856394 -4.255142 0
M  V30 8 N -3.269783 -1.545786 -3.115398 0
M  V30 9 C -3.490251 -1.027014 -1.901945 0
M  V30 10 C -3.599573 0.333146 -1.887473 0
M  V30 11 C -3.495639 1.124449 -2.997053 0
M  V30 12 N -3.278567 0.478547 -4.131069 0
M  V30 13 N -3.515282 2.545171 -2.998569 0
M  V30 14 C -3.423928 3.291674 -4.235402 0
M  V30 15 C -3.637602 3.243843 -1.757908 0
M  V30 16 O -3.672104 4.494066 -1.657951 0
M  V30 17 N -3.716778 2.374496 -0.639456 0
M  V30 18 C -3.522211 2.962811 0.661136 0
M  V30 19 C -2.169391 2.887618 0.998402 0
M  V30 20 C -1.691352 3.390663 2.222469 0
M  V30 21 N -0.271147 3.268620 2.475224 0
M  V30 22 C -0.134953 1.993682 3.063889 0
M  V30 23 O -1.276691 1.424878 3.172129 0
M  V30 24 C 1.132841 1.366643 3.505282 0
M  V30 25 C 2.403327 1.892609 3.415358 0
M  V30 26 C 3.445067 1.122312 3.870723 0
M  V30 27 C 3.338540 -0.141471 4.415498 0
M  V30 28 C 4.537164 -0.898398 4.870961 0
M  V30 29 N 4.877845 -1.943253 3.909710 0
M  V30 30 C 5.138717 -1.374420 2.596467 0
M  V30 31 C 5.455099 -2.494764 1.649500 0
M  V30 32 N 6.700643 -3.117902 2.067960 0
M  V30 33 C 7.078485 -4.173330 1.124902 0
M  V30 34 C 6.414013 -3.734291 3.370054 0
M  V30 35 C 6.081808 -2.627612 4.324922 0
M  V30 36 C 2.049671 -0.628284 4.486626 0
M  V30 37 C 1.847854 -1.987682 5.062855 0
M  V30 38 F 0.489161 -2.283398 5.045004 0
M  V30 39 F 2.459514 -2.973398 4.286580 0
M  V30 40 F 2.264376 -2.068223 6.375021 0
M  V30 41 C 0.976203 0.108407 4.042584 0
M  V30 42 C -2.602106 3.963584 3.085233 0
M  V30 43 C -3.937767 4.038461 2.752965 0
M  V30 44 C -4.389088 3.540443 1.548944 0
M  V30 45 C -5.786451 3.563464 1.081975 0
M  V30 46 C -3.924722 0.949046 -0.550884 0
M  V30 47 C -2.888207 -3.808847 -5.047321 0
M  V30 48 N -2.733686 -5.119520 -5.350216 0
M  V30 49 H -3.110228 -7.371106 -7.413302 0
M  V30 50 H -1.360547 -7.039399 -7.608053 0
M  V30 51 H -2.024104 -7.539862 -6.017470 0
M  V30 52 H -1.959705 -4.693180 -8.527736 0
M  V30 53 H -2.240291 -2.358063 -7.957297 0
M  V30 54 H -2.837969 -0.733386 -6.352867 0
M  V30 55 H -3.576337 -1.621023 -1.002275 0
M  V30 56 H -3.635634 2.617726 -5.091318 0
M  V30 57 H -2.389523 3.669644 -4.343073 0
M  V30 58 H -4.097238 4.173701 -4.241203 0
M  V30 59 H -1.386561 2.443833 0.357337 0
M  V30 60 H 0.582715 3.847450 2.335142 0
M  V30 61 H 2.457366 2.878814 2.988596 0
M  V30 62 H 4.452947 1.541425 3.800174 0
M  V30 63 H 4.416539 -1.377801 5.846409 0
M  V30 64 H 5.385351 -0.185878 4.898200 0
M  V30 65 H 5.951563 -0.637834 2.591947 0
M  V30 66 H 4.196853 -0.847960 2.321930 0
M  V30 67 H 4.696093 -3.302805 1.694047 0
M  V30 68 H 5.527079 -2.161885 0.604010 0
M  V30 69 H 6.799936 -3.835065 0.084919 0
M  V30 70 H 8.190912 -4.325917 1.133696 0
M  V30 71 H 6.592832 -5.131280 1.400913 0
M  V30 72 H 7.360821 -4.230098 3.688408 0
M  V30 73 H 5.582141 -4.458186 3.275384 0
M  V30 74 H 6.946164 -1.952287 4.396191 0
M  V30 75 H 5.882879 -3.054435 5.348416 0
M  V30 76 H -0.000235 -0.372177 4.146163 0
M  V30 77 H -2.215309 4.346370 4.018465 0
M  V30 78 H -4.664886 4.481379 3.408491 0
M  V30 79 H -6.404807 3.715087 2.017792 0
M  V30 80 H -6.157426 2.625682 0.653787 0
M  V30 81 H -6.010275 4.461908 0.471919 0
M  V30 82 H -5.024257 0.782912 -0.339548 0
M  V30 83 H -3.335587 0.461705 0.226797 0
M  V30 84 H -3.155118 -3.679540 -4.024484 0
M  V30 END ATOM
M  V30 BEGIN BOND
M  V30 1 1 1 2
M  V30 2 2 2 3
M  V30 3 1 3 4
M  V30 4 2 4 5
M  V30 5 1 5 6
M  V30 6 1 6 7
M  V30 7 2 7 8
M  V30 8 1 8 9
M  V30 9 2 9 10
M  V30 10 1 10 11
M  V30 11 2 11 12
M  V30 12 1 11 13
M  V30 13 1 13 14
M  V30 14 1 13 15
M  V30 15 2 15 16
M  V30 16 1 15 17
M  V30 17 1 17 18
M  V30 18 2 18 19
M  V30 19 1 19 20
M  V30 20 1 20 21
M  V30 21 1 21 22
M  V30 22 2 22 23
M  V30 23 1 22 24
M  V30 24 2 24 25
M  V30 25 1 25 26
M  V30 26 2 26 27
M  V30 27 1 27 28
M  V30 28 1 28 29
M  V30 29 1 29 30
M  V30 30 1 30 31
M  V30 31 1 31 32
M  V30 32 1 32 33
M  V30 33 1 32 34
M  V30 34 1 34 35
M  V30 35 1 27 36
M  V30 36 1 36 37
M  V30 37 1 37 38
M  V30 38 1 37 39
M  V30 39 1 37 40
M  V30 40 2 36 41
M  V30 41 2 20 42
M  V30 42 1 42 43
M  V30 43 2 43 44
M  V30 44 1 44 45
M  V30 45 1 17 46
M  V30 46 1 5 47
M  V30 47 2 47 48
M  V30 48 1 48 2
M  V30 49 1 12 7
M  V30 50 1 44 18
M  V30 51 1 46 10
M  V30 52 1 41 24
M  V30 53 1 35 29
M  V30 54 1 1 49
M  V30 55 1 1 50
M  V30 56 1 1 51
M  V30 57 1 3 52
M  V30 58 1 4 53
M  V30 59 1 6 54
M  V30 60 1 9 55
M  V30 61 1 14 56
M  V30 62 1 14 57
M  V30 63 1 14 58
M  V30 64 1 19 59
M  V30 65 1 21 60
M  V30 66 1 25 61
M  V30 67 1 26 62
M  V30 68 1 28 63
M  V30 69 1 28 64
M  V30 70 1 30 65
M  V30 71 1 30 66
M  V30 72 1 31 67
M  V30 73 1 31 68
M  V30 74 1 33 69
M  V30 75 1 33 70
M  V30 76 1 33 71
M  V30 77 1 34 72
M  V30 78 1 34 73
M  V30 79 1 35 74
M  V30 80 1 35 75
M  V30 81 1 41 76
M  V30 82 1 42 77
M  V30 83 1 43 78
M  V30 84 1 45 79
M  V30 85 1 45 80
M  V30 86 1 45 81
M  V30 87 1 46 82
M  V30 88 1 46 83
M  V30 89 1 47 84
M  V30 END BOND
M  V30 END CTAB
M  END
>  <Dataset>  (599) 
ChEMBL_Kinases

>  <Ligand_Instance>  (599) 
nan

>  <PDB_ID>  (599) 
nan

>  <Standardized_SMILES>  (599) 
Cc1ccc(Nc2ncc3c(n2)N(C)C(=O)N(c2cc(NC(=O)c4ccc(CN5CCN(C)CC5)c(C(F)(F)F)c4)ccc2C)C3)cn1

>  <Name>  (599) 
nan

>  <Pocket>  (599) 
nan

>  <ATP_Site>  (599) 
nan

>  <Peripheral>  (599) 
nan

>  <Num_H_Atoms_ProtBoundConf>  (599) 
nan

>  <Num_Resolved_Atoms>  (599) 
nan

>  <Num_Not_Resolved_Atoms>  (599) 
nan

$$$$
CHEMBL4207094
     RDKit          3D

  0  0  0  0  0  0  0  0  0  0999 V3000
M  V30 BEGIN CTAB
M  V30 COUNTS 38 41 0 0 0
M  V30 BEGIN ATOM
M  V30 1 O -2.730596 -1.092169 2.524473 0
M  V30 2 C -2.007671 -1.056691 1.483236 0
M  V30 3 N -2.070113 -1.956527 0.383852 0
M  V30 4 C -0.787533 -2.104924 -0.277397 0
M  V30 5 C -0.897885 -2.877892 -1.561558 0
M  V30 6 C -0.654711 -4.339610 -1.449216 0
M  V30 7 C -0.690755 -4.890648 -0.065495 0
M  V30 8 C 0.162104 -4.130520 0.902972 0
M  V30 9 C 0.241470 -2.656099 0.658742 0
M  V30 10 N -0.337423 -0.753600 -0.634525 0
M  V30 11 C -0.124543 0.239161 0.363716 0
M  V30 12 C 0.725049 1.305109 0.501492 0
M  V30 13 C 0.669273 2.063356 1.596477 0
M  V30 14 C 1.468285 3.227787 1.942355 0
M  V30 15 C 2.446877 3.667391 1.050392 0
M  V30 16 C 3.205113 4.781189 1.390372 0
M  V30 17 N 2.971097 5.397176 2.565331 0
M  V30 18 C 2.022653 4.976092 3.436444 0
M  V30 19 C 1.244699 3.872611 3.140013 0
M  V30 20 S -0.602032 1.391518 2.620381 0
M  V30 21 C -1.038725 0.030216 1.465295 0
M  V30 22 H -3.037194 -2.372211 0.225584 0
M  V30 23 H -0.159075 -2.475388 -2.285829 0
M  V30 24 H -1.899515 -2.624735 -1.996013 0
M  V30 25 H -1.456967 -4.884387 -2.027582 0
M  V30 26 H 0.298458 -4.666345 -1.934830 0
M  V30 27 H -0.270055 -5.930763 -0.122845 0
M  V30 28 H -1.741654 -5.033135 0.313074 0
M  V30 29 H -0.282333 -4.310812 1.913195 0
M  V30 30 H 1.213822 -4.513666 0.968776 0
M  V30 31 H 1.249825 -2.334519 0.265072 0
M  V30 32 H 0.151984 -2.118611 1.625060 0
M  V30 33 H -0.154665 -0.472347 -1.646368 0
M  V30 34 H 1.437754 1.527584 -0.281541 0
M  V30 35 H 2.611308 3.150054 0.112083 0
M  V30 36 H 3.957564 5.107294 0.688659 0
M  V30 37 H 1.845844 5.480727 4.376473 0
M  V30 38 H 0.494986 3.557199 3.851858 0
M  V30 END ATOM
M  V30 BEGIN BOND
M  V30 1 2 1 2
M  V30 2 1 2 3
M  V30 3 1 3 4
M  V30 4 1 4 5
M  V30 5 1 5 6
M  V30 6 1 6 7
M  V30 7 1 7 8
M  V30 8 1 8 9
M  V30 9 1 4 10
M  V30 10 1 10 11
M  V30 11 1 11 12
M  V30 12 2 12 13
M  V30 13 1 13 14
M  V30 14 2 14 15
M  V30 15 1 15 16
M  V30 16 2 16 17
M  V30 17 1 17 18
M  V30 18 2 18 19
M  V30 19 1 13 20
M  V30 20 1 20 21
M  V30 21 1 21 2
M  V30 22 1 9 4
M  V30 23 2 21 11
M  V30 24 1 19 14
M  V30 25 1 3 22
M  V30 26 1 5 23
M  V30 27 1 5 24
M  V30 28 1 6 25
M  V30 29 1 6 26
M  V30 30 1 7 27
M  V30 31 1 7 28
M  V30 32 1 8 29
M  V30 33 1 8 30
M  V30 34 1 9 31
M  V30 35 1 9 32
M  V30 36 1 10 33
M  V30 37 1 12 34
M  V30 38 1 15 35
M  V30 39 1 16 36
M  V30 40 1 18 37
M  V30 41 1 19 38
M  V30 END BOND
M  V30 END CTAB
M  END
>  <Dataset>  (600) 
ChEMBL_Kinases

>  <Ligand_Instance>  (600) 
nan

>  <PDB_ID>  (600) 
nan

>  <Standardized_SMILES>  (600) 
O=C1NC2(CCCCC2)Nc2cc(-c3ccncc3)sc21

>  <Name>  (600) 
nan

>  <Pocket>  (600) 
nan

>  <ATP_Site>  (600) 
nan

>  <Peripheral>  (600) 
nan

>  <Num_H_Atoms_ProtBoundConf>  (600) 
nan

>  <Num_Resolved_Atoms>  (600) 
nan

>  <Num_Not_Resolved_Atoms>  (600) 
nan

$$$$
CHEMBL478323
     RDKit          3D

  0  0  0  0  0  0  0  0  0  0999 V3000
M  V30 BEGIN CTAB
M  V30 COUNTS 54 57 0 0 0
M  V30 BEGIN ATOM
M  V30 1 C 1.147491 -3.764888 -3.087246 0
M  V30 2 C 2.255412 -3.844887 -2.089909 0
M  V30 3 O 1.999997 -3.461245 -0.797648 0
M  V30 4 C 1.596588 -2.275094 -0.256955 0
M  V30 5 C 1.456232 -2.271667 1.131519 0
M  V30 6 C 1.062883 -1.152888 1.830852 0
M  V30 7 C 0.780451 0.047043 1.191646 0
M  V30 8 C 0.467135 1.367618 1.785161 0
M  V30 9 C 1.171379 2.347252 0.846102 0
M  V30 10 C 2.621397 2.274876 0.776636 0
M  V30 11 C 3.524506 1.373600 1.499235 0
M  V30 12 O 3.208902 3.090345 -0.006757 0
M  V30 13 C 0.403551 3.176474 0.176090 0
M  V30 14 O 0.789360 4.131899 -0.738770 0
M  V30 15 C -0.943385 2.834525 0.671617 0
M  V30 16 O -1.921711 3.480901 0.171936 0
M  V30 17 N -0.891871 1.782861 1.675490 0
M  V30 18 C -2.112667 1.555507 2.347760 0
M  V30 19 C -3.172799 0.653826 1.908038 0
M  V30 20 C -2.906209 -0.769111 1.808533 0
M  V30 21 C -3.141027 -1.532811 2.971816 0
M  V30 22 N -2.834492 -2.828582 2.799755 0
M  V30 23 C -2.402930 -2.938924 1.548826 0
M  V30 24 C -1.986515 -4.024120 0.800470 0
M  V30 25 C -1.635161 -3.809038 -0.509295 0
M  V30 26 C -1.678538 -2.558142 -1.110008 0
M  V30 27 C -2.094793 -1.446500 -0.373607 0
M  V30 28 C -2.439548 -1.709102 0.939993 0
M  V30 29 C 0.938047 -0.028439 -0.194860 0
M  V30 30 C 1.329044 -1.119124 -0.950787 0
M  V30 31 H 1.413829 -4.474842 -3.938157 0
M  V30 32 H 1.092119 -2.776808 -3.624341 0
M  V30 33 H 0.180983 -4.114331 -2.727540 0
M  V30 34 H 2.524398 -4.949365 -2.037106 0
M  V30 35 H 3.177366 -3.393830 -2.530154 0
M  V30 36 H 1.653258 -3.164884 1.742264 0
M  V30 37 H 0.933063 -1.079392 2.910318 0
M  V30 38 H 0.869129 1.467698 2.806937 0
M  V30 39 H 3.064638 0.883194 2.387633 0
M  V30 40 H 3.978592 0.626414 0.831344 0
M  V30 41 H 4.377377 1.988973 1.893192 0
M  V30 42 H 1.265666 4.983792 -0.470929 0
M  V30 43 H -1.834620 1.219737 3.435584 0
M  V30 44 H -2.610652 2.565285 2.609450 0
M  V30 45 H -4.132367 0.804856 2.519845 0
M  V30 46 H -3.569310 0.998016 0.866867 0
M  V30 47 H -3.520620 -1.252166 3.963586 0
M  V30 48 H -2.893210 -3.634877 3.450264 0
M  V30 49 H -1.956271 -4.991280 1.274696 0
M  V30 50 H -1.328137 -4.712154 -1.014992 0
M  V30 51 H -1.396688 -2.438124 -2.134048 0
M  V30 52 H -2.145851 -0.448246 -0.796510 0
M  V30 53 H 0.729983 0.877726 -0.773524 0
M  V30 54 H 1.427557 -1.091011 -2.001611 0
M  V30 END ATOM
M  V30 BEGIN BOND
M  V30 1 1 1 2
M  V30 2 1 2 3
M  V30 3 1 3 4
M  V30 4 2 4 5
M  V30 5 1 5 6
M  V30 6 2 6 7
M  V30 7 1 7 8
M  V30 8 1 8 9
M  V30 9 1 9 10
M  V30 10 1 10 11
M  V30 11 2 10 12
M  V30 12 2 9 13
M  V30 13 1 13 14
M  V30 14 1 13 15
M  V30 15 2 15 16
M  V30 16 1 15 17
M  V30 17 1 17 18
M  V30 18 1 18 19
M  V30 19 1 19 20
M  V30 20 2 20 21
M  V30 21 1 21 22
M  V30 22 1 22 23
M  V30 23 2 23 24
M  V30 24 1 24 25
M  V30 25 2 25 26
M  V30 26 1 26 27
M  V30 27 2 27 28
M  V30 28 1 7 29
M  V30 29 2 29 30
M  V30 30 1 30 4
M  V30 31 1 17 8
M  V30 32 1 28 20
M  V30 33 1 28 23
M  V30 34 1 1 31
M  V30 35 1 1 32
M  V30 36 1 1 33
M  V30 37 1 2 34
M  V30 38 1 2 35
M  V30 39 1 5 36
M  V30 40 1 6 37
M  V30 41 1 8 38
M  V30 42 1 11 39
M  V30 43 1 11 40
M  V30 44 1 11 41
M  V30 45 1 14 42
M  V30 46 1 18 43
M  V30 47 1 18 44
M  V30 48 1 19 45
M  V30 49 1 19 46
M  V30 50 1 21 47
M  V30 51 1 22 48
M  V30 52 1 24 49
M  V30 53 1 25 50
M  V30 54 1 26 51
M  V30 55 1 27 52
M  V30 56 1 29 53
M  V30 57 1 30 54
M  V30 END BOND
M  V30 END CTAB
M  END
>  <Dataset>  (601) 
ChEMBL_Kinases

>  <Ligand_Instance>  (601) 
nan

>  <PDB_ID>  (601) 
nan

>  <Standardized_SMILES>  (601) 
CCOc1ccc(C2C(C(C)=O)=C(O)C(=O)N2CCc2c[nH]c3ccccc23)cc1

>  <Name>  (601) 
nan

>  <Pocket>  (601) 
nan

>  <ATP_Site>  (601) 
nan

>  <Peripheral>  (601) 
nan

>  <Num_H_Atoms_ProtBoundConf>  (601) 
nan

>  <Num_Resolved_Atoms>  (601) 
nan

>  <Num_Not_Resolved_Atoms>  (601) 
nan

$$$$
CHEMBL4207078
     RDKit          3D

  0  0  0  0  0  0  0  0  0  0999 V3000
M  V30 BEGIN CTAB
M  V30 COUNTS 30 32 0 0 0
M  V30 BEGIN ATOM
M  V30 1 O 1.424536 -4.616017 0.593661 0
M  V30 2 C 1.651765 -3.378825 0.745770 0
M  V30 3 N 2.973852 -2.971532 1.136848 0
M  V30 4 C 3.030232 -1.558847 1.255017 0
M  V30 5 C 3.974835 -0.594956 1.583371 0
M  V30 6 C 3.648990 0.734207 1.590963 0
M  V30 7 C 2.373977 1.208463 1.276876 0
M  V30 8 Br 2.104769 3.084233 1.339682 0
M  V30 9 C 1.427012 0.255380 0.948662 0
M  V30 10 C 1.786355 -1.073013 0.950286 0
M  V30 11 C 0.848736 -2.141458 0.616224 0
M  V30 12 N -0.347401 -2.337574 0.274936 0
M  V30 13 N -1.365614 -1.418613 0.063403 0
M  V30 14 C -1.616914 -0.419292 -0.989751 0
M  V30 15 C -2.550838 0.615953 -0.426285 0
M  V30 16 O -2.263252 0.994701 0.865482 0
M  V30 17 C -2.252300 -0.052047 1.762979 0
M  V30 18 C -2.459958 -1.358620 1.022626 0
M  V30 19 H 3.825973 -3.549541 1.327783 0
M  V30 20 H 4.974281 -0.950971 1.830706 0
M  V30 21 H 4.462013 1.407710 1.862238 0
M  V30 22 H 0.453163 0.635041 0.710015 0
M  V30 23 H -2.121113 -0.892627 -1.860479 0
M  V30 24 H -0.677121 0.065376 -1.329700 0
M  V30 25 H -3.622049 0.337171 -0.586027 0
M  V30 26 H -2.417131 1.550971 -1.045839 0
M  V30 27 H -1.246378 -0.091293 2.229729 0
M  V30 28 H -2.973969 0.073040 2.593260 0
M  V30 29 H -3.446254 -1.372313 0.513730 0
M  V30 30 H -2.397322 -2.201848 1.726738 0
M  V30 END ATOM
M  V30 BEGIN BOND
M  V30 1 2 1 2
M  V30 2 1 2 3
M  V30 3 1 3 4
M  V30 4 2 4 5
M  V30 5 1 5 6
M  V30 6 2 6 7
M  V30 7 1 7 8
M  V30 8 1 7 9
M  V30 9 2 9 10
M  V30 10 1 10 11
M  V30 11 2 11 12 CFG=2
M  V30 12 1 12 13
M  V30 13 1 13 14
M  V30 14 1 14 15
M  V30 15 1 15 16
M  V30 16 1 16 17
M  V30 17 1 17 18
M  V30 18 1 11 2
M  V30 19 1 18 13
M  V30 20 1 10 4
M  V30 21 1 3 19
M  V30 22 1 5 20
M  V30 23 1 6 21
M  V30 24 1 9 22
M  V30 25 1 14 23
M  V30 26 1 14 24
M  V30 27 1 15 25
M  V30 28 1 15 26
M  V30 29 1 17 27
M  V30 30 1 17 28
M  V30 31 1 18 29
M  V30 32 1 18 30
M  V30 END BOND
M  V30 END CTAB
M  END
>  <Dataset>  (602) 
ChEMBL_Kinases

>  <Ligand_Instance>  (602) 
nan

>  <PDB_ID>  (602) 
nan

>  <Standardized_SMILES>  (602) 
O=C1Nc2ccc(Br)cc2C1=NN1CCOCC1

>  <Name>  (602) 
nan

>  <Pocket>  (602) 
nan

>  <ATP_Site>  (602) 
nan

>  <Peripheral>  (602) 
nan

>  <Num_H_Atoms_ProtBoundConf>  (602) 
nan

>  <Num_Resolved_Atoms>  (602) 
nan

>  <Num_Not_Resolved_Atoms>  (602) 
nan

$$$$
CHEMBL4207036
     RDKit          3D

  0  0  0  0  0  0  0  0  0  0999 V3000
M  V30 BEGIN CTAB
M  V30 COUNTS 87 92 0 0 0
M  V30 BEGIN ATOM
M  V30 1 C -0.306630 -6.409490 -3.640657 0
M  V30 2 C -1.570286 -5.628834 -3.669708 0
M  V30 3 C -1.792068 -4.717397 -2.664317 0
M  V30 4 C -2.977617 -4.014640 -2.723843 0
M  V30 5 C -3.960197 -4.132637 -3.685147 0
M  V30 6 N -5.174542 -3.370494 -3.684638 0
M  V30 7 C -5.178196 -2.443588 -2.604025 0
M  V30 8 N -5.585651 -2.812565 -1.371826 0
M  V30 9 C -5.584792 -1.977626 -0.329192 0
M  V30 10 C -5.135305 -0.703863 -0.603947 0
M  V30 11 C -4.715602 -0.310525 -1.850572 0
M  V30 12 N -4.743152 -1.195019 -2.850643 0
M  V30 13 N -4.154315 0.962830 -2.165949 0
M  V30 14 C -3.758465 1.276283 -3.524306 0
M  V30 15 C -3.988163 1.928766 -1.102796 0
M  V30 16 O -3.514132 3.042421 -1.359036 0
M  V30 17 N -4.411140 1.469296 0.197160 0
M  V30 18 C -3.900557 2.361280 1.207838 0
M  V30 19 C -2.610807 2.039236 1.675827 0
M  V30 20 C -1.867432 2.736755 2.657062 0
M  V30 21 N -0.598858 2.144427 2.871553 0
M  V30 22 C -0.045268 1.129742 3.697160 0
M  V30 23 O -0.787562 0.523489 4.514423 0
M  V30 24 C 1.380295 0.869655 3.510500 0
M  V30 25 C 2.254729 1.596682 2.715893 0
M  V30 26 C 3.572149 1.221169 2.575332 0
M  V30 27 C 4.059120 0.084878 3.240071 0
M  V30 28 C 5.446085 -0.216431 2.842412 0
M  V30 29 N 5.508133 -0.877824 1.613369 0
M  V30 30 C 4.812079 -1.988504 1.241144 0
M  V30 31 C 4.718240 -2.019294 -0.266013 0
M  V30 32 C 5.130178 -0.589207 -0.633963 0
M  V30 33 N 5.799617 -0.708064 -1.908327 0
M  V30 34 C 4.821476 -1.325075 -2.808445 0
M  V30 35 C 6.266703 0.545485 -2.413911 0
M  V30 36 C 6.092040 -0.224509 0.502686 0
M  V30 37 C 3.212940 -0.636118 4.029004 0
M  V30 38 C 3.695062 -1.772004 4.837164 0
M  V30 39 F 2.639140 -2.342702 5.555246 0
M  V30 40 F 4.597862 -1.332638 5.807133 0
M  V30 41 F 4.253212 -2.778982 4.130957 0
M  V30 42 C 1.881170 -0.246259 4.161623 0
M  V30 43 C -2.502558 3.837212 3.187280 0
M  V30 44 C -3.772035 4.188087 2.754674 0
M  V30 45 C -4.440464 3.472587 1.799447 0
M  V30 46 C -5.794918 3.812383 1.296353 0
M  V30 47 C -5.177906 0.289453 0.513098 0
M  V30 48 C -3.629298 -5.079054 -4.646894 0
M  V30 49 N -2.491731 -5.804363 -4.656981 0
M  V30 50 H 0.416278 -5.929146 -2.939039 0
M  V30 51 H 0.200623 -6.352875 -4.641110 0
M  V30 52 H -0.490533 -7.476444 -3.388961 0
M  V30 53 H -1.068987 -4.576816 -1.888058 0
M  V30 54 H -3.106371 -3.303827 -1.901941 0
M  V30 55 H -5.835266 -3.632727 -4.474954 0
M  V30 56 H -5.907468 -2.263152 0.663088 0
M  V30 57 H -2.676737 1.034847 -3.676113 0
M  V30 58 H -3.999342 2.311621 -3.814561 0
M  V30 59 H -4.326409 0.627961 -4.229300 0
M  V30 60 H -2.153183 1.140903 1.212298 0
M  V30 61 H -0.115584 2.755975 2.145630 0
M  V30 62 H 1.861260 2.459939 2.222608 0
M  V30 63 H 4.156497 1.866735 1.934204 0
M  V30 64 H 5.935412 -0.785385 3.691275 0
M  V30 65 H 6.055954 0.727749 2.752412 0
M  V30 66 H 5.305296 -2.972860 1.564721 0
M  V30 67 H 3.766155 -2.085192 1.679115 0
M  V30 68 H 5.416341 -2.754937 -0.695413 0
M  V30 69 H 3.656145 -2.166460 -0.552621 0
M  V30 70 H 4.300347 0.112999 -0.645169 0
M  V30 71 H 5.095284 -2.393094 -2.997473 0
M  V30 72 H 4.779803 -0.843966 -3.792740 0
M  V30 73 H 3.794664 -1.294672 -2.394794 0
M  V30 74 H 5.994555 0.664076 -3.481429 0
M  V30 75 H 7.356355 0.633705 -2.263501 0
M  V30 76 H 5.785951 1.343537 -1.799035 0
M  V30 77 H 7.119222 -0.613268 0.257314 0
M  V30 78 H 6.109059 0.887300 0.638015 0
M  V30 79 H 1.239809 -0.846681 4.796664 0
M  V30 80 H -1.898509 4.332490 3.927373 0
M  V30 81 H -4.224416 5.050206 3.195556 0
M  V30 82 H -6.406559 2.915100 1.266535 0
M  V30 83 H -6.286942 4.589978 1.909345 0
M  V30 84 H -5.681531 4.285000 0.272095 0
M  V30 85 H -6.233279 0.616109 0.691762 0
M  V30 86 H -4.832418 -0.208694 1.437462 0
M  V30 87 H -4.350870 -5.243120 -5.456487 0
M  V30 END ATOM
M  V30 BEGIN BOND
M  V30 1 1 1 2
M  V30 2 2 2 3
M  V30 3 1 3 4
M  V30 4 2 4 5
M  V30 5 1 5 6
M  V30 6 1 6 7
M  V30 7 2 7 8
M  V30 8 1 8 9
M  V30 9 2 9 10
M  V30 10 1 10 11
M  V30 11 2 11 12
M  V30 12 1 11 13
M  V30 13 1 13 14
M  V30 14 1 13 15
M  V30 15 2 15 16
M  V30 16 1 15 17
M  V30 17 1 17 18
M  V30 18 2 18 19
M  V30 19 1 19 20
M  V30 20 1 20 21
M  V30 21 1 21 22
M  V30 22 2 22 23
M  V30 23 1 22 24
M  V30 24 2 24 25
M  V30 25 1 25 26
M  V30 26 2 26 27
M  V30 27 1 27 28
M  V30 28 1 28 29
M  V30 29 1 29 30
M  V30 30 1 30 31
M  V30 31 1 31 32
M  V30 32 1 32 33
M  V30 33 1 33 34
M  V30 34 1 33 35
M  V30 35 1 32 36
M  V30 36 1 27 37
M  V30 37 1 37 38
M  V30 38 1 38 39
M  V30 39 1 38 40
M  V30 40 1 38 41
M  V30 41 2 37 42
M  V30 42 2 20 43
M  V30 43 1 43 44
M  V30 44 2 44 45
M  V30 45 1 45 46
M  V30 46 1 17 47
M  V30 47 1 5 48
M  V30 48 2 48 49
M  V30 49 1 49 2
M  V30 50 1 12 7
M  V30 51 1 45 18
M  V30 52 1 47 10
M  V30 53 1 42 24
M  V30 54 1 36 29
M  V30 55 1 1 50
M  V30 56 1 1 51
M  V30 57 1 1 52
M  V30 58 1 3 53
M  V30 59 1 4 54
M  V30 60 1 6 55
M  V30 61 1 9 56
M  V30 62 1 14 57
M  V30 63 1 14 58
M  V30 64 1 14 59
M  V30 65 1 19 60
M  V30 66 1 21 61
M  V30 67 1 25 62
M  V30 68 1 26 63
M  V30 69 1 28 64
M  V30 70 1 28 65
M  V30 71 1 30 66
M  V30 72 1 30 67
M  V30 73 1 31 68
M  V30 74 1 31 69
M  V30 75 1 32 70
M  V30 76 1 34 71
M  V30 77 1 34 72
M  V30 78 1 34 73
M  V30 79 1 35 74
M  V30 80 1 35 75
M  V30 81 1 35 76
M  V30 82 1 36 77
M  V30 83 1 36 78
M  V30 84 1 42 79
M  V30 85 1 43 80
M  V30 86 1 44 81
M  V30 87 1 46 82
M  V30 88 1 46 83
M  V30 89 1 46 84
M  V30 90 1 47 85
M  V30 91 1 47 86
M  V30 92 1 48 87
M  V30 END BOND
M  V30 END CTAB
M  END
>  <Dataset>  (603) 
ChEMBL_Kinases

>  <Ligand_Instance>  (603) 
nan

>  <PDB_ID>  (603) 
nan

>  <Standardized_SMILES>  (603) 
Cc1ccc(Nc2ncc3c(n2)N(C)C(=O)N(c2cc(NC(=O)c4ccc(CN5CCC(N(C)C)C5)c(C(F)(F)F)c4)ccc2C)C3)cn1

>  <Name>  (603) 
nan

>  <Pocket>  (603) 
nan

>  <ATP_Site>  (603) 
nan

>  <Peripheral>  (603) 
nan

>  <Num_H_Atoms_ProtBoundConf>  (603) 
nan

>  <Num_Resolved_Atoms>  (603) 
nan

>  <Num_Not_Resolved_Atoms>  (603) 
nan

$$$$
CHEMBL4207019
     RDKit          3D

  0  0  0  0  0  0  0  0  0  0999 V3000
M  V30 BEGIN CTAB
M  V30 COUNTS 35 37 0 0 0
M  V30 BEGIN ATOM
M  V30 1 C 0.341506 -3.533438 4.032523 0
M  V30 2 N -0.110503 -3.713295 2.665637 0
M  V30 3 C -1.005214 -4.782523 2.249909 0
M  V30 4 C 0.345742 -2.794874 1.679522 0
M  V30 5 C 1.195580 -1.758065 2.006294 0
M  V30 6 C 1.653542 -0.846883 1.050835 0
M  V30 7 C 1.248262 -0.974134 -0.283864 0
M  V30 8 N 1.803474 0.023280 -1.097835 0
M  V30 9 C 1.370218 1.192624 -1.323446 0
M  V30 10 C 2.073849 2.129349 -2.210343 0
M  V30 11 O 3.135003 2.051620 -2.889187 0
M  V30 12 N 1.307674 3.329478 -2.225806 0
M  V30 13 C 0.154009 3.197447 -1.392084 0
M  V30 14 C -0.899550 4.048263 -1.060024 0
M  V30 15 C -1.909532 3.630997 -0.196815 0
M  V30 16 C -1.859556 2.344397 0.338222 0
M  V30 17 C -0.797647 1.539352 -0.019679 0
M  V30 18 C 0.205784 1.924086 -0.864110 0
M  V30 19 C 0.397675 -2.013623 -0.605257 0
M  V30 20 C -0.039502 -2.899577 0.358629 0
M  V30 21 H 1.439832 -3.747827 4.102102 0
M  V30 22 H -0.200593 -4.216659 4.705877 0
M  V30 23 H 0.164300 -2.508808 4.402784 0
M  V30 24 H -1.210830 -5.380383 3.152437 0
M  V30 25 H -1.955969 -4.376334 1.851121 0
M  V30 26 H -0.536948 -5.397151 1.461587 0
M  V30 27 H 1.488603 -1.692969 3.057640 0
M  V30 28 H 2.304732 -0.099232 1.451553 0
M  V30 29 H 1.475099 4.233281 -2.737756 0
M  V30 30 H -0.918705 5.042659 -1.486632 0
M  V30 31 H -2.737609 4.299184 0.064411 0
M  V30 32 H -2.656104 2.047983 1.004580 0
M  V30 33 H -0.795740 0.567648 0.408490 0
M  V30 34 H 0.136665 -2.036622 -1.654121 0
M  V30 35 H -0.713386 -3.700708 0.032096 0
M  V30 END ATOM
M  V30 BEGIN BOND
M  V30 1 1 1 2
M  V30 2 1 2 3
M  V30 3 1 2 4
M  V30 4 2 4 5
M  V30 5 1 5 6
M  V30 6 2 6 7
M  V30 7 1 7 8
M  V30 8 2 8 9 CFG=2
M  V30 9 1 9 10
M  V30 10 2 10 11
M  V30 11 1 10 12
M  V30 12 1 12 13
M  V30 13 2 13 14
M  V30 14 1 14 15
M  V30 15 2 15 16
M  V30 16 1 16 17
M  V30 17 2 17 18
M  V30 18 1 7 19
M  V30 19 2 19 20
M  V30 20 1 20 4
M  V30 21 1 18 9
M  V30 22 1 18 13
M  V30 23 1 1 21
M  V30 24 1 1 22
M  V30 25 1 1 23
M  V30 26 1 3 24
M  V30 27 1 3 25
M  V30 28 1 3 26
M  V30 29 1 5 27
M  V30 30 1 6 28
M  V30 31 1 12 29
M  V30 32 1 14 30
M  V30 33 1 15 31
M  V30 34 1 16 32
M  V30 35 1 17 33
M  V30 36 1 19 34
M  V30 37 1 20 35
M  V30 END BOND
M  V30 END CTAB
M  END
>  <Dataset>  (604) 
ChEMBL_Kinases

>  <Ligand_Instance>  (604) 
nan

>  <PDB_ID>  (604) 
nan

>  <Standardized_SMILES>  (604) 
CN(C)c1ccc(N=C2C(=O)Nc3ccccc32)cc1

>  <Name>  (604) 
nan

>  <Pocket>  (604) 
nan

>  <ATP_Site>  (604) 
nan

>  <Peripheral>  (604) 
nan

>  <Num_H_Atoms_ProtBoundConf>  (604) 
nan

>  <Num_Resolved_Atoms>  (604) 
nan

>  <Num_Not_Resolved_Atoms>  (604) 
nan

$$$$
CHEMBL4783122
     RDKit          3D

  0  0  0  0  0  0  0  0  0  0999 V3000
M  V30 BEGIN CTAB
M  V30 COUNTS 67 70 0 0 0
M  V30 BEGIN ATOM
M  V30 1 C 1.941981 -1.826066 0.124712 0
M  V30 2 O 2.278832 -0.484156 -0.264571 0
M  V30 3 C 3.311224 -0.287946 -1.137043 0
M  V30 4 O 3.644737 -1.482993 -1.318128 0
M  V30 5 C 4.020913 0.724259 -1.806888 0
M  V30 6 S 5.342922 0.414820 -2.878523 0
M  V30 7 C 5.689051 2.156290 -3.300881 0
M  V30 8 C 4.738581 2.867989 -2.568023 0
M  V30 9 C 3.869852 2.146244 -1.791999 0
M  V30 10 N 2.908776 2.862617 -1.038721 0
M  V30 11 C 2.584239 2.990755 0.327036 0
M  V30 12 N 1.595124 2.324983 0.930315 0
M  V30 13 C 1.212741 2.367113 2.189482 0
M  V30 14 N 0.139942 1.628485 2.766651 0
M  V30 15 C -0.737464 0.743425 2.129543 0
M  V30 16 C -0.765502 0.424582 0.791537 0
M  V30 17 C -1.626416 -0.443618 0.159284 0
M  V30 18 C -2.569047 -1.068942 0.941464 0
M  V30 19 N -3.480905 -1.969862 0.327530 0
M  V30 20 C -3.710122 -2.084167 -1.094250 0
M  V30 21 C -2.953035 -3.288245 -1.586119 0
M  V30 22 C -3.070020 -4.394751 -0.589967 0
M  V30 23 N -1.782275 -4.631103 0.030704 0
M  V30 24 C -0.798902 -5.006486 -0.962223 0
M  V30 25 C -1.786493 -5.573519 1.099582 0
M  V30 26 C -4.201336 -4.301192 0.375609 0
M  V30 27 C -4.316208 -2.938512 1.023312 0
M  V30 28 C -2.623490 -0.815582 2.294529 0
M  V30 29 C -1.727877 0.066064 2.854727 0
M  V30 30 O -1.814026 0.300285 4.240147 0
M  V30 31 C -2.781362 -0.339340 5.034757 0
M  V30 32 N 1.920953 3.199360 2.976970 0
M  V30 33 C 2.937396 3.919398 2.480449 0
M  V30 34 C 3.290449 3.832906 1.153593 0
M  V30 35 C 4.437558 4.656288 0.653346 0
M  V30 36 F 3.991946 5.494496 -0.345768 0
M  V30 37 F 5.538185 3.922104 0.333666 0
M  V30 38 F 4.857116 5.531621 1.668915 0
M  V30 39 H 1.604768 -2.373589 -0.789878 0
M  V30 40 H 1.235505 -1.833818 0.950170 0
M  V30 41 H 2.858409 -2.380972 0.467596 0
M  V30 42 H 6.476908 2.476349 -3.979889 0
M  V30 43 H 4.804568 3.935060 -2.705846 0
M  V30 44 H 2.163878 3.515114 -1.406691 0
M  V30 45 H -0.020024 1.759961 3.793511 0
M  V30 46 H -0.050097 0.889238 0.135657 0
M  V30 47 H -1.574276 -0.634178 -0.900815 0
M  V30 48 H -3.391234 -1.151251 -1.626724 0
M  V30 49 H -4.814869 -2.192582 -1.305311 0
M  V30 50 H -1.900947 -2.980313 -1.774716 0
M  V30 51 H -3.451554 -3.562200 -2.563249 0
M  V30 52 H -3.261142 -5.331483 -1.195770 0
M  V30 53 H -0.061297 -5.669436 -0.459987 0
M  V30 54 H -1.222647 -5.571562 -1.802733 0
M  V30 55 H -0.209853 -4.099844 -1.285573 0
M  V30 56 H -0.713002 -5.908627 1.227284 0
M  V30 57 H -2.048413 -5.141922 2.085030 0
M  V30 58 H -2.340993 -6.525375 0.873226 0
M  V30 59 H -3.991368 -5.032465 1.190064 0
M  V30 60 H -5.173065 -4.594889 -0.061944 0
M  V30 61 H -5.363411 -2.603242 0.901296 0
M  V30 62 H -4.113751 -2.961043 2.111401 0
M  V30 63 H -3.344473 -1.279847 2.943097 0
M  V30 64 H -2.732630 -1.442676 4.879044 0
M  V30 65 H -3.802232 0.074311 4.877583 0
M  V30 66 H -2.515725 -0.087028 6.102257 0
M  V30 67 H 3.455691 4.570493 3.201930 0
M  V30 END ATOM
M  V30 BEGIN BOND
M  V30 1 1 1 2
M  V30 2 1 2 3
M  V30 3 2 3 4
M  V30 4 1 3 5
M  V30 5 1 5 6
M  V30 6 1 6 7
M  V30 7 2 7 8
M  V30 8 1 8 9
M  V30 9 1 9 10
M  V30 10 1 10 11
M  V30 11 2 11 12
M  V30 12 1 12 13
M  V30 13 1 13 14
M  V30 14 1 14 15
M  V30 15 2 15 16
M  V30 16 1 16 17
M  V30 17 2 17 18
M  V30 18 1 18 19
M  V30 19 1 19 20
M  V30 20 1 20 21
M  V30 21 1 21 22
M  V30 22 1 22 23
M  V30 23 1 23 24
M  V30 24 1 23 25
M  V30 25 1 22 26
M  V30 26 1 26 27
M  V30 27 1 18 28
M  V30 28 2 28 29
M  V30 29 1 29 30
M  V30 30 1 30 31
M  V30 31 2 13 32
M  V30 32 1 32 33
M  V30 33 2 33 34
M  V30 34 1 34 35
M  V30 35 1 35 36
M  V30 36 1 35 37
M  V30 37 1 35 38
M  V30 38 2 9 5
M  V30 39 1 34 11
M  V30 40 1 29 15
M  V30 41 1 27 19
M  V30 42 1 1 39
M  V30 43 1 1 40
M  V30 44 1 1 41
M  V30 45 1 7 42
M  V30 46 1 8 43
M  V30 47 1 10 44
M  V30 48 1 14 45
M  V30 49 1 16 46
M  V30 50 1 17 47
M  V30 51 1 20 48
M  V30 52 1 20 49
M  V30 53 1 21 50
M  V30 54 1 21 51
M  V30 55 1 22 52
M  V30 56 1 24 53
M  V30 57 1 24 54
M  V30 58 1 24 55
M  V30 59 1 25 56
M  V30 60 1 25 57
M  V30 61 1 25 58
M  V30 62 1 26 59
M  V30 63 1 26 60
M  V30 64 1 27 61
M  V30 65 1 27 62
M  V30 66 1 28 63
M  V30 67 1 31 64
M  V30 68 1 31 65
M  V30 69 1 31 66
M  V30 70 1 33 67
M  V30 END BOND
M  V30 END CTAB
M  END
>  <Dataset>  (605) 
ChEMBL_Kinases

>  <Ligand_Instance>  (605) 
nan

>  <PDB_ID>  (605) 
nan

>  <Standardized_SMILES>  (605) 
COC(=O)c1sccc1Nc1nc(Nc2ccc(N3CCC(N(C)C)CC3)cc2OC)ncc1C(F)(F)F

>  <Name>  (605) 
nan

>  <Pocket>  (605) 
nan

>  <ATP_Site>  (605) 
nan

>  <Peripheral>  (605) 
nan

>  <Num_H_Atoms_ProtBoundConf>  (605) 
nan

>  <Num_Resolved_Atoms>  (605) 
nan

>  <Num_Not_Resolved_Atoms>  (605) 
nan

$$$$
CHEMBL4208597
     RDKit          3D

  0  0  0  0  0  0  0  0  0  0999 V3000
M  V30 BEGIN CTAB
M  V30 COUNTS 29 30 0 0 0
M  V30 BEGIN ATOM
M  V30 1 C 1.227348 0.896792 5.182777 0
M  V30 2 C 1.243487 0.271988 3.832940 0
M  V30 3 C 2.348792 -0.471110 3.470643 0
M  V30 4 N 2.400193 -1.051766 2.257863 0
M  V30 5 C 1.385086 -0.922132 1.379929 0
M  V30 6 N 1.473384 -1.550317 0.105312 0
M  V30 7 C 0.405107 -1.426763 -0.846841 0
M  V30 8 C 0.099735 -0.005564 -1.262227 0
M  V30 9 C -0.789789 -0.158899 -2.501585 0
M  V30 10 O -1.962068 -0.792369 -2.147354 0
M  V30 11 C -1.786946 -2.046234 -1.608859 0
M  V30 12 C -0.923650 -1.985803 -0.341896 0
M  V30 13 N 0.289239 -0.206271 1.693402 0
M  V30 14 C 0.222853 0.380470 2.902366 0
M  V30 15 H 0.957278 0.123204 5.941552 0
M  V30 16 H 0.428295 1.660895 5.247530 0
M  V30 17 H 2.212308 1.363547 5.368308 0
M  V30 18 H 3.219579 -0.642185 4.092639 0
M  V30 19 H 2.319031 -2.108047 -0.148149 0
M  V30 20 H 0.626698 -1.980164 -1.767932 0
M  V30 21 H -0.589317 0.413611 -0.483090 0
M  V30 22 H 0.972547 0.611772 -1.457485 0
M  V30 23 H -1.026793 0.793586 -2.977818 0
M  V30 24 H -0.170574 -0.771678 -3.218760 0
M  V30 25 H -2.772193 -2.481778 -1.400642 0
M  V30 26 H -1.206747 -2.687656 -2.329531 0
M  V30 27 H -0.847377 -2.988571 0.075788 0
M  V30 28 H -1.411126 -1.263259 0.357731 0
M  V30 29 H -0.621483 0.972302 3.232082 0
M  V30 END ATOM
M  V30 BEGIN BOND
M  V30 1 1 1 2
M  V30 2 2 2 3
M  V30 3 1 3 4
M  V30 4 2 4 5
M  V30 5 1 5 6
M  V30 6 1 6 7
M  V30 7 1 7 8
M  V30 8 1 8 9
M  V30 9 1 9 10
M  V30 10 1 10 11
M  V30 11 1 11 12
M  V30 12 1 5 13
M  V30 13 2 13 14
M  V30 14 1 14 2
M  V30 15 1 12 7
M  V30 16 1 1 15
M  V30 17 1 1 16
M  V30 18 1 1 17
M  V30 19 1 3 18
M  V30 20 1 6 19
M  V30 21 1 7 20
M  V30 22 1 8 21
M  V30 23 1 8 22
M  V30 24 1 9 23
M  V30 25 1 9 24
M  V30 26 1 11 25
M  V30 27 1 11 26
M  V30 28 1 12 27
M  V30 29 1 12 28
M  V30 30 1 14 29
M  V30 END BOND
M  V30 END CTAB
M  END
>  <Dataset>  (606) 
ChEMBL_Kinases

>  <Ligand_Instance>  (606) 
nan

>  <PDB_ID>  (606) 
nan

>  <Standardized_SMILES>  (606) 
Cc1cnc(NC2CCOCC2)nc1

>  <Name>  (606) 
nan

>  <Pocket>  (606) 
nan

>  <ATP_Site>  (606) 
nan

>  <Peripheral>  (606) 
nan

>  <Num_H_Atoms_ProtBoundConf>  (606) 
nan

>  <Num_Resolved_Atoms>  (606) 
nan

>  <Num_Not_Resolved_Atoms>  (606) 
nan

$$$$
CHEMBL4782648
     RDKit          3D

  0  0  0  0  0  0  0  0  0  0999 V3000
M  V30 BEGIN CTAB
M  V30 COUNTS 54 58 0 0 0
M  V30 BEGIN ATOM
M  V30 1 C 4.427279 -2.142455 5.553371 0
M  V30 2 C 4.067268 -2.256403 4.279795 0
M  V30 3 C 2.666061 -1.993552 3.808670 0
M  V30 4 N 2.551971 -0.951894 2.860736 0
M  V30 5 C 2.813657 0.371306 3.277868 0
M  V30 6 C 2.647378 -1.265240 1.488024 0
M  V30 7 C 2.509142 -0.073764 0.596182 0
M  V30 8 C 3.510904 0.756621 0.105005 0
M  V30 9 N 3.213875 1.782875 -0.678350 0
M  V30 10 C 1.967481 2.097339 -1.051216 0
M  V30 11 N 1.430925 3.063516 -1.816325 0
M  V30 12 C 0.083473 2.917600 -1.863451 0
M  V30 13 C -0.274074 1.818872 -1.103530 0
M  V30 14 C -1.626355 1.318671 -0.894895 0
M  V30 15 C -2.641593 2.233611 -0.592602 0
M  V30 16 C -3.960100 1.871784 -0.378369 0
M  V30 17 F -4.904556 2.791497 -0.088002 0
M  V30 18 C -4.323648 0.558233 -0.459030 0
M  V30 19 N -5.587999 0.156731 -0.267606 0
M  V30 20 C -5.872566 -1.169630 -0.372336 0
M  V30 21 C -4.885699 -2.116486 -0.671609 0
M  V30 22 C -3.579568 -1.707098 -0.869436 0
M  V30 23 C -2.685479 -2.792552 -1.137512 0
M  V30 24 C -1.503605 -3.106764 -0.498843 0
M  V30 25 C -0.710481 -4.177864 -0.853203 0
M  V30 26 C -1.125094 -4.980635 -1.907956 0
M  V30 27 N -2.285707 -4.704496 -2.564433 0
M  V30 28 C -3.028020 -3.649384 -2.184824 0
M  V30 29 C -3.340563 -0.353993 -0.754202 0
M  V30 30 C -2.026185 0.002262 -0.968733 0
M  V30 31 C 0.912830 1.320346 -0.605221 0
M  V30 32 C 1.211262 0.248013 0.211993 0
M  V30 33 H 4.099591 -1.904114 6.566311 0
M  V30 34 H 3.641768 -1.863260 6.244058 0
M  V30 35 H 4.887775 -2.550428 3.666402 0
M  V30 36 H 1.964732 -1.952117 4.668129 0
M  V30 37 H 2.380157 -2.949860 3.274583 0
M  V30 38 H 3.504573 0.872799 2.566415 0
M  V30 39 H 3.326773 0.324890 4.269995 0
M  V30 40 H 1.903925 1.003872 3.372507 0
M  V30 41 H 3.666332 -1.694661 1.284197 0
M  V30 42 H 1.898564 -2.029590 1.185623 0
M  V30 43 H 4.509564 0.463725 0.431890 0
M  V30 44 H 1.935116 3.821815 -2.311571 0
M  V30 45 H -0.583690 3.572605 -2.417035 0
M  V30 46 H -2.440407 3.285140 -0.510761 0
M  V30 47 H -6.925804 -1.426031 -0.203547 0
M  V30 48 H -5.298872 -3.131590 -0.714885 0
M  V30 49 H -1.207495 -2.483796 0.316077 0
M  V30 50 H 0.199470 -4.335288 -0.284029 0
M  V30 51 H -0.437145 -5.805390 -2.119578 0
M  V30 52 H -3.914828 -3.569420 -2.804708 0
M  V30 53 H -1.247688 -0.707066 -1.211052 0
M  V30 54 H 0.376334 -0.332754 0.539719 0
M  V30 END ATOM
M  V30 BEGIN BOND
M  V30 1 2 1 2
M  V30 2 1 2 3
M  V30 3 1 3 4
M  V30 4 1 4 5
M  V30 5 1 4 6
M  V30 6 1 6 7
M  V30 7 2 7 8
M  V30 8 1 8 9
M  V30 9 2 9 10
M  V30 10 1 10 11
M  V30 11 1 11 12
M  V30 12 2 12 13
M  V30 13 1 13 14
M  V30 14 2 14 15
M  V30 15 1 15 16
M  V30 16 1 16 17
M  V30 17 2 16 18
M  V30 18 1 18 19
M  V30 19 2 19 20
M  V30 20 1 20 21
M  V30 21 2 21 22
M  V30 22 1 22 23
M  V30 23 2 23 24
M  V30 24 1 24 25
M  V30 25 2 25 26
M  V30 26 1 26 27
M  V30 27 2 27 28
M  V30 28 1 22 29
M  V30 29 2 29 30
M  V30 30 1 13 31
M  V30 31 2 31 32
M  V30 32 1 32 7
M  V30 33 1 31 10
M  V30 34 1 30 14
M  V30 35 1 29 18
M  V30 36 1 28 23
M  V30 37 1 1 33
M  V30 38 1 1 34
M  V30 39 1 2 35
M  V30 40 1 3 36
M  V30 41 1 3 37
M  V30 42 1 5 38
M  V30 43 1 5 39
M  V30 44 1 5 40
M  V30 45 1 6 41
M  V30 46 1 6 42
M  V30 47 1 8 43
M  V30 48 1 11 44
M  V30 49 1 12 45
M  V30 50 1 15 46
M  V30 51 1 20 47
M  V30 52 1 21 48
M  V30 53 1 24 49
M  V30 54 1 25 50
M  V30 55 1 26 51
M  V30 56 1 28 52
M  V30 57 1 30 53
M  V30 58 1 32 54
M  V30 END BOND
M  V30 END CTAB
M  END
>  <Dataset>  (607) 
ChEMBL_Kinases

>  <Ligand_Instance>  (607) 
nan

>  <PDB_ID>  (607) 
nan

>  <Standardized_SMILES>  (607) 
C=CCN(C)Cc1cnc2[nH]cc(-c3cc(F)c4nccc(-c5cccnc5)c4c3)c2c1

>  <Name>  (607) 
nan

>  <Pocket>  (607) 
nan

>  <ATP_Site>  (607) 
nan

>  <Peripheral>  (607) 
nan

>  <Num_H_Atoms_ProtBoundConf>  (607) 
nan

>  <Num_Resolved_Atoms>  (607) 
nan

>  <Num_Not_Resolved_Atoms>  (607) 
nan

$$$$
CHEMBL4782658
     RDKit          3D

  0  0  0  0  0  0  0  0  0  0999 V3000
M  V30 BEGIN CTAB
M  V30 COUNTS 48 51 0 0 0
M  V30 BEGIN ATOM
M  V30 1 N 4.122291 -0.284051 3.949370 0
M  V30 2 S 4.739786 -1.235208 2.660245 0
M  V30 3 O 6.055558 -0.639543 2.190324 0
M  V30 4 O 4.940668 -2.672482 3.029825 0
M  V30 5 N 3.664950 -1.085860 1.315433 0
M  V30 6 C 3.450408 0.188163 0.724220 0
M  V30 7 C 4.057069 1.308906 1.251941 0
M  V30 8 C 3.847481 2.541095 0.677071 0
M  V30 9 C 3.024212 2.699311 -0.444420 0
M  V30 10 F 2.899977 3.964974 -0.915902 0
M  V30 11 C 2.401730 1.601200 -0.996486 0
M  V30 12 C 1.590620 1.785414 -2.171672 0
M  V30 13 O 1.977912 2.813067 -2.811463 0
M  V30 14 C 0.484614 1.140657 -2.810798 0
M  V30 15 N 0.247719 1.232433 -4.122160 0
M  V30 16 N -0.858179 0.564240 -4.416657 0
M  V30 17 C -1.423478 -0.006200 -3.341910 0
M  V30 18 N -2.525281 -0.746678 -3.147396 0
M  V30 19 C -2.833096 -1.163454 -1.883588 0
M  V30 20 C -1.999668 -0.814401 -0.814099 0
M  V30 21 C -2.390783 -1.294360 0.507049 0
M  V30 22 C -3.046184 -2.512086 0.565497 0
M  V30 23 C -3.482792 -3.096146 1.736283 0
M  V30 24 C -3.255742 -2.428495 2.940601 0
M  V30 25 S -3.827323 -3.212741 4.396641 0
M  V30 26 N -5.491800 -2.779612 4.699056 0
M  V30 27 O -3.775984 -4.682522 4.198140 0
M  V30 28 O -2.980028 -2.818733 5.583397 0
M  V30 29 C -2.603660 -1.214264 2.897308 0
M  V30 30 C -2.175802 -0.649500 1.713093 0
M  V30 31 C -0.881014 -0.054278 -1.065205 0
M  V30 32 C -0.543190 0.379929 -2.328401 0
M  V30 33 C 2.651073 0.396989 -0.378864 0
M  V30 34 F 2.129145 -0.758960 -0.865774 0
M  V30 35 H 3.666238 -0.860297 4.693204 0
M  V30 36 H 4.900034 0.294641 4.376058 0
M  V30 37 H 3.172745 -1.911366 0.930747 0
M  V30 38 H 4.704110 1.262885 2.116109 0
M  V30 39 H 4.338388 3.407807 1.112018 0
M  V30 40 H -1.197473 0.529156 -5.412445 0
M  V30 41 H -3.736663 -1.753990 -1.821351 0
M  V30 42 H -3.246562 -3.070933 -0.339535 0
M  V30 43 H -3.987045 -4.042504 1.735114 0
M  V30 44 H -5.635837 -1.843622 4.213876 0
M  V30 45 H -6.077141 -3.443609 4.107242 0
M  V30 46 H -2.436715 -0.713965 3.834767 0
M  V30 47 H -1.671274 0.286385 1.665139 0
M  V30 48 H -0.239991 0.225398 -0.236918 0
M  V30 END ATOM
M  V30 BEGIN BOND
M  V30 1 1 1 2
M  V30 2 2 2 3
M  V30 3 2 2 4
M  V30 4 1 2 5
M  V30 5 1 5 6
M  V30 6 2 6 7
M  V30 7 1 7 8
M  V30 8 2 8 9
M  V30 9 1 9 10
M  V30 10 1 9 11
M  V30 11 1 11 12
M  V30 12 2 12 13
M  V30 13 1 12 14
M  V30 14 2 14 15
M  V30 15 1 15 16
M  V30 16 1 16 17
M  V30 17 2 17 18
M  V30 18 1 18 19
M  V30 19 2 19 20
M  V30 20 1 20 21
M  V30 21 2 21 22
M  V30 22 1 22 23
M  V30 23 2 23 24
M  V30 24 1 24 25
M  V30 25 1 25 26
M  V30 26 2 25 27
M  V30 27 2 25 28
M  V30 28 1 24 29
M  V30 29 2 29 30
M  V30 30 1 20 31
M  V30 31 2 31 32
M  V30 32 2 11 33
M  V30 33 1 33 34
M  V30 34 1 33 6
M  V30 35 1 32 14
M  V30 36 1 32 17
M  V30 37 1 30 21
M  V30 38 1 1 35
M  V30 39 1 1 36
M  V30 40 1 5 37
M  V30 41 1 7 38
M  V30 42 1 8 39
M  V30 43 1 16 40
M  V30 44 1 19 41
M  V30 45 1 22 42
M  V30 46 1 23 43
M  V30 47 1 26 44
M  V30 48 1 26 45
M  V30 49 1 29 46
M  V30 50 1 30 47
M  V30 51 1 31 48
M  V30 END BOND
M  V30 END CTAB
M  END
>  <Dataset>  (608) 
ChEMBL_Kinases

>  <Ligand_Instance>  (608) 
nan

>  <PDB_ID>  (608) 
nan

>  <Standardized_SMILES>  (608) 
NS(=O)(=O)Nc1ccc(F)c(C(=O)c2n[nH]c3ncc(-c4ccc(S(N)(=O)=O)cc4)cc23)c1F

>  <Name>  (608) 
nan

>  <Pocket>  (608) 
nan

>  <ATP_Site>  (608) 
nan

>  <Peripheral>  (608) 
nan

>  <Num_H_Atoms_ProtBoundConf>  (608) 
nan

>  <Num_Resolved_Atoms>  (608) 
nan

>  <Num_Not_Resolved_Atoms>  (608) 
nan

$$$$
CHEMBL4208450
     RDKit          3D

  0  0  0  0  0  0  0  0  0  0999 V3000
M  V30 BEGIN CTAB
M  V30 COUNTS 53 57 0 0 0
M  V30 BEGIN ATOM
M  V30 1 O 6.808011 -0.900614 6.431782 0
M  V30 2 C 7.150265 -0.725789 5.228170 0
M  V30 3 O 8.460212 -0.949656 4.823751 0
M  V30 4 C 6.135074 -0.282964 4.274207 0
M  V30 5 C 4.849016 -0.075603 4.728483 0
M  V30 6 C 3.932401 0.341439 3.786153 0
M  V30 7 C 4.232058 0.551848 2.463693 0
M  V30 8 N 3.196212 0.981989 1.592014 0
M  V30 9 C 2.214549 0.383694 0.753051 0
M  V30 10 C 1.286177 -0.509118 1.142851 0
M  V30 11 C 0.318528 -1.080644 0.249840 0
M  V30 12 N -0.451790 -1.891431 0.693336 0
M  V30 13 S -1.684089 -2.785385 0.079182 0
M  V30 14 O -1.446903 -3.879616 -0.925062 0
M  V30 15 O -1.793785 -3.805612 1.291575 0
M  V30 16 C -3.323317 -2.195291 0.153703 0
M  V30 17 C -4.132584 -2.210496 1.306125 0
M  V30 18 C -5.432016 -1.782461 1.470359 0
M  V30 19 C -6.032660 -1.265381 0.356150 0
M  V30 20 C -7.329396 -0.828511 0.483712 0
M  V30 21 C -8.007341 -0.294494 -0.589594 0
M  V30 22 C -7.318844 -0.222975 -1.789274 0
M  V30 23 C -6.008102 -0.662555 -1.925630 0
M  V30 24 C -5.351841 -1.192886 -0.836727 0
M  V30 25 C -4.057888 -1.653240 -0.873324 0
M  V30 26 C 0.328648 -0.690663 -1.118959 0
M  V30 27 C -0.621410 -1.267206 -1.882402 0
M  V30 28 C -0.731643 -0.973956 -3.238749 0
M  V30 29 C 0.225576 -0.047639 -3.680475 0
M  V30 30 C 1.199918 0.549318 -2.907359 0
M  V30 31 C 1.233571 0.198958 -1.573400 0
M  V30 32 C 2.222641 0.784261 -0.671321 0
M  V30 33 O 3.070785 1.620965 -1.108974 0
M  V30 34 C 5.532895 0.331182 2.055615 0
M  V30 35 C 6.501443 -0.088160 2.951063 0
M  V30 36 H 9.113672 -1.484477 5.407733 0
M  V30 37 H 4.530264 -0.215718 5.741706 0
M  V30 38 H 2.913825 0.510868 4.121868 0
M  V30 39 H 3.185664 2.042465 1.596693 0
M  V30 40 H 1.374987 -0.719366 2.176626 0
M  V30 41 H -3.667680 -2.623437 2.221960 0
M  V30 42 H -5.916821 -1.863622 2.429742 0
M  V30 43 H -7.872368 -0.882305 1.420195 0
M  V30 44 H -9.032180 0.064474 -0.539965 0
M  V30 45 H -7.827704 0.194348 -2.656563 0
M  V30 46 H -5.488742 -0.595367 -2.879737 0
M  V30 47 H -3.637390 -1.549782 -1.855069 0
M  V30 48 H -1.418571 -1.913668 -1.862907 0
M  V30 49 H -1.357486 -1.253745 -4.096728 0
M  V30 50 H 0.294753 0.298870 -4.713220 0
M  V30 51 H 1.923121 1.255406 -3.259973 0
M  V30 52 H 5.777698 0.496525 1.006275 0
M  V30 53 H 7.516650 -0.256758 2.615405 0
M  V30 END ATOM
M  V30 BEGIN BOND
M  V30 1 2 1 2
M  V30 2 1 2 3
M  V30 3 1 2 4
M  V30 4 2 4 5
M  V30 5 1 5 6
M  V30 6 2 6 7
M  V30 7 1 7 8
M  V30 8 1 8 9
M  V30 9 2 9 10
M  V30 10 1 10 11
M  V30 11 2 11 12
M  V30 12 1 12 13
M  V30 13 2 13 14
M  V30 14 2 13 15
M  V30 15 1 13 16
M  V30 16 2 16 17
M  V30 17 1 17 18
M  V30 18 2 18 19
M  V30 19 1 19 20
M  V30 20 2 20 21
M  V30 21 1 21 22
M  V30 22 2 22 23
M  V30 23 1 23 24
M  V30 24 2 24 25
M  V30 25 1 11 26
M  V30 26 2 26 27
M  V30 27 1 27 28
M  V30 28 2 28 29
M  V30 29 1 29 30
M  V30 30 2 30 31
M  V30 31 1 31 32
M  V30 32 2 32 33
M  V30 33 1 7 34
M  V30 34 2 34 35
M  V30 35 1 35 4
M  V30 36 1 32 9
M  V30 37 1 25 16
M  V30 38 1 31 26
M  V30 39 1 24 19
M  V30 40 1 3 36
M  V30 41 1 5 37
M  V30 42 1 6 38
M  V30 43 1 8 39
M  V30 44 1 10 40
M  V30 45 1 17 41
M  V30 46 1 18 42
M  V30 47 1 20 43
M  V30 48 1 21 44
M  V30 49 1 22 45
M  V30 50 1 23 46
M  V30 51 1 25 47
M  V30 52 1 27 48
M  V30 53 1 28 49
M  V30 54 1 29 50
M  V30 55 1 30 51
M  V30 56 1 34 52
M  V30 57 1 35 53
M  V30 END BOND
M  V30 END CTAB
M  END
>  <Dataset>  (609) 
ChEMBL_Kinases

>  <Ligand_Instance>  (609) 
nan

>  <PDB_ID>  (609) 
nan

>  <Standardized_SMILES>  (609) 
O=C(O)c1ccc(NC2=C/C(=N/S(=O)(=O)c3ccc4ccccc4c3)c3ccccc3C2=O)cc1

>  <Name>  (609) 
nan

>  <Pocket>  (609) 
nan

>  <ATP_Site>  (609) 
nan

>  <Peripheral>  (609) 
nan

>  <Num_H_Atoms_ProtBoundConf>  (609) 
nan

>  <Num_Resolved_Atoms>  (609) 
nan

>  <Num_Not_Resolved_Atoms>  (609) 
nan

$$$$
CHEMBL4782716
     RDKit          3D

  0  0  0  0  0  0  0  0  0  0999 V3000
M  V30 BEGIN CTAB
M  V30 COUNTS 51 53 0 0 0
M  V30 BEGIN ATOM
M  V30 1 C 1.483828 -5.341588 4.037058 0
M  V30 2 O 1.201031 -4.080450 3.488614 0
M  V30 3 C 2.109455 -3.472156 2.665809 0
M  V30 4 O 2.861215 -4.448707 2.805939 0
M  V30 5 C 2.325291 -2.276204 1.886943 0
M  V30 6 C 3.532397 -2.267943 1.235474 0
M  V30 7 N 3.892068 -1.229903 0.465985 0
M  V30 8 C 3.068379 -0.190968 0.330516 0
M  V30 9 N 3.446837 0.911453 -0.484830 0
M  V30 10 C 2.719923 2.104108 -0.757596 0
M  V30 11 C 1.894790 2.030530 -1.861479 0
M  V30 12 N 1.165341 3.118195 -2.195920 0
M  V30 13 C 1.232670 4.257404 -1.475270 0
M  V30 14 C 0.435998 5.400798 -1.865292 0
M  V30 15 N -0.214968 6.313060 -2.163039 0
M  V30 16 C 2.061398 4.322333 -0.371573 0
M  V30 17 N 2.793859 3.236114 -0.032445 0
M  V30 18 C 1.871320 -0.227639 0.992756 0
M  V30 19 C 1.417695 -1.252091 1.804330 0
M  V30 20 N 0.197634 -1.260182 2.498604 0
M  V30 21 C -0.923798 -0.396919 2.601930 0
M  V30 22 C -1.906678 -0.438389 1.466035 0
M  V30 23 C -1.364429 -0.083615 0.119086 0
M  V30 24 C -2.569392 -0.135444 -0.836996 0
M  V30 25 N -2.952350 -1.513400 -1.058569 0
M  V30 26 C -4.368316 -1.660333 -1.298185 0
M  V30 27 C -2.480459 -2.364700 0.009670 0
M  V30 28 C -2.599092 -1.779703 1.374509 0
M  V30 29 H 2.377801 -5.379423 4.678710 0
M  V30 30 H 1.589712 -6.124475 3.230900 0
M  V30 31 H 0.603711 -5.652938 4.654310 0
M  V30 32 H 4.254636 -3.055685 1.286141 0
M  V30 33 H 4.366313 0.907637 -0.975720 0
M  V30 34 H 1.761194 1.166542 -2.514344 0
M  V30 35 H 2.111698 5.229977 0.198279 0
M  V30 36 H 1.264981 0.648404 0.850060 0
M  V30 37 H 0.069693 -2.131951 3.099914 0
M  V30 38 H -1.480938 -0.611127 3.535689 0
M  V30 39 H -0.636185 0.683076 2.707487 0
M  V30 40 H -2.693915 0.340691 1.692995 0
M  V30 41 H -0.636871 -0.796813 -0.299187 0
M  V30 42 H -0.964308 0.952266 0.074363 0
M  V30 43 H -3.367839 0.481716 -0.422304 0
M  V30 44 H -2.197033 0.254573 -1.806286 0
M  V30 45 H -4.839798 -2.125384 -0.398888 0
M  V30 46 H -4.502068 -2.360609 -2.148702 0
M  V30 47 H -4.882952 -0.713559 -1.551741 0
M  V30 48 H -1.436171 -2.653315 -0.227219 0
M  V30 49 H -3.064403 -3.311392 -0.039787 0
M  V30 50 H -2.119279 -2.494280 2.083432 0
M  V30 51 H -3.661923 -1.654302 1.634490 0
M  V30 END ATOM
M  V30 BEGIN BOND
M  V30 1 1 1 2
M  V30 2 1 2 3
M  V30 3 2 3 4
M  V30 4 1 3 5
M  V30 5 2 5 6
M  V30 6 1 6 7
M  V30 7 2 7 8
M  V30 8 1 8 9
M  V30 9 1 9 10
M  V30 10 2 10 11
M  V30 11 1 11 12
M  V30 12 2 12 13
M  V30 13 1 13 14
M  V30 14 3 14 15
M  V30 15 1 13 16
M  V30 16 2 16 17
M  V30 17 1 8 18
M  V30 18 2 18 19
M  V30 19 1 19 20
M  V30 20 1 20 21
M  V30 21 1 21 22
M  V30 22 1 22 23
M  V30 23 1 23 24
M  V30 24 1 24 25
M  V30 25 1 25 26
M  V30 26 1 25 27
M  V30 27 1 27 28
M  V30 28 1 19 5
M  V30 29 1 28 22
M  V30 30 1 17 10
M  V30 31 1 1 29
M  V30 32 1 1 30
M  V30 33 1 1 31
M  V30 34 1 6 32
M  V30 35 1 9 33
M  V30 36 1 11 34
M  V30 37 1 16 35
M  V30 38 1 18 36
M  V30 39 1 20 37
M  V30 40 1 21 38
M  V30 41 1 21 39
M  V30 42 1 22 40
M  V30 43 1 23 41
M  V30 44 1 23 42
M  V30 45 1 24 43
M  V30 46 1 24 44
M  V30 47 1 26 45
M  V30 48 1 26 46
M  V30 49 1 26 47
M  V30 50 1 27 48
M  V30 51 1 27 49
M  V30 52 1 28 50
M  V30 53 1 28 51
M  V30 END BOND
M  V30 END CTAB
M  END
>  <Dataset>  (610) 
ChEMBL_Kinases

>  <Ligand_Instance>  (610) 
nan

>  <PDB_ID>  (610) 
nan

>  <Standardized_SMILES>  (610) 
COC(=O)c1cnc(Nc2cnc(C#N)cn2)cc1NCC1CCN(C)CC1

>  <Name>  (610) 
nan

>  <Pocket>  (610) 
nan

>  <ATP_Site>  (610) 
nan

>  <Peripheral>  (610) 
nan

>  <Num_H_Atoms_ProtBoundConf>  (610) 
nan

>  <Num_Resolved_Atoms>  (610) 
nan

>  <Num_Not_Resolved_Atoms>  (610) 
nan

$$$$
CHEMBL4208337
     RDKit          3D

  0  0  0  0  0  0  0  0  0  0999 V3000
M  V30 BEGIN CTAB
M  V30 COUNTS 46 49 0 0 0
M  V30 BEGIN ATOM
M  V30 1 C 2.266895 -4.205066 2.468448 0
M  V30 2 N 3.270354 -3.577363 1.628593 0
M  V30 3 C 3.136031 -3.883037 0.209613 0
M  V30 4 C 4.430218 -3.336579 -0.348429 0
M  V30 5 C 4.658640 -2.119968 0.554692 0 CFG=1
M  V30 6 O 5.922453 -1.592660 0.435943 0
M  V30 7 C 3.691669 -1.070580 0.231518 0
M  V30 8 C 2.881300 -0.206311 -0.018405 0
M  V30 9 C 1.903751 0.805467 -0.326422 0
M  V30 10 C 2.173005 1.889726 -1.137333 0
M  V30 11 C 1.146845 2.793734 -1.356772 0
M  V30 12 C -0.098003 2.615276 -0.784943 0
M  V30 13 C -0.374248 1.533858 0.026654 0
M  V30 14 N -1.638546 1.295868 0.644710 0
M  V30 15 N -1.743614 1.365110 1.973465 0
M  V30 16 C -3.003567 1.111493 2.353406 0
M  V30 17 C -3.596445 1.073203 3.695235 0
M  V30 18 N -2.708358 1.347367 4.796394 0
M  V30 19 O -4.815160 0.816580 3.900483 0
M  V30 20 C -3.738070 0.867573 1.196319 0
M  V30 21 C -5.046324 0.555443 0.890714 0
M  V30 22 C -5.401244 0.384454 -0.430713 0
M  V30 23 F -6.707058 0.078422 -0.656598 0
M  V30 24 C -4.522756 0.505707 -1.493148 0
M  V30 25 C -3.197280 0.821425 -1.190998 0
M  V30 26 C -2.850343 0.990931 0.134618 0
M  V30 27 C 0.651339 0.622322 0.251249 0
M  V30 28 C 4.384556 -2.705240 1.906153 0
M  V30 29 O 4.740642 -2.723235 3.131132 0
M  V30 30 H 2.420137 -4.004430 3.546058 0
M  V30 31 H 1.254583 -3.808938 2.187340 0
M  V30 32 H 2.224845 -5.299569 2.291232 0
M  V30 33 H 3.036819 -4.978174 0.024796 0
M  V30 34 H 2.271934 -3.327046 -0.181554 0
M  V30 35 H 4.300024 -2.944818 -1.382253 0
M  V30 36 H 5.247535 -4.047131 -0.246988 0
M  V30 37 H 6.523874 -1.869051 1.169986 0
M  V30 38 H 3.166818 1.981187 -1.560323 0
M  V30 39 H 1.330187 3.645210 -1.983323 0
M  V30 40 H -0.892849 3.337711 -0.969510 0
M  V30 41 H -2.573785 0.359910 5.104626 0
M  V30 42 H -2.577580 0.351900 5.100861 0
M  V30 43 H -5.751992 0.455315 1.705002 0
M  V30 44 H -4.859894 0.360100 -2.507081 0
M  V30 45 H -2.480196 0.924927 -1.993275 0
M  V30 46 H 0.431155 -0.237491 0.896732 0
M  V30 END ATOM
M  V30 BEGIN BOND
M  V30 1 1 1 2
M  V30 2 1 2 3
M  V30 3 1 3 4
M  V30 4 1 4 5
M  V30 5 1 5 6
M  V30 6 1 5 7 CFG=3
M  V30 7 3 7 8
M  V30 8 1 8 9
M  V30 9 2 9 10
M  V30 10 1 10 11
M  V30 11 2 11 12
M  V30 12 1 12 13
M  V30 13 1 13 14
M  V30 14 1 14 15
M  V30 15 2 15 16
M  V30 16 1 16 17
M  V30 17 1 17 18
M  V30 18 2 17 19
M  V30 19 1 16 20
M  V30 20 2 20 21
M  V30 21 1 21 22
M  V30 22 1 22 23
M  V30 23 2 22 24
M  V30 24 1 24 25
M  V30 25 2 25 26
M  V30 26 2 13 27
M  V30 27 1 5 28
M  V30 28 2 28 29
M  V30 29 1 28 2
M  V30 30 1 27 9
M  V30 31 1 26 14
M  V30 32 1 26 20
M  V30 33 1 1 30
M  V30 34 1 1 31
M  V30 35 1 1 32
M  V30 36 1 3 33
M  V30 37 1 3 34
M  V30 38 1 4 35
M  V30 39 1 4 36
M  V30 40 1 6 37
M  V30 41 1 10 38
M  V30 42 1 11 39
M  V30 43 1 12 40
M  V30 44 1 18 41
M  V30 45 1 18 42
M  V30 46 1 21 43
M  V30 47 1 24 44
M  V30 48 1 25 45
M  V30 49 1 27 46
M  V30 END BOND
M  V30 END CTAB
M  END
>  <Dataset>  (611) 
ChEMBL_Kinases

>  <Ligand_Instance>  (611) 
nan

>  <PDB_ID>  (611) 
nan

>  <Standardized_SMILES>  (611) 
CN1CC[C@@](O)(C#Cc2cccc(-n3nc(C(N)=O)c4cc(F)ccc43)c2)C1=O

>  <Name>  (611) 
nan

>  <Pocket>  (611) 
nan

>  <ATP_Site>  (611) 
nan

>  <Peripheral>  (611) 
nan

>  <Num_H_Atoms_ProtBoundConf>  (611) 
nan

>  <Num_Resolved_Atoms>  (611) 
nan

>  <Num_Not_Resolved_Atoms>  (611) 
nan

$$$$
CHEMBL4208290
     RDKit          3D

  0  0  0  0  0  0  0  0  0  0999 V3000
M  V30 BEGIN CTAB
M  V30 COUNTS 55 59 0 0 0
M  V30 BEGIN ATOM
M  V30 1 O -0.729867 -2.644441 3.174453 0
M  V30 2 C 0.329673 -3.171330 2.714352 0
M  V30 3 C 1.482987 -3.023695 3.683859 0
M  V30 4 S 1.907859 -1.247085 3.572597 0
M  V30 5 C 2.536590 -0.900617 1.928232 0
M  V30 6 N 2.697854 -1.843251 0.992355 0
M  V30 7 C 3.159449 -1.531305 -0.257857 0
M  V30 8 C 3.443650 -0.209339 -0.494250 0
M  V30 9 C 3.258640 0.728309 0.513055 0
M  V30 10 O 3.592515 1.880468 0.060115 0
M  V30 11 N 2.800536 0.403787 1.746296 0
M  V30 12 C 2.653046 1.535866 2.647252 0
M  V30 13 C 1.291350 2.116746 2.620889 0
M  V30 14 C 0.374193 1.854634 3.648082 0
M  V30 15 C -0.906849 2.327220 3.692296 0
M  V30 16 C -1.365799 3.128623 2.661125 0
M  V30 17 C -0.511471 3.417794 1.629849 0
M  V30 18 C -1.057461 4.263657 0.549834 0
M  V30 19 F -2.317611 3.734082 0.214584 0
M  V30 20 F -1.285082 5.567693 0.934837 0
M  V30 21 F -0.266608 4.295888 -0.580894 0
M  V30 22 C 0.765795 2.917587 1.634462 0
M  V30 23 S 3.992670 -0.230153 -2.190015 0
M  V30 24 C 3.893681 -1.995854 -2.523324 0
M  V30 25 C 3.336032 -2.566605 -1.257558 0
M  V30 26 N 0.292081 -3.780170 1.449045 0
M  V30 27 C -0.967308 -3.736153 0.771455 0
M  V30 28 N -2.079067 -4.119720 0.485263 0
M  V30 29 C -2.872256 -3.535434 -0.387280 0
M  V30 30 C -4.136887 -3.998215 -0.691073 0
M  V30 31 C -4.908139 -3.334282 -1.613719 0
M  V30 32 C -4.520347 -2.201586 -2.292834 0
M  V30 33 C -5.247225 -1.399380 -3.306209 0
M  V30 34 F -6.577143 -1.771906 -3.345039 0
M  V30 35 F -5.105541 -0.047647 -3.062097 0
M  V30 36 F -4.733045 -1.584280 -4.596012 0
M  V30 37 C -3.256539 -1.736994 -1.991158 0
M  V30 38 C -2.459940 -2.397707 -1.057091 0
M  V30 39 S -0.837487 -2.190043 -0.364273 0
M  V30 40 H 2.345114 -3.600860 3.285592 0
M  V30 41 H 1.187033 -3.285358 4.701680 0
M  V30 42 H 3.455771 2.276518 2.462536 0
M  V30 43 H 2.835251 1.174753 3.687129 0
M  V30 44 H 0.629447 1.241364 4.515166 0
M  V30 45 H -1.595277 2.109521 4.494391 0
M  V30 46 H -2.371479 3.506221 2.685491 0
M  V30 47 H 1.364106 3.193200 0.801829 0
M  V30 48 H 4.881380 -2.429975 -2.797192 0
M  V30 49 H 3.149415 -2.134344 -3.340293 0
M  V30 50 H 2.367028 -3.074181 -1.451786 0
M  V30 51 H 4.097984 -3.288210 -0.878236 0
M  V30 52 H 1.203236 -4.192302 1.165145 0
M  V30 53 H -4.641288 -4.863106 -0.279808 0
M  V30 54 H -5.923933 -3.659292 -1.892259 0
M  V30 55 H -2.705634 -0.890049 -2.365742 0
M  V30 END ATOM
M  V30 BEGIN BOND
M  V30 1 2 1 2
M  V30 2 1 2 3
M  V30 3 1 3 4
M  V30 4 1 4 5
M  V30 5 2 5 6
M  V30 6 1 6 7
M  V30 7 2 7 8
M  V30 8 1 8 9
M  V30 9 2 9 10
M  V30 10 1 9 11
M  V30 11 1 11 12
M  V30 12 1 12 13
M  V30 13 2 13 14
M  V30 14 1 14 15
M  V30 15 2 15 16
M  V30 16 1 16 17
M  V30 17 1 17 18
M  V30 18 1 18 19
M  V30 19 1 18 20
M  V30 20 1 18 21
M  V30 21 2 17 22
M  V30 22 1 8 23
M  V30 23 1 23 24
M  V30 24 1 24 25
M  V30 25 1 2 26
M  V30 26 1 26 27
M  V30 27 2 27 28
M  V30 28 1 28 29
M  V30 29 2 29 30
M  V30 30 1 30 31
M  V30 31 2 31 32
M  V30 32 1 32 33
M  V30 33 1 33 34
M  V30 34 1 33 35
M  V30 35 1 33 36
M  V30 36 1 32 37
M  V30 37 2 37 38
M  V30 38 1 38 39
M  V30 39 1 11 5
M  V30 40 1 22 13
M  V30 41 1 39 27
M  V30 42 1 25 7
M  V30 43 1 38 29
M  V30 44 1 3 40
M  V30 45 1 3 41
M  V30 46 1 12 42
M  V30 47 1 12 43
M  V30 48 1 14 44
M  V30 49 1 15 45
M  V30 50 1 16 46
M  V30 51 1 22 47
M  V30 52 1 24 48
M  V30 53 1 24 49
M  V30 54 1 25 50
M  V30 55 1 25 51
M  V30 56 1 26 52
M  V30 57 1 30 53
M  V30 58 1 31 54
M  V30 59 1 37 55
M  V30 END BOND
M  V30 END CTAB
M  END
>  <Dataset>  (612) 
ChEMBL_Kinases

>  <Ligand_Instance>  (612) 
nan

>  <PDB_ID>  (612) 
nan

>  <Standardized_SMILES>  (612) 
O=C(CSc1nc2c(c(=O)n1Cc1cccc(C(F)(F)F)c1)SCC2)Nc1nc2ccc(C(F)(F)F)cc2s1

>  <Name>  (612) 
nan

>  <Pocket>  (612) 
nan

>  <ATP_Site>  (612) 
nan

>  <Peripheral>  (612) 
nan

>  <Num_H_Atoms_ProtBoundConf>  (612) 
nan

>  <Num_Resolved_Atoms>  (612) 
nan

>  <Num_Not_Resolved_Atoms>  (612) 
nan

$$$$
CHEMBL4208269
     RDKit          3D

  0  0  0  0  0  0  0  0  0  0999 V3000
M  V30 BEGIN CTAB
M  V30 COUNTS 47 51 0 0 0
M  V30 BEGIN ATOM
M  V30 1 O 0.822763 -2.452370 2.970497 0
M  V30 2 C 0.557189 -1.225110 2.865901 0
M  V30 3 C 1.703564 -0.316142 2.604028 0
M  V30 4 C 1.971031 -0.172181 1.131482 0
M  V30 5 C 1.143144 0.579275 0.325123 0
M  V30 6 C 1.340012 0.746710 -1.035866 0
M  V30 7 C 2.450080 0.104717 -1.594654 0
M  V30 8 C 2.662308 0.263152 -2.962825 0
M  V30 9 C 3.760039 -0.365549 -3.542994 0
M  V30 10 C 4.623996 -1.134158 -2.771354 0
M  V30 11 C 4.391790 -1.279339 -1.400758 0
M  V30 12 C 3.295774 -0.654312 -0.809424 0
M  V30 13 C 3.066572 -0.797878 0.544620 0
M  V30 14 O 1.377849 0.953494 3.139077 0
M  V30 15 C 0.082505 1.357099 3.287123 0
M  V30 16 C -0.161561 2.705386 3.509606 0
M  V30 17 C -1.471655 3.155572 3.667078 0
M  V30 18 C -2.569486 2.298922 3.610662 0
M  V30 19 C -2.334189 0.958331 3.389748 0
M  V30 20 C -1.029432 0.543479 3.237485 0
M  V30 21 N -0.829145 -0.847566 3.012958 0
M  V30 22 C -1.862717 -1.879719 2.924439 0
M  V30 23 C -2.320702 -2.144672 1.559488 0
M  V30 24 C -3.349060 -1.558876 0.874106 0
M  V30 25 C -3.736141 -1.848667 -0.415543 0
M  V30 26 C -3.048082 -2.808350 -1.104521 0
M  V30 27 F -3.423780 -3.094171 -2.365507 0
M  V30 28 C -1.997361 -3.443324 -0.477588 0
M  V30 29 C -1.650640 -3.119636 0.807145 0
M  V30 30 H 2.601176 -0.741069 3.103006 0
M  V30 31 H 0.281720 1.087680 0.714403 0
M  V30 32 H 0.701203 1.329254 -1.670290 0
M  V30 33 H 1.997604 0.858230 -3.573251 0
M  V30 34 H 3.915341 -0.236558 -4.602722 0
M  V30 35 H 5.484473 -1.628057 -3.221292 0
M  V30 36 H 5.071098 -1.884706 -0.789439 0
M  V30 37 H 3.743967 -1.396354 1.130977 0
M  V30 38 H 0.583911 3.466308 3.575368 0
M  V30 39 H -1.684920 4.212312 3.842851 0
M  V30 40 H -3.557976 2.714058 3.741245 0
M  V30 41 H -3.163032 0.270332 3.346690 0
M  V30 42 H -1.372018 -2.802518 3.312926 0
M  V30 43 H -2.683862 -1.698643 3.641312 0
M  V30 44 H -3.915918 -0.800944 1.381383 0
M  V30 45 H -4.567059 -1.325616 -0.868997 0
M  V30 46 H -1.500116 -4.189391 -1.081574 0
M  V30 47 H -0.810170 -3.702708 1.159467 0
M  V30 END ATOM
M  V30 BEGIN BOND
M  V30 1 2 1 2
M  V30 2 1 2 3
M  V30 3 1 3 4
M  V30 4 2 4 5
M  V30 5 1 5 6
M  V30 6 2 6 7
M  V30 7 1 7 8
M  V30 8 2 8 9
M  V30 9 1 9 10
M  V30 10 2 10 11
M  V30 11 1 11 12
M  V30 12 2 12 13
M  V30 13 1 3 14
M  V30 14 1 14 15
M  V30 15 2 15 16
M  V30 16 1 16 17
M  V30 17 2 17 18
M  V30 18 1 18 19
M  V30 19 2 19 20
M  V30 20 1 20 21
M  V30 21 1 21 22
M  V30 22 1 22 23
M  V30 23 2 23 24
M  V30 24 1 24 25
M  V30 25 2 25 26
M  V30 26 1 26 27
M  V30 27 1 26 28
M  V30 28 2 28 29
M  V30 29 1 21 2
M  V30 30 1 29 23
M  V30 31 1 13 4
M  V30 32 1 20 15
M  V30 33 1 12 7
M  V30 34 1 3 30
M  V30 35 1 5 31
M  V30 36 1 6 32
M  V30 37 1 8 33
M  V30 38 1 9 34
M  V30 39 1 10 35
M  V30 40 1 11 36
M  V30 41 1 13 37
M  V30 42 1 16 38
M  V30 43 1 17 39
M  V30 44 1 18 40
M  V30 45 1 19 41
M  V30 46 1 22 42
M  V30 47 1 22 43
M  V30 48 1 24 44
M  V30 49 1 25 45
M  V30 50 1 28 46
M  V30 51 1 29 47
M  V30 END BOND
M  V30 END CTAB
M  END
>  <Dataset>  (613) 
ChEMBL_Kinases

>  <Ligand_Instance>  (613) 
nan

>  <PDB_ID>  (613) 
nan

>  <Standardized_SMILES>  (613) 
O=C1C(c2ccc3ccccc3c2)Oc2ccccc2N1Cc1ccc(F)cc1

>  <Name>  (613) 
nan

>  <Pocket>  (613) 
nan

>  <ATP_Site>  (613) 
nan

>  <Peripheral>  (613) 
nan

>  <Num_H_Atoms_ProtBoundConf>  (613) 
nan

>  <Num_Resolved_Atoms>  (613) 
nan

>  <Num_Not_Resolved_Atoms>  (613) 
nan

$$$$
CHEMBL4782722
     RDKit          3D

  0  0  0  0  0  0  0  0  0  0999 V3000
M  V30 BEGIN CTAB
M  V30 COUNTS 62 68 0 0 0
M  V30 BEGIN ATOM
M  V30 1 C 3.403241 1.301642 4.049614 0
M  V30 2 O 3.385452 0.109569 3.336109 0
M  V30 3 C 3.962895 0.250287 2.109099 0 CFG=1
M  V30 4 C 5.214105 -0.564934 1.894926 0
M  V30 5 O 5.449160 -0.215156 0.543279 0
M  V30 6 C 4.230044 -0.428576 -0.099183 0
M  V30 7 C 3.155022 -0.077742 0.925996 0 CFG=1
M  V30 8 N 2.269157 -1.174316 0.994038 0
M  V30 9 C 1.238363 -1.143258 1.978823 0
M  V30 10 C 0.379571 0.107041 1.922704 0
M  V30 11 N 0.169864 0.551769 0.565405 0
M  V30 12 C -0.741960 1.605727 0.311251 0
M  V30 13 C -1.769136 1.164589 -0.528695 0
M  V30 14 C -2.788965 2.042254 -0.914509 0
M  V30 15 C -2.747955 3.349602 -0.441683 0
M  V30 16 C -3.857075 3.988225 -0.968849 0
M  V30 17 N -4.517408 3.076633 -1.722708 0
M  V30 18 N -3.894661 1.921948 -1.697871 0
M  V30 19 C -4.279924 0.717543 -2.366776 0
M  V30 20 C -5.441669 0.009835 -2.169808 0
M  V30 21 N -5.443959 -1.060810 -2.978973 0
M  V30 22 N -4.331583 -1.085827 -3.699489 0
M  V30 23 C -3.958205 -1.990192 -4.616584 0
M  V30 24 C -4.302298 -3.427896 -4.598784 0
M  V30 25 C -3.445690 -3.262713 -5.823903 0
M  V30 26 C -4.232989 -2.005236 -6.074429 0
M  V30 27 C -2.572236 -2.416579 -4.937619 0
M  V30 28 C -3.603782 -0.011005 -3.344860 0
M  V30 29 C -1.721893 3.784087 0.395227 0
M  V30 30 C -0.744949 2.897231 0.749103 0
M  V30 31 Cl 0.589942 3.308792 1.784681 0
M  V30 32 C 0.825042 0.005015 -0.607162 0
M  V30 33 C 1.584351 -1.282367 -0.284489 0
M  V30 34 H 4.433583 1.693009 4.230191 0
M  V30 35 H 2.853627 2.112821 3.489217 0
M  V30 36 H 2.899199 1.193314 5.027405 0
M  V30 37 H 4.290599 1.317319 2.037329 0
M  V30 38 H 6.073860 -0.223607 2.491214 0
M  V30 39 H 5.054625 -1.643082 1.900255 0
M  V30 40 H 4.149376 0.125325 -1.033386 0
M  V30 41 H 4.233727 -1.518416 -0.354409 0
M  V30 42 H 2.655095 0.823415 0.566988 0
M  V30 43 H 0.558145 -1.992106 1.740121 0
M  V30 44 H 1.587646 -1.350453 3.010305 0
M  V30 45 H 0.811997 0.896548 2.571033 0
M  V30 46 H -0.644778 -0.087057 2.326639 0
M  V30 47 H -1.889541 0.160782 -0.951385 0
M  V30 48 H -4.143101 5.014632 -0.811271 0
M  V30 49 H -6.195018 0.315639 -1.463098 0
M  V30 50 H -5.334547 -3.699755 -4.882129 0
M  V30 51 H -3.833228 -4.026344 -3.789570 0
M  V30 52 H -3.166226 -3.967098 -6.481406 0
M  V30 53 H -3.672851 -1.296188 -6.704416 0
M  V30 54 H -5.282710 -2.214147 -6.360604 0
M  V30 55 H -2.108489 -2.945258 -4.078063 0
M  V30 56 H -1.945753 -1.684861 -5.474060 0
M  V30 57 H -2.634827 0.307608 -3.714854 0
M  V30 58 H -1.680157 4.798299 0.768688 0
M  V30 59 H 1.490216 0.739796 -1.104583 0
M  V30 60 H 0.059183 -0.247025 -1.397091 0
M  V30 61 H 2.336545 -1.393820 -1.088911 0
M  V30 62 H 0.872638 -2.152657 -0.285506 0
M  V30 END ATOM
M  V30 BEGIN BOND
M  V30 1 1 1 2
M  V30 2 1 2 3
M  V30 3 1 3 4
M  V30 4 1 4 5
M  V30 5 1 5 6
M  V30 6 1 6 7
M  V30 7 1 7 8
M  V30 8 1 8 9
M  V30 9 1 9 10
M  V30 10 1 10 11
M  V30 11 1 11 12
M  V30 12 2 12 13
M  V30 13 1 13 14
M  V30 14 2 14 15
M  V30 15 1 15 16
M  V30 16 2 16 17
M  V30 17 1 17 18
M  V30 18 1 18 19
M  V30 19 1 19 20
M  V30 20 2 20 21
M  V30 21 1 21 22
M  V30 22 1 22 23
M  V30 23 1 23 24
M  V30 24 1 24 25
M  V30 25 1 25 26
M  V30 26 1 25 27
M  V30 27 1 22 28
M  V30 28 1 15 29
M  V30 29 2 29 30
M  V30 30 1 30 31
M  V30 31 1 11 32
M  V30 32 1 32 33
M  V30 33 1 7 3
M  V30 34 1 33 8
M  V30 35 1 30 12
M  V30 36 1 18 14
M  V30 37 2 28 19
M  V30 38 1 26 23
M  V30 39 1 27 23
M  V30 40 1 1 34
M  V30 41 1 1 35
M  V30 42 1 1 36
M  V30 43 1 3 37 CFG=3
M  V30 44 1 4 38
M  V30 45 1 4 39
M  V30 46 1 6 40
M  V30 47 1 6 41
M  V30 48 1 7 42 CFG=3
M  V30 49 1 9 43
M  V30 50 1 9 44
M  V30 51 1 10 45
M  V30 52 1 10 46
M  V30 53 1 13 47
M  V30 54 1 16 48
M  V30 55 1 20 49
M  V30 56 1 24 50
M  V30 57 1 24 51
M  V30 58 1 25 52
M  V30 59 1 26 53
M  V30 60 1 26 54
M  V30 61 1 27 55
M  V30 62 1 27 56
M  V30 63 1 28 57
M  V30 64 1 29 58
M  V30 65 1 32 59
M  V30 66 1 32 60
M  V30 67 1 33 61
M  V30 68 1 33 62
M  V30 END BOND
M  V30 END CTAB
M  END
>  <Dataset>  (614) 
ChEMBL_Kinases

>  <Ligand_Instance>  (614) 
nan

>  <PDB_ID>  (614) 
nan

>  <Standardized_SMILES>  (614) 
CO[C@H]1COC[C@H]1N1CCN(c2cc3c(cnn3-c3cnn(C45CC(C4)C5)c3)cc2Cl)CC1

>  <Name>  (614) 
nan

>  <Pocket>  (614) 
nan

>  <ATP_Site>  (614) 
nan

>  <Peripheral>  (614) 
nan

>  <Num_H_Atoms_ProtBoundConf>  (614) 
nan

>  <Num_Resolved_Atoms>  (614) 
nan

>  <Num_Not_Resolved_Atoms>  (614) 
nan

$$$$
CHEMBL4782729
     RDKit          3D

  0  0  0  0  0  0  0  0  0  0999 V3000
M  V30 BEGIN CTAB
M  V30 COUNTS 44 47 0 0 0
M  V30 BEGIN ATOM
M  V30 1 C -5.809634 -3.130835 3.757884 0
M  V30 2 O -5.025494 -3.151334 2.562357 0
M  V30 3 C -3.695545 -2.779743 2.711842 0
M  V30 4 C -2.955811 -2.808786 1.531961 0
M  V30 5 C -1.607052 -2.457566 1.546258 0
M  V30 6 C -0.742348 -2.453732 0.369286 0
M  V30 7 C -0.734675 -3.497494 -0.554015 0
M  V30 8 N 0.178947 -3.124841 -1.475250 0
M  V30 9 N 0.704283 -1.951876 -1.166537 0
M  V30 10 C 1.625020 -1.138460 -1.711696 0
M  V30 11 C 1.962996 0.059273 -1.125479 0
M  V30 12 O 2.914219 0.881556 -1.701489 0
M  V30 13 C 3.595461 0.590060 -2.884997 0
M  V30 14 C 1.399882 0.511893 0.038158 0
M  V30 15 C 1.627797 1.760051 0.805412 0
M  V30 16 C 2.811727 1.582347 1.707930 0
M  V30 17 C 3.960151 2.220093 0.980428 0
M  V30 18 C 3.351043 3.273649 0.105457 0
M  V30 19 C 1.912221 2.937318 -0.050209 0
M  V30 20 N 0.466534 -0.318516 0.586162 0
M  V30 21 C 0.175905 -1.472921 -0.026406 0
M  V30 22 C -1.027689 -2.080888 2.762296 0
M  V30 23 C -1.799388 -2.066690 3.906912 0
M  V30 24 N -3.100935 -2.411430 3.861964 0
M  V30 25 H -5.477526 -2.380102 4.473522 0
M  V30 26 H -6.856905 -2.972014 3.405046 0
M  V30 27 H -5.788773 -4.169676 4.159630 0
M  V30 28 H -3.347185 -3.092958 0.551276 0
M  V30 29 H -1.323503 -4.408321 -0.546818 0
M  V30 30 H 2.121600 -1.413318 -2.629709 0
M  V30 31 H 4.242377 -0.305436 -2.843109 0
M  V30 32 H 2.925152 0.437384 -3.754128 0
M  V30 33 H 4.248558 1.462297 -3.126219 0
M  V30 34 H 0.701212 1.990808 1.428813 0
M  V30 35 H 3.006344 0.501872 1.917710 0
M  V30 36 H 2.654476 2.103723 2.691739 0
M  V30 37 H 4.688607 2.677273 1.697349 0
M  V30 38 H 4.515470 1.431049 0.441862 0
M  V30 39 H 3.835294 3.292771 -0.890537 0
M  V30 40 H 3.500360 4.289993 0.556288 0
M  V30 41 H 1.259331 3.809353 0.262668 0
M  V30 42 H 1.678585 2.690193 -1.116505 0
M  V30 43 H 0.017911 -1.805074 2.792274 0
M  V30 44 H -1.391115 -1.781762 4.868212 0
M  V30 END ATOM
M  V30 BEGIN BOND
M  V30 1 1 1 2
M  V30 2 1 2 3
M  V30 3 2 3 4
M  V30 4 1 4 5
M  V30 5 1 5 6
M  V30 6 1 6 7
M  V30 7 2 7 8
M  V30 8 1 8 9
M  V30 9 1 9 10
M  V30 10 2 10 11
M  V30 11 1 11 12
M  V30 12 1 12 13
M  V30 13 1 11 14
M  V30 14 1 14 15
M  V30 15 1 15 16
M  V30 16 1 16 17
M  V30 17 1 17 18
M  V30 18 1 18 19
M  V30 19 2 14 20
M  V30 20 1 20 21
M  V30 21 2 5 22
M  V30 22 1 22 23
M  V30 23 2 23 24
M  V30 24 1 24 3
M  V30 25 2 21 6
M  V30 26 1 21 9
M  V30 27 1 19 15
M  V30 28 1 1 25
M  V30 29 1 1 26
M  V30 30 1 1 27
M  V30 31 1 4 28
M  V30 32 1 7 29
M  V30 33 1 10 30
M  V30 34 1 13 31
M  V30 35 1 13 32
M  V30 36 1 13 33
M  V30 37 1 15 34
M  V30 38 1 16 35
M  V30 39 1 16 36
M  V30 40 1 17 37
M  V30 41 1 17 38
M  V30 42 1 18 39
M  V30 43 1 18 40
M  V30 44 1 19 41
M  V30 45 1 19 42
M  V30 46 1 22 43
M  V30 47 1 23 44
M  V30 END BOND
M  V30 END CTAB
M  END
>  <Dataset>  (615) 
ChEMBL_Kinases

>  <Ligand_Instance>  (615) 
nan

>  <PDB_ID>  (615) 
nan

>  <Standardized_SMILES>  (615) 
COc1cc(-c2cnn3cc(OC)c(C4CCCC4)nc23)ccn1

>  <Name>  (615) 
nan

>  <Pocket>  (615) 
nan

>  <ATP_Site>  (615) 
nan

>  <Peripheral>  (615) 
nan

>  <Num_H_Atoms_ProtBoundConf>  (615) 
nan

>  <Num_Resolved_Atoms>  (615) 
nan

>  <Num_Not_Resolved_Atoms>  (615) 
nan

$$$$
CHEMBL4782750
     RDKit          3D

  0  0  0  0  0  0  0  0  0  0999 V3000
M  V30 BEGIN CTAB
M  V30 COUNTS 51 54 0 0 0
M  V30 BEGIN ATOM
M  V30 1 C 4.990408 -2.961186 -2.088022 0
M  V30 2 O 4.316235 -2.411924 -0.980276 0
M  V30 3 C 4.854900 -1.513814 -0.079016 0
M  V30 4 C 6.147986 -1.029526 -0.139536 0
M  V30 5 C 6.635349 -0.123571 0.798394 0
M  V30 6 C 5.859459 0.340265 1.836386 0
M  V30 7 C 4.565381 -0.121319 1.926799 0
M  V30 8 C 3.495881 0.208851 2.941021 0
M  V30 9 C 2.729778 1.355671 2.384145 0
M  V30 10 O 3.157157 2.527978 2.331707 0
M  V30 11 N 1.402889 1.146050 1.855297 0
M  V30 12 C 0.461395 2.079853 1.277683 0
M  V30 13 C -0.789394 1.395811 0.791366 0
M  V30 14 C -1.581801 0.668643 1.816004 0
M  V30 15 N -2.747858 -0.019498 1.238131 0
M  V30 16 C -3.992733 0.447145 1.061185 0
M  V30 17 O -4.159684 1.632438 1.435759 0
M  V30 18 C -4.963817 -0.353249 0.508938 0
M  V30 19 C -6.226145 0.155977 0.344898 0
M  V30 20 C -7.197469 -0.659488 -0.211603 0
M  V30 21 F -8.481498 -0.211925 -0.404319 0
M  V30 22 C -6.978466 -1.978818 -0.620553 0
M  V30 23 C -5.682734 -2.455745 -0.436238 0
M  V30 24 C -4.715522 -1.649549 0.115570 0
M  V30 25 N -3.470074 -2.090674 0.300317 0
M  V30 26 C -2.917169 -3.266698 0.035676 0
M  V30 27 S -3.464210 -4.649081 -0.605303 0
M  V30 28 N -1.641127 -3.219540 0.404375 0
M  V30 29 N -1.360842 -2.030314 0.903200 0
M  V30 30 C -2.518240 -1.316667 0.838134 0
M  V30 31 C 4.092489 -1.032556 0.974764 0
M  V30 32 H 5.417190 -3.957891 -1.838144 0
M  V30 33 H 4.257930 -3.141249 -2.925138 0
M  V30 34 H 5.818797 -2.306351 -2.449078 0
M  V30 35 H 6.799572 -1.365272 -0.941506 0
M  V30 36 H 7.646454 0.275839 0.777921 0
M  V30 37 H 6.103398 1.027084 2.614061 0
M  V30 38 H 4.008470 0.515991 3.890655 0
M  V30 39 H 2.877518 -0.667418 3.190216 0
M  V30 40 H 1.080309 0.141719 1.905144 0
M  V30 41 H 0.886463 2.654293 0.450109 0
M  V30 42 H 0.181179 2.793977 2.081436 0
M  V30 43 H -0.591795 0.716523 -0.065101 0
M  V30 44 H -1.456620 2.203817 0.359339 0
M  V30 45 H -2.034314 1.411069 2.539242 0
M  V30 46 H -1.014039 -0.094711 2.366976 0
M  V30 47 H -6.470715 1.173853 0.640284 0
M  V30 48 H -7.776775 -2.567524 -1.049122 0
M  V30 49 H -5.548026 -3.470870 -0.762862 0
M  V30 50 H -0.822770 -3.895814 0.391339 0
M  V30 51 H 3.064954 -1.437315 0.994005 0
M  V30 END ATOM
M  V30 BEGIN BOND
M  V30 1 1 1 2
M  V30 2 1 2 3
M  V30 3 2 3 4
M  V30 4 1 4 5
M  V30 5 2 5 6
M  V30 6 1 6 7
M  V30 7 1 7 8
M  V30 8 1 8 9
M  V30 9 2 9 10
M  V30 10 1 9 11
M  V30 11 1 11 12
M  V30 12 1 12 13
M  V30 13 1 13 14
M  V30 14 1 14 15
M  V30 15 1 15 16
M  V30 16 2 16 17
M  V30 17 1 16 18
M  V30 18 2 18 19
M  V30 19 1 19 20
M  V30 20 1 20 21
M  V30 21 2 20 22
M  V30 22 1 22 23
M  V30 23 2 23 24
M  V30 24 1 24 25
M  V30 25 1 25 26
M  V30 26 2 26 27
M  V30 27 1 26 28
M  V30 28 1 28 29
M  V30 29 2 29 30
M  V30 30 2 7 31
M  V30 31 1 31 3
M  V30 32 1 30 15
M  V30 33 1 24 18
M  V30 34 1 30 25
M  V30 35 1 1 32
M  V30 36 1 1 33
M  V30 37 1 1 34
M  V30 38 1 4 35
M  V30 39 1 5 36
M  V30 40 1 6 37
M  V30 41 1 8 38
M  V30 42 1 8 39
M  V30 43 1 11 40
M  V30 44 1 12 41
M  V30 45 1 12 42
M  V30 46 1 13 43
M  V30 47 1 13 44
M  V30 48 1 14 45
M  V30 49 1 14 46
M  V30 50 1 19 47
M  V30 51 1 22 48
M  V30 52 1 23 49
M  V30 53 1 28 50
M  V30 54 1 31 51
M  V30 END BOND
M  V30 END CTAB
M  END
>  <Dataset>  (616) 
ChEMBL_Kinases

>  <Ligand_Instance>  (616) 
nan

>  <PDB_ID>  (616) 
nan

>  <Standardized_SMILES>  (616) 
COc1cccc(CC(=O)NCCCn2c(=O)c3cc(F)ccc3n3c(=S)[nH]nc23)c1

>  <Name>  (616) 
nan

>  <Pocket>  (616) 
nan

>  <ATP_Site>  (616) 
nan

>  <Peripheral>  (616) 
nan

>  <Num_H_Atoms_ProtBoundConf>  (616) 
nan

>  <Num_Resolved_Atoms>  (616) 
nan

>  <Num_Not_Resolved_Atoms>  (616) 
nan

$$$$
CHEMBL4207587
     RDKit          3D

  0  0  0  0  0  0  0  0  0  0999 V3000
M  V30 BEGIN CTAB
M  V30 COUNTS 44 47 0 0 0
M  V30 BEGIN ATOM
M  V30 1 O -2.821302 -3.772000 2.800447 0
M  V30 2 C -1.685041 -4.074019 2.384031 0
M  V30 3 N -1.044958 -5.294443 2.719948 0
M  V30 4 C -0.008303 -5.807146 1.878160 0
M  V30 5 C 0.982068 -4.787422 1.409223 0
M  V30 6 C 0.275678 -3.520308 1.081633 0
M  V30 7 C 0.949184 -2.638660 0.258606 0
M  V30 8 C 0.431930 -1.412783 -0.143102 0
M  V30 9 C -0.844045 -1.062403 0.318419 0
M  V30 10 C -1.358618 0.231282 -0.121445 0
M  V30 11 N -0.467218 1.227580 -0.038150 0
M  V30 12 C -0.703277 2.504529 -0.383225 0
M  V30 13 N 0.280009 3.523080 -0.274434 0
M  V30 14 C 1.604318 3.279287 0.213364 0
M  V30 15 C 1.593395 2.768156 1.614906 0
M  V30 16 C 2.175713 1.420048 1.836308 0
M  V30 17 O 3.134678 0.996669 0.963816 0
M  V30 18 C 3.617284 1.956482 0.111706 0
M  V30 19 C 2.416141 2.406207 -0.733443 0
M  V30 20 N -1.939162 2.753510 -0.840493 0
M  V30 21 C -2.890205 1.809230 -0.954235 0
M  V30 22 C -2.625067 0.504409 -0.593785 0
M  V30 23 Cl -3.726808 -0.854612 -0.669992 0
M  V30 24 C -1.529480 -1.934524 1.142358 0
M  V30 25 C -0.980593 -3.143192 1.518553 0
M  V30 26 H -1.357842 -5.790739 3.590365 0
M  V30 27 H -0.396861 -6.345527 0.986355 0
M  V30 28 H 0.580068 -6.542251 2.501751 0
M  V30 29 H 1.737969 -4.620705 2.222772 0
M  V30 30 H 1.490837 -5.124433 0.491052 0
M  V30 31 H 1.934615 -2.872130 -0.117994 0
M  V30 32 H 0.998495 -0.756994 -0.788812 0
M  V30 33 H -0.007039 4.497379 -0.574816 0
M  V30 34 H 2.177066 4.255885 0.222139 0
M  V30 35 H 2.085963 3.502419 2.317105 0
M  V30 36 H 0.530216 2.760744 1.965789 0
M  V30 37 H 2.665397 1.421079 2.858036 0
M  V30 38 H 1.383611 0.621152 1.957777 0
M  V30 39 H 4.447122 1.581268 -0.487787 0
M  V30 40 H 3.995148 2.816512 0.729256 0
M  V30 41 H 1.883515 1.520787 -1.073280 0
M  V30 42 H 2.822032 2.992449 -1.588545 0
M  V30 43 H -3.898146 1.981331 -1.320679 0
M  V30 44 H -2.510601 -1.648002 1.487926 0
M  V30 END ATOM
M  V30 BEGIN BOND
M  V30 1 2 1 2
M  V30 2 1 2 3
M  V30 3 1 3 4
M  V30 4 1 4 5
M  V30 5 1 5 6
M  V30 6 2 6 7
M  V30 7 1 7 8
M  V30 8 2 8 9
M  V30 9 1 9 10
M  V30 10 2 10 11
M  V30 11 1 11 12
M  V30 12 1 12 13
M  V30 13 1 13 14
M  V30 14 1 14 15
M  V30 15 1 15 16
M  V30 16 1 16 17
M  V30 17 1 17 18
M  V30 18 1 18 19
M  V30 19 2 12 20
M  V30 20 1 20 21
M  V30 21 2 21 22
M  V30 22 1 22 23
M  V30 23 1 9 24
M  V30 24 2 24 25
M  V30 25 1 25 2
M  V30 26 1 25 6
M  V30 27 1 22 10
M  V30 28 1 19 14
M  V30 29 1 3 26
M  V30 30 1 4 27
M  V30 31 1 4 28
M  V30 32 1 5 29
M  V30 33 1 5 30
M  V30 34 1 7 31
M  V30 35 1 8 32
M  V30 36 1 13 33
M  V30 37 1 14 34
M  V30 38 1 15 35
M  V30 39 1 15 36
M  V30 40 1 16 37
M  V30 41 1 16 38
M  V30 42 1 18 39
M  V30 43 1 18 40
M  V30 44 1 19 41
M  V30 45 1 19 42
M  V30 46 1 21 43
M  V30 47 1 24 44
M  V30 END BOND
M  V30 END CTAB
M  END
>  <Dataset>  (617) 
ChEMBL_Kinases

>  <Ligand_Instance>  (617) 
nan

>  <PDB_ID>  (617) 
nan

>  <Standardized_SMILES>  (617) 
O=C1NCCc2ccc(-c3nc(NC4CCOCC4)ncc3Cl)cc21

>  <Name>  (617) 
nan

>  <Pocket>  (617) 
nan

>  <ATP_Site>  (617) 
nan

>  <Peripheral>  (617) 
nan

>  <Num_H_Atoms_ProtBoundConf>  (617) 
nan

>  <Num_Resolved_Atoms>  (617) 
nan

>  <Num_Not_Resolved_Atoms>  (617) 
nan

$$$$
CHEMBL4208025
     RDKit          3D

  0  0  0  0  0  0  0  0  0  0999 V3000
M  V30 BEGIN CTAB
M  V30 COUNTS 51 55 0 0 0
M  V30 BEGIN ATOM
M  V30 1 F 2.010480 -4.963746 4.952599 0
M  V30 2 C 1.060675 -4.479295 4.127776 0
M  V30 3 C -0.103122 -5.176802 3.926164 0
M  V30 4 C -1.045286 -4.638248 3.066399 0
M  V30 5 C -0.845940 -3.442696 2.422326 0
M  V30 6 C 0.343458 -2.745778 2.638257 0
M  V30 7 N 0.580110 -1.512993 1.993562 0
M  V30 8 C 1.557988 -0.645791 2.309176 0
M  V30 9 N 1.546445 0.447114 1.548583 0
M  V30 10 C 0.538842 0.367901 0.659815 0
M  V30 11 C -0.078943 1.090211 -0.400535 0
M  V30 12 N 0.718881 2.249854 -0.475708 0
M  V30 13 C 1.510112 3.403546 -0.552632 0
M  V30 14 C 2.755402 3.219160 0.308580 0
M  V30 15 C 2.845426 3.708955 1.597306 0
M  V30 16 C 4.013347 3.418961 2.248515 0
M  V30 17 C 5.099162 2.708719 1.784753 0
M  V30 18 C 4.950355 2.236527 0.468439 0
M  V30 19 C 3.802306 2.488681 -0.248083 0
M  V30 20 F 3.694216 2.019688 -1.519054 0
M  V30 21 N -1.134257 0.601419 -1.043018 0
M  V30 22 C -1.648081 -0.591324 -0.706267 0
M  V30 23 N -2.773607 -1.130593 -1.367599 0
M  V30 24 C -4.212631 -0.891719 -1.261107 0
M  V30 25 C -4.824568 -2.216753 -0.763330 0
M  V30 26 O -4.505810 -3.268971 -1.583914 0
M  V30 27 C -3.152748 -3.433904 -1.809586 0
M  V30 28 C -2.558163 -2.158078 -2.392581 0
M  V30 29 N -1.088686 -1.289142 0.284615 0
M  V30 30 C -0.027714 -0.877080 0.986575 0
M  V30 31 C 1.308091 -3.260992 3.495729 0
M  V30 32 H -0.268969 -6.117501 4.429179 0
M  V30 33 H -1.939973 -5.228595 2.954737 0
M  V30 34 H -1.625305 -3.065260 1.764371 0
M  V30 35 H 2.335999 -0.671695 3.058618 0
M  V30 36 H 0.083123 2.670359 -1.227101 0
M  V30 37 H 0.992056 4.316944 -0.165600 0
M  V30 38 H 1.927882 3.651491 -1.534195 0
M  V30 39 H 2.028624 4.271925 2.018358 0
M  V30 40 H 4.149851 3.773270 3.278834 0
M  V30 41 H 5.975986 2.522757 2.353151 0
M  V30 42 H 5.733128 1.665694 -0.005287 0
M  V30 43 H -4.445932 -0.127347 -0.513372 0
M  V30 44 H -4.625707 -0.680502 -2.244056 0
M  V30 45 H -4.490872 -2.335586 0.289874 0
M  V30 46 H -5.914787 -2.073374 -0.744250 0
M  V30 47 H -2.593315 -3.721905 -0.903970 0
M  V30 48 H -3.037763 -4.251424 -2.549500 0
M  V30 49 H -1.479934 -2.304621 -2.601258 0
M  V30 50 H -3.141486 -1.932859 -3.307237 0
M  V30 51 H 2.249360 -2.725310 3.677609 0
M  V30 END ATOM
M  V30 BEGIN BOND
M  V30 1 1 1 2
M  V30 2 2 2 3
M  V30 3 1 3 4
M  V30 4 2 4 5
M  V30 5 1 5 6
M  V30 6 1 6 7
M  V30 7 1 7 8
M  V30 8 2 8 9
M  V30 9 1 9 10
M  V30 10 2 10 11
M  V30 11 1 11 12
M  V30 12 1 12 13
M  V30 13 1 13 14
M  V30 14 2 14 15
M  V30 15 1 15 16
M  V30 16 2 16 17
M  V30 17 1 17 18
M  V30 18 2 18 19
M  V30 19 1 19 20
M  V30 20 1 11 21
M  V30 21 2 21 22
M  V30 22 1 22 23
M  V30 23 1 23 24
M  V30 24 1 24 25
M  V30 25 1 25 26
M  V30 26 1 26 27
M  V30 27 1 27 28
M  V30 28 1 22 29
M  V30 29 2 29 30
M  V30 30 2 6 31
M  V30 31 1 31 2
M  V30 32 1 30 7
M  V30 33 1 30 10
M  V30 34 1 19 14
M  V30 35 1 28 23
M  V30 36 1 3 32
M  V30 37 1 4 33
M  V30 38 1 5 34
M  V30 39 1 8 35
M  V30 40 1 12 36
M  V30 41 1 13 37
M  V30 42 1 13 38
M  V30 43 1 15 39
M  V30 44 1 16 40
M  V30 45 1 17 41
M  V30 46 1 18 42
M  V30 47 1 24 43
M  V30 48 1 24 44
M  V30 49 1 25 45
M  V30 50 1 25 46
M  V30 51 1 27 47
M  V30 52 1 27 48
M  V30 53 1 28 49
M  V30 54 1 28 50
M  V30 55 1 31 51
M  V30 END BOND
M  V30 END CTAB
M  END
>  <Dataset>  (618) 
ChEMBL_Kinases

>  <Ligand_Instance>  (618) 
nan

>  <PDB_ID>  (618) 
nan

>  <Standardized_SMILES>  (618) 
Fc1cccc(-n2cnc3c(NCc4ccccc4F)nc(N4CCOCC4)nc32)c1

>  <Name>  (618) 
nan

>  <Pocket>  (618) 
nan

>  <ATP_Site>  (618) 
nan

>  <Peripheral>  (618) 
nan

>  <Num_H_Atoms_ProtBoundConf>  (618) 
nan

>  <Num_Resolved_Atoms>  (618) 
nan

>  <Num_Not_Resolved_Atoms>  (618) 
nan

$$$$
CHEMBL4208018
     RDKit          3D

  0  0  0  0  0  0  0  0  0  0999 V3000
M  V30 BEGIN CTAB
M  V30 COUNTS 70 74 0 0 0
M  V30 BEGIN ATOM
M  V30 1 C 5.751443 -0.043224 2.129666 0
M  V30 2 C 5.616692 -1.433298 1.602896 0
M  V30 3 N 4.755382 -2.312111 2.321436 0
M  V30 4 C 5.269686 -2.696965 3.602604 0
M  V30 5 C 5.338634 -1.649989 4.649687 0
M  V30 6 C 4.426485 -3.500763 1.597660 0 CFG=1
M  V30 7 C 3.463813 -4.327633 2.418652 0
M  V30 8 C 3.829486 -3.285589 0.245543 0
M  V30 9 N 2.586473 -2.518645 0.315041 0
M  V30 10 C 1.900543 -2.224063 -0.897326 0
M  V30 11 O 2.325143 -2.596911 -1.998728 0
M  V30 12 C 0.646773 -1.451485 -0.837339 0
M  V30 13 C 0.046585 -1.048091 0.310468 0
M  V30 14 C -1.121660 -0.322626 0.353938 0
M  V30 15 C -1.696983 0.044971 1.642265 0
M  V30 16 C -1.119437 -0.254951 2.881818 0
M  V30 17 N -1.940270 0.225008 3.827332 0
M  V30 18 N -2.981717 0.799054 3.257085 0
M  V30 19 C -4.112599 1.438217 3.702952 0
M  V30 20 C -5.046344 1.940851 2.823561 0
M  V30 21 C -4.861950 1.812341 1.484941 0
M  V30 22 C -5.776716 2.304869 0.476118 0
M  V30 23 C -7.006036 2.974176 0.791629 0
M  V30 24 C -7.785716 3.392466 -0.224088 0
M  V30 25 C -7.366995 3.157088 -1.603659 0
M  V30 26 S -5.709255 2.257706 -1.280974 0
M  V30 27 N -3.758722 1.188167 0.994402 0
M  V30 28 C -2.876231 0.713745 1.914020 0
M  V30 29 N -1.699011 0.003170 -0.814232 0
M  V30 30 C -1.165758 -0.360854 -2.014950 0
M  V30 31 N -1.754700 -0.016668 -3.257639 0
M  V30 32 C -1.415015 -0.549759 -4.582869 0
M  V30 33 C -2.791795 -1.141738 -4.948048 0
M  V30 34 C -3.740260 -0.055366 -4.431852 0 CFG=1
M  V30 35 O -4.622187 -0.561660 -3.483326 0
M  V30 36 C -2.792780 0.898346 -3.686658 0
M  V30 37 C 0.000489 -1.083515 -1.997867 0
M  V30 38 H 6.143034 0.577184 1.264634 0
M  V30 39 H 6.414335 0.102203 2.982753 0
M  V30 40 H 4.720078 0.332336 2.370727 0
M  V30 41 H 6.653974 -1.884204 1.664281 0
M  V30 42 H 5.330015 -1.349851 0.529723 0
M  V30 43 H 6.317970 -3.129390 3.481008 0
M  V30 44 H 4.705276 -3.559028 4.040294 0
M  V30 45 H 4.981527 -2.040488 5.658356 0
M  V30 46 H 6.402285 -1.326216 4.826520 0
M  V30 47 H 4.752329 -0.749228 4.458736 0
M  V30 48 H 5.359010 -4.112873 1.432974 0
M  V30 49 H 3.986246 -5.122636 2.986408 0
M  V30 50 H 2.881696 -3.733223 3.155334 0
M  V30 51 H 2.712187 -4.820198 1.758817 0
M  V30 52 H 3.594037 -4.322169 -0.147048 0
M  V30 53 H 4.489101 -2.848175 -0.503865 0
M  V30 54 H 2.276369 -2.228724 1.266987 0
M  V30 55 H 0.494297 -1.299534 1.260887 0
M  V30 56 H -0.207417 -0.765279 3.102132 0
M  V30 57 H -4.258606 1.538089 4.748745 0
M  V30 58 H -5.952373 2.451155 3.161277 0
M  V30 59 H -7.322124 3.149167 1.808238 0
M  V30 60 H -8.733033 3.904433 -0.170450 0
M  V30 61 H -7.767713 3.370430 -2.496549 0
M  V30 62 H -1.146287 0.244163 -5.277947 0
M  V30 63 H -0.665866 -1.335417 -4.567592 0
M  V30 64 H -2.944831 -2.045335 -4.334179 0
M  V30 65 H -2.821543 -1.273875 -6.026807 0
M  V30 66 H -4.221162 0.433687 -5.280763 0
M  V30 67 H -5.520555 -0.141686 -3.585115 0
M  V30 68 H -2.364222 1.627221 -4.417880 0
M  V30 69 H -3.314843 1.420856 -2.886425 0
M  V30 70 H 0.493088 -1.411986 -2.929871 0
M  V30 END ATOM
M  V30 BEGIN BOND
M  V30 1 1 1 2
M  V30 2 1 2 3
M  V30 3 1 3 4
M  V30 4 1 4 5
M  V30 5 1 3 6
M  V30 6 1 6 7
M  V30 7 1 6 8
M  V30 8 1 8 9
M  V30 9 1 9 10
M  V30 10 2 10 11
M  V30 11 1 10 12
M  V30 12 2 12 13
M  V30 13 1 13 14
M  V30 14 1 14 15
M  V30 15 1 15 16
M  V30 16 2 16 17
M  V30 17 1 17 18
M  V30 18 1 18 19
M  V30 19 2 19 20
M  V30 20 1 20 21
M  V30 21 1 21 22
M  V30 22 2 22 23
M  V30 23 1 23 24
M  V30 24 2 24 25
M  V30 25 1 25 26
M  V30 26 2 21 27
M  V30 27 1 27 28
M  V30 28 2 14 29
M  V30 29 1 29 30
M  V30 30 1 30 31
M  V30 31 1 31 32
M  V30 32 1 32 33
M  V30 33 1 33 34
M  V30 34 1 34 35
M  V30 35 1 34 36
M  V30 36 2 30 37
M  V30 37 1 37 12
M  V30 38 2 28 15
M  V30 39 1 36 31
M  V30 40 1 28 18
M  V30 41 1 26 22
M  V30 42 1 1 38
M  V30 43 1 1 39
M  V30 44 1 1 40
M  V30 45 1 2 41
M  V30 46 1 2 42
M  V30 47 1 4 43
M  V30 48 1 4 44
M  V30 49 1 5 45
M  V30 50 1 5 46
M  V30 51 1 5 47
M  V30 52 1 6 48 CFG=3
M  V30 53 1 7 49
M  V30 54 1 7 50
M  V30 55 1 7 51
M  V30 56 1 8 52
M  V30 57 1 8 53
M  V30 58 1 9 54
M  V30 59 1 13 55
M  V30 60 1 16 56
M  V30 61 1 19 57
M  V30 62 1 20 58
M  V30 63 1 23 59
M  V30 64 1 24 60
M  V30 65 1 25 61
M  V30 66 1 32 62
M  V30 67 1 32 63
M  V30 68 1 33 64
M  V30 69 1 33 65
M  V30 70 1 34 66 CFG=3
M  V30 71 1 35 67
M  V30 72 1 36 68
M  V30 73 1 36 69
M  V30 74 1 37 70
M  V30 END BOND
M  V30 END CTAB
M  END
>  <Dataset>  (619) 
ChEMBL_Kinases

>  <Ligand_Instance>  (619) 
nan

>  <PDB_ID>  (619) 
nan

>  <Standardized_SMILES>  (619) 
CCN(CC)[C@@H](C)CNC(=O)c1cc(-c2cnn3ccc(-c4cccs4)nc23)nc(N2CC[C@@H](O)C2)c1

>  <Name>  (619) 
nan

>  <Pocket>  (619) 
nan

>  <ATP_Site>  (619) 
nan

>  <Peripheral>  (619) 
nan

>  <Num_H_Atoms_ProtBoundConf>  (619) 
nan

>  <Num_Resolved_Atoms>  (619) 
nan

>  <Num_Not_Resolved_Atoms>  (619) 
nan

$$$$
CHEMBL4782801
     RDKit          3D

  0  0  0  0  0  0  0  0  0  0999 V3000
M  V30 BEGIN CTAB
M  V30 COUNTS 57 59 0 0 0
M  V30 BEGIN ATOM
M  V30 1 C 6.470104 -0.882110 2.414189 0
M  V30 2 C 5.639024 -0.410059 1.214948 0
M  V30 3 C 6.511751 -0.615610 0.002195 0
M  V30 4 O 4.515522 -1.215397 1.087469 0
M  V30 5 C 5.272270 1.037116 1.381355 0
M  V30 6 C 4.457689 1.607585 0.264735 0
M  V30 7 N 3.191683 0.927073 0.077215 0
M  V30 8 C 2.082725 1.333737 0.729518 0
M  V30 9 C 0.992728 0.543544 0.400459 0
M  V30 10 C -0.345899 0.414571 0.682358 0
M  V30 11 C -1.125046 -0.572591 0.102783 0
M  V30 12 N -2.498685 -0.605902 0.468894 0
M  V30 13 C -3.343813 -1.188766 1.444101 0
M  V30 14 O -2.832747 -1.946874 2.336187 0
M  V30 15 C -4.749554 -0.839174 1.306208 0
M  V30 16 C -5.556253 -1.417034 2.267796 0
M  V30 17 C -6.926730 -1.219675 2.325400 0
M  V30 18 C -7.507082 -0.410031 1.379284 0
M  V30 19 C -6.640770 0.134539 0.448229 0
M  V30 20 C -7.228277 1.016989 -0.593800 0
M  V30 21 F -6.415486 2.037009 -0.983259 0
M  V30 22 F -8.465013 1.515980 -0.189011 0
M  V30 23 F -7.507299 0.190967 -1.691121 0
M  V30 24 N -5.307025 -0.052273 0.385122 0
M  V30 25 C -0.590897 -1.478345 -0.790064 0
M  V30 26 C -1.424125 -2.538213 -1.412653 0
M  V30 27 C -0.563368 -3.307443 -2.402713 0
M  V30 28 C -1.850523 -3.532909 -0.359946 0
M  V30 29 O -2.485248 -2.028857 -2.157114 0
M  V30 30 C 0.753818 -1.365951 -1.087281 0
M  V30 31 C 1.518569 -0.377920 -0.502911 0
M  V30 32 N 2.821794 -0.101571 -0.654462 0
M  V30 33 H 6.554982 -1.982193 2.387342 0
M  V30 34 H 7.474501 -0.439357 2.273776 0
M  V30 35 H 5.983807 -0.600693 3.362563 0
M  V30 36 H 6.827855 -1.685225 0.012585 0
M  V30 37 H 7.422836 0.000159 0.157323 0
M  V30 38 H 6.010820 -0.359463 -0.950996 0
M  V30 39 H 4.501929 -1.887615 1.806517 0
M  V30 40 H 4.773840 1.190010 2.365761 0
M  V30 41 H 6.213598 1.638105 1.421360 0
M  V30 42 H 5.089413 1.556385 -0.655918 0
M  V30 43 H 4.316907 2.682234 0.467656 0
M  V30 44 H 1.980235 2.153738 1.427784 0
M  V30 45 H -0.739260 1.135320 1.383696 0
M  V30 46 H -2.852732 0.034738 -0.302720 0
M  V30 47 H -5.186227 -2.070459 3.054445 0
M  V30 48 H -7.559084 -1.665566 3.069770 0
M  V30 49 H -8.563856 -0.195995 1.341028 0
M  V30 50 H -1.250307 -4.008403 -2.920475 0
M  V30 51 H 0.194414 -3.933267 -1.883003 0
M  V30 52 H -0.123216 -2.662209 -3.187471 0
M  V30 53 H -2.940340 -3.553730 -0.180034 0
M  V30 54 H -1.265937 -3.373882 0.588956 0
M  V30 55 H -1.592831 -4.595713 -0.635518 0
M  V30 56 H -3.295051 -2.492869 -1.826912 0
M  V30 57 H 1.221882 -2.050206 -1.780538 0
M  V30 END ATOM
M  V30 BEGIN BOND
M  V30 1 1 1 2
M  V30 2 1 2 3
M  V30 3 1 2 4
M  V30 4 1 2 5
M  V30 5 1 5 6
M  V30 6 1 6 7
M  V30 7 1 7 8
M  V30 8 2 8 9
M  V30 9 1 9 10
M  V30 10 2 10 11
M  V30 11 1 11 12
M  V30 12 1 12 13
M  V30 13 2 13 14
M  V30 14 1 13 15
M  V30 15 2 15 16
M  V30 16 1 16 17
M  V30 17 2 17 18
M  V30 18 1 18 19
M  V30 19 1 19 20
M  V30 20 1 20 21
M  V30 21 1 20 22
M  V30 22 1 20 23
M  V30 23 2 19 24
M  V30 24 1 11 25
M  V30 25 1 25 26
M  V30 26 1 26 27
M  V30 27 1 26 28
M  V30 28 1 26 29
M  V30 29 2 25 30
M  V30 30 1 30 31
M  V30 31 2 31 32
M  V30 32 1 32 7
M  V30 33 1 31 9
M  V30 34 1 24 15
M  V30 35 1 1 33
M  V30 36 1 1 34
M  V30 37 1 1 35
M  V30 38 1 3 36
M  V30 39 1 3 37
M  V30 40 1 3 38
M  V30 41 1 4 39
M  V30 42 1 5 40
M  V30 43 1 5 41
M  V30 44 1 6 42
M  V30 45 1 6 43
M  V30 46 1 8 44
M  V30 47 1 10 45
M  V30 48 1 12 46
M  V30 49 1 16 47
M  V30 50 1 17 48
M  V30 51 1 18 49
M  V30 52 1 27 50
M  V30 53 1 27 51
M  V30 54 1 27 52
M  V30 55 1 28 53
M  V30 56 1 28 54
M  V30 57 1 28 55
M  V30 58 1 29 56
M  V30 59 1 30 57
M  V30 END BOND
M  V30 END CTAB
M  END
>  <Dataset>  (620) 
ChEMBL_Kinases

>  <Ligand_Instance>  (620) 
nan

>  <PDB_ID>  (620) 
nan

>  <Standardized_SMILES>  (620) 
CC(C)(O)CCn1cc2cc(NC(=O)c3cccc(C(F)(F)F)n3)c(C(C)(C)O)cc2n1

>  <Name>  (620) 
nan

>  <Pocket>  (620) 
nan

>  <ATP_Site>  (620) 
nan

>  <Peripheral>  (620) 
nan

>  <Num_H_Atoms_ProtBoundConf>  (620) 
nan

>  <Num_Resolved_Atoms>  (620) 
nan

>  <Num_Not_Resolved_Atoms>  (620) 
nan

$$$$
CHEMBL4782829
     RDKit          3D

  0  0  0  0  0  0  0  0  0  0999 V3000
M  V30 BEGIN CTAB
M  V30 COUNTS 44 47 0 0 0
M  V30 BEGIN ATOM
M  V30 1 C -0.086698 -6.037428 1.975238 0
M  V30 2 O 0.445566 -4.770098 2.366218 0
M  V30 3 C -0.343638 -3.639212 2.191819 0
M  V30 4 C 0.252817 -2.465278 2.596816 0
M  V30 5 C -0.466743 -1.291331 2.457047 0
M  V30 6 C -1.756898 -1.284193 1.923947 0
M  V30 7 C -2.418629 0.010056 1.824348 0
M  V30 8 N -3.657278 0.442579 2.122234 0
M  V30 9 N -3.771495 1.736227 1.844603 0
M  V30 10 C -2.597437 2.218786 1.345059 0
M  V30 11 C -2.161015 3.453730 0.902496 0
M  V30 12 N -0.884361 3.594382 0.452754 0
M  V30 13 C -0.054578 2.518220 0.444564 0
M  V30 14 N 1.287198 2.655295 -0.025527 0
M  V30 15 C 2.243214 1.570636 -0.072723 0 CFG=2
M  V30 16 C 3.577132 1.987588 -0.608538 0
M  V30 17 C 4.229240 0.610961 -0.800534 0
M  V30 18 C 3.101704 -0.210326 -1.386506 0 CFG=1
M  V30 19 N 3.074656 -1.574133 -0.909519 0
M  V30 20 C 1.820375 0.456747 -0.969581 0
M  V30 21 N -0.495465 1.327312 0.877865 0
M  V30 22 C -1.753721 1.127206 1.336088 0
M  V30 23 C -2.343155 -2.479305 1.520319 0
M  V30 24 C -1.617493 -3.646662 1.663501 0
M  V30 25 H -0.958187 -6.231385 2.648536 0
M  V30 26 H 0.683198 -6.822420 2.065625 0
M  V30 27 H -0.395546 -5.990126 0.902823 0
M  V30 28 H 1.240212 -2.407396 3.013347 0
M  V30 29 H -0.014097 -0.360570 2.769767 0
M  V30 30 H -4.596876 2.356323 1.962338 0
M  V30 31 H -2.835501 4.297640 0.916659 0
M  V30 32 H 1.617714 3.573147 -0.356478 0
M  V30 33 H 2.381446 1.217683 0.975018 0
M  V30 34 H 4.165040 2.600934 0.111010 0
M  V30 35 H 3.476172 2.451697 -1.607857 0
M  V30 36 H 5.116895 0.666031 -1.469978 0
M  V30 37 H 4.454997 0.196898 0.198532 0
M  V30 38 H 3.223613 -0.193312 -2.505501 0
M  V30 39 H 2.320836 -1.759851 -0.207909 0
M  V30 40 H 2.799396 -2.180107 -1.740098 0
M  V30 41 H 1.118285 -0.252480 -0.473025 0
M  V30 42 H 1.349115 0.908496 -1.871780 0
M  V30 43 H -3.339568 -2.457776 1.110749 0
M  V30 44 H -2.032556 -4.596007 1.363823 0
M  V30 END ATOM
M  V30 BEGIN BOND
M  V30 1 1 1 2
M  V30 2 1 2 3
M  V30 3 2 3 4
M  V30 4 1 4 5
M  V30 5 2 5 6
M  V30 6 1 6 7
M  V30 7 2 7 8
M  V30 8 1 8 9
M  V30 9 1 9 10
M  V30 10 2 10 11
M  V30 11 1 11 12
M  V30 12 2 12 13
M  V30 13 1 13 14
M  V30 14 1 14 15
M  V30 15 1 15 16
M  V30 16 1 16 17
M  V30 17 1 17 18
M  V30 18 1 18 19
M  V30 19 1 18 20
M  V30 20 1 13 21
M  V30 21 2 21 22
M  V30 22 1 6 23
M  V30 23 2 23 24
M  V30 24 1 24 3
M  V30 25 1 22 7
M  V30 26 1 22 10
M  V30 27 1 20 15
M  V30 28 1 1 25
M  V30 29 1 1 26
M  V30 30 1 1 27
M  V30 31 1 4 28
M  V30 32 1 5 29
M  V30 33 1 9 30
M  V30 34 1 11 31
M  V30 35 1 14 32
M  V30 36 1 15 33 CFG=1
M  V30 37 1 16 34
M  V30 38 1 16 35
M  V30 39 1 17 36
M  V30 40 1 17 37
M  V30 41 1 18 38 CFG=3
M  V30 42 1 19 39
M  V30 43 1 19 40
M  V30 44 1 20 41
M  V30 45 1 20 42
M  V30 46 1 23 43
M  V30 47 1 24 44
M  V30 END BOND
M  V30 END CTAB
M  END
>  <Dataset>  (621) 
ChEMBL_Kinases

>  <Ligand_Instance>  (621) 
nan

>  <PDB_ID>  (621) 
nan

>  <Standardized_SMILES>  (621) 
COc1ccc(-c2n[nH]c3cnc(N[C@@H]4CC[C@@H](N)C4)nc23)cc1

>  <Name>  (621) 
nan

>  <Pocket>  (621) 
nan

>  <ATP_Site>  (621) 
nan

>  <Peripheral>  (621) 
nan

>  <Num_H_Atoms_ProtBoundConf>  (621) 
nan

>  <Num_Resolved_Atoms>  (621) 
nan

>  <Num_Not_Resolved_Atoms>  (621) 
nan

$$$$
CHEMBL4782872
     RDKit          3D

  0  0  0  0  0  0  0  0  0  0999 V3000
M  V30 BEGIN CTAB
M  V30 COUNTS 49 52 0 0 0
M  V30 BEGIN ATOM
M  V30 1 N -0.259384 -5.487379 3.137936 0
M  V30 2 C 0.391289 -4.369475 2.507239 0
M  V30 3 N 1.752296 -4.270217 2.571893 0
M  V30 4 C 2.362220 -3.211554 1.972728 0
M  V30 5 C 1.644001 -2.240500 1.304980 0
M  V30 6 C 2.296141 -1.091937 0.656076 0
M  V30 7 C 3.569558 -1.153732 0.087962 0
M  V30 8 N 3.796243 0.081897 -0.392762 0
M  V30 9 N 2.786208 0.892059 -0.173939 0
M  V30 10 C 2.565413 2.282351 -0.496203 0
M  V30 11 C 3.485006 2.748986 -1.598601 0
M  V30 12 C 3.377726 4.262217 -1.604922 0
M  V30 13 N 2.137594 4.738311 -1.048472 0
M  V30 14 C 1.983373 4.470256 0.363422 0
M  V30 15 C 2.801657 3.212891 0.675255 0
M  V30 16 C 1.830014 0.192225 0.479846 0
M  V30 17 C 0.257106 -2.314043 1.221893 0
M  V30 18 C -0.318618 -3.382211 1.830064 0
M  V30 19 C -1.767621 -3.566162 1.810413 0
M  V30 20 O -2.336726 -4.538103 2.361590 0
M  V30 21 N -2.652181 -2.660205 1.165505 0
M  V30 22 C -4.069556 -2.772213 1.104167 0
M  V30 23 C -4.799641 -2.178200 2.111298 0
M  V30 24 C -6.182382 -2.281040 2.059346 0
M  V30 25 C -6.737943 -2.977451 0.993111 0
M  V30 26 C -5.984760 -3.567077 -0.008681 0
M  V30 27 C -4.622159 -3.464057 0.045211 0
M  V30 28 H -0.302946 -5.332957 4.171423 0
M  V30 29 H -0.684652 -6.392060 2.796896 0
M  V30 30 H 3.446699 -3.130363 2.023017 0
M  V30 31 H 4.190356 -2.037988 0.071464 0
M  V30 32 H 1.524567 2.452001 -0.891140 0
M  V30 33 H 4.523757 2.396195 -1.470166 0
M  V30 34 H 3.166725 2.406827 -2.607409 0
M  V30 35 H 3.433779 4.669771 -2.637238 0
M  V30 36 H 4.190703 4.724082 -1.041392 0
M  V30 37 H 1.296859 4.446987 -1.584449 0
M  V30 38 H 2.314525 5.270168 1.024565 0
M  V30 39 H 0.908017 4.243031 0.545616 0
M  V30 40 H 2.562310 2.782782 1.651552 0
M  V30 41 H 3.862830 3.546630 0.717263 0
M  V30 42 H 0.860781 0.443024 0.850739 0
M  V30 43 H -0.274286 -1.553891 0.701392 0
M  V30 44 H -2.285866 -1.816918 0.675418 0
M  V30 45 H -4.359786 -1.639771 2.934315 0
M  V30 46 H -6.863049 -1.860751 2.786257 0
M  V30 47 H -7.819801 -3.067423 0.936140 0
M  V30 48 H -6.436628 -4.104635 -0.828075 0
M  V30 49 H -3.966867 -3.907827 -0.716948 0
M  V30 END ATOM
M  V30 BEGIN BOND
M  V30 1 1 1 2
M  V30 2 2 2 3
M  V30 3 1 3 4
M  V30 4 2 4 5
M  V30 5 1 5 6
M  V30 6 1 6 7
M  V30 7 2 7 8
M  V30 8 1 8 9
M  V30 9 1 9 10
M  V30 10 1 10 11
M  V30 11 1 11 12
M  V30 12 1 12 13
M  V30 13 1 13 14
M  V30 14 1 14 15
M  V30 15 1 9 16
M  V30 16 1 5 17
M  V30 17 2 17 18
M  V30 18 1 18 19
M  V30 19 2 19 20
M  V30 20 1 19 21
M  V30 21 1 21 22
M  V30 22 2 22 23
M  V30 23 1 23 24
M  V30 24 2 24 25
M  V30 25 1 25 26
M  V30 26 2 26 27
M  V30 27 1 18 2
M  V30 28 1 27 22
M  V30 29 2 16 6
M  V30 30 1 15 10
M  V30 31 1 1 28
M  V30 32 1 1 29
M  V30 33 1 4 30
M  V30 34 1 7 31
M  V30 35 1 10 32
M  V30 36 1 11 33
M  V30 37 1 11 34
M  V30 38 1 12 35
M  V30 39 1 12 36
M  V30 40 1 13 37
M  V30 41 1 14 38
M  V30 42 1 14 39
M  V30 43 1 15 40
M  V30 44 1 15 41
M  V30 45 1 16 42
M  V30 46 1 17 43
M  V30 47 1 21 44
M  V30 48 1 23 45
M  V30 49 1 24 46
M  V30 50 1 25 47
M  V30 51 1 26 48
M  V30 52 1 27 49
M  V30 END BOND
M  V30 END CTAB
M  END
>  <Dataset>  (622) 
ChEMBL_Kinases

>  <Ligand_Instance>  (622) 
nan

>  <PDB_ID>  (622) 
nan

>  <Standardized_SMILES>  (622) 
Nc1ncc(-c2cnn(C3CCNCC3)c2)cc1C(=O)Nc1ccccc1

>  <Name>  (622) 
nan

>  <Pocket>  (622) 
nan

>  <ATP_Site>  (622) 
nan

>  <Peripheral>  (622) 
nan

>  <Num_H_Atoms_ProtBoundConf>  (622) 
nan

>  <Num_Resolved_Atoms>  (622) 
nan

>  <Num_Not_Resolved_Atoms>  (622) 
nan

$$$$
CHEMBL4782885
     RDKit          3D

  0  0  0  0  0  0  0  0  0  0999 V3000
M  V30 BEGIN CTAB
M  V30 COUNTS 48 52 0 0 0
M  V30 BEGIN ATOM
M  V30 1 N -0.245001 -4.585798 4.836596 0
M  V30 2 C 0.306400 -3.773374 3.789680 0
M  V30 3 N 1.641123 -3.587508 3.704907 0
M  V30 4 C 2.213340 -2.824699 2.728905 0
M  V30 5 C 1.374666 -2.220815 1.790863 0
M  V30 6 C 1.939432 -1.391893 0.722901 0
M  V30 7 C 3.016392 -1.577111 -0.119839 0
M  V30 8 N 3.114763 -0.507033 -0.931769 0
M  V30 9 N 2.134388 0.362168 -0.638307 0
M  V30 10 C 2.106877 1.577074 -1.435002 0
M  V30 11 C 3.483208 2.145499 -1.605060 0
M  V30 12 C 3.809404 3.237668 -0.625694 0
M  V30 13 N 2.751910 4.176812 -0.396837 0
M  V30 14 C 1.647434 3.415579 0.209075 0
M  V30 15 C 1.112769 2.545656 -0.875797 0
M  V30 16 C 1.412586 -0.165961 0.367541 0
M  V30 17 C 0.009628 -2.422942 1.894125 0
M  V30 18 C -1.033221 -1.956913 1.119564 0
M  V30 19 C -2.190867 -2.467046 1.673048 0
M  V30 20 C -3.543309 -2.233913 1.179201 0
M  V30 21 C -4.621514 -2.803470 1.824398 0
M  V30 22 C -5.891775 -2.568755 1.338941 0
M  V30 23 C -6.071774 -1.768771 0.215722 0
M  V30 24 C -5.003158 -1.176260 -0.462275 0
M  V30 25 F -5.187050 -0.401552 -1.551226 0
M  V30 26 C -3.759457 -1.445853 0.067750 0
M  V30 27 O -1.891258 -3.200818 2.720737 0
M  V30 28 C -0.570384 -3.200381 2.889253 0
M  V30 29 H -0.297126 -5.578592 5.099721 0
M  V30 30 H -0.765249 -4.065881 5.593807 0
M  V30 31 H 3.291907 -2.696390 2.690500 0
M  V30 32 H 3.631105 -2.473831 -0.066024 0
M  V30 33 H 1.752340 1.278301 -2.444850 0
M  V30 34 H 3.645712 2.525501 -2.636314 0
M  V30 35 H 4.212080 1.322745 -1.452353 0
M  V30 36 H 4.683288 3.784363 -1.050101 0
M  V30 37 H 4.047186 2.749735 0.345510 0
M  V30 38 H 2.375573 4.516808 -1.307450 0
M  V30 39 H 0.821515 4.086255 0.528857 0
M  V30 40 H 2.092435 2.883499 1.054880 0
M  V30 41 H 0.696247 3.233186 -1.660846 0
M  V30 42 H 0.233213 1.992350 -0.487374 0
M  V30 43 H 0.574106 0.399059 0.739149 0
M  V30 44 H -1.024827 -1.321876 0.247133 0
M  V30 45 H -4.498975 -3.425800 2.695948 0
M  V30 46 H -6.786790 -2.985177 1.796982 0
M  V30 47 H -7.084229 -1.585451 -0.166026 0
M  V30 48 H -2.921038 -0.985606 -0.457827 0
M  V30 END ATOM
M  V30 BEGIN BOND
M  V30 1 1 1 2
M  V30 2 2 2 3
M  V30 3 1 3 4
M  V30 4 2 4 5
M  V30 5 1 5 6
M  V30 6 1 6 7
M  V30 7 2 7 8
M  V30 8 1 8 9
M  V30 9 1 9 10
M  V30 10 1 10 11
M  V30 11 1 11 12
M  V30 12 1 12 13
M  V30 13 1 13 14
M  V30 14 1 14 15
M  V30 15 1 9 16
M  V30 16 1 5 17
M  V30 17 1 17 18
M  V30 18 2 18 19
M  V30 19 1 19 20
M  V30 20 2 20 21
M  V30 21 1 21 22
M  V30 22 2 22 23
M  V30 23 1 23 24
M  V30 24 1 24 25
M  V30 25 2 24 26
M  V30 26 1 19 27
M  V30 27 1 27 28
M  V30 28 1 28 2
M  V30 29 2 16 6
M  V30 30 2 28 17
M  V30 31 1 15 10
M  V30 32 1 26 20
M  V30 33 1 1 29
M  V30 34 1 1 30
M  V30 35 1 4 31
M  V30 36 1 7 32
M  V30 37 1 10 33
M  V30 38 1 11 34
M  V30 39 1 11 35
M  V30 40 1 12 36
M  V30 41 1 12 37
M  V30 42 1 13 38
M  V30 43 1 14 39
M  V30 44 1 14 40
M  V30 45 1 15 41
M  V30 46 1 15 42
M  V30 47 1 16 43
M  V30 48 1 18 44
M  V30 49 1 21 45
M  V30 50 1 22 46
M  V30 51 1 23 47
M  V30 52 1 26 48
M  V30 END BOND
M  V30 END CTAB
M  END
>  <Dataset>  (623) 
ChEMBL_Kinases

>  <Ligand_Instance>  (623) 
nan

>  <PDB_ID>  (623) 
nan

>  <Standardized_SMILES>  (623) 
Nc1ncc(-c2cnn(C3CCNCC3)c2)c2cc(-c3cccc(F)c3)oc12

>  <Name>  (623) 
nan

>  <Pocket>  (623) 
nan

>  <ATP_Site>  (623) 
nan

>  <Peripheral>  (623) 
nan

>  <Num_H_Atoms_ProtBoundConf>  (623) 
nan

>  <Num_Resolved_Atoms>  (623) 
nan

>  <Num_Not_Resolved_Atoms>  (623) 
nan

$$$$
CHEMBL4782910
     RDKit          3D

  0  0  0  0  0  0  0  0  0  0999 V3000
M  V30 BEGIN CTAB
M  V30 COUNTS 44 47 0 0 0
M  V30 BEGIN ATOM
M  V30 1 C 1.289503 -6.019966 -0.894810 0
M  V30 2 O 0.875867 -4.710832 -1.244793 0
M  V30 3 C 1.739841 -3.626164 -1.177322 0
M  V30 4 C 3.062102 -3.629476 -0.785257 0
M  V30 5 C 3.786194 -2.454523 -0.775136 0
M  V30 6 C 3.164337 -1.286457 -1.162364 0
M  V30 7 C 1.827324 -1.217913 -1.570042 0
M  V30 8 C 1.261175 0.071892 -1.965936 0 CFG=1
M  V30 9 C 0.259180 -0.050926 -3.096828 0
M  V30 10 N 0.734551 0.862451 -0.874948 0
M  V30 11 C 0.751318 2.220558 -1.016217 0
M  V30 12 N 0.297613 3.085820 -0.089084 0
M  V30 13 C -0.221864 2.663783 1.081302 0
M  V30 14 C -0.673280 3.565508 2.001641 0
M  V30 15 C -1.187863 3.024885 3.171191 0
M  V30 16 C -1.234937 1.652951 3.379551 0
M  V30 17 C -1.775083 1.084809 4.607900 0
M  V30 18 C -2.425891 -0.153136 4.688441 0
M  V30 19 N -2.804041 -0.377999 5.982511 0
M  V30 20 N -2.411901 0.667754 6.690658 0
M  V30 21 C -1.790118 1.574525 5.917262 0
M  V30 22 C -0.765453 0.773016 2.417867 0
M  V30 23 C -0.245170 1.311319 1.236345 0
M  V30 24 C 0.211971 0.421677 0.303551 0
M  V30 25 O 0.191861 -0.808619 0.442040 0
M  V30 26 C 1.146182 -2.438531 -1.559391 0
M  V30 27 H 1.917825 -6.393180 -1.748572 0
M  V30 28 H 1.913386 -5.967791 0.020109 0
M  V30 29 H 0.408583 -6.669588 -0.726879 0
M  V30 30 H 3.456177 -4.589251 -0.501909 0
M  V30 31 H 4.821974 -2.469498 -0.465678 0
M  V30 32 H 3.792200 -0.382818 -1.133415 0
M  V30 33 H 2.111131 0.669803 -2.408195 0
M  V30 34 H 0.786673 -0.423503 -3.978693 0
M  V30 35 H -0.076166 1.000223 -3.295306 0
M  V30 36 H -0.632744 -0.633426 -2.802353 0
M  V30 37 H 1.154221 2.658909 -1.933254 0
M  V30 38 H -0.639876 4.625792 1.846197 0
M  V30 39 H -1.554068 3.711933 3.921511 0
M  V30 40 H -2.641232 -0.883481 3.906105 0
M  V30 41 H -2.468781 0.957228 7.702116 0
M  V30 42 H -1.330603 2.533340 6.075286 0
M  V30 43 H -0.799954 -0.278252 2.573001 0
M  V30 44 H 0.115723 -2.343663 -1.880616 0
M  V30 END ATOM
M  V30 BEGIN BOND
M  V30 1 1 1 2
M  V30 2 1 2 3
M  V30 3 2 3 4
M  V30 4 1 4 5
M  V30 5 2 5 6
M  V30 6 1 6 7
M  V30 7 1 7 8
M  V30 8 1 8 9
M  V30 9 1 8 10
M  V30 10 1 10 11
M  V30 11 2 11 12
M  V30 12 1 12 13
M  V30 13 2 13 14
M  V30 14 1 14 15
M  V30 15 2 15 16
M  V30 16 1 16 17
M  V30 17 1 17 18
M  V30 18 2 18 19
M  V30 19 1 19 20
M  V30 20 1 20 21
M  V30 21 1 16 22
M  V30 22 2 22 23
M  V30 23 1 23 24
M  V30 24 2 24 25
M  V30 25 2 7 26
M  V30 26 1 26 3
M  V30 27 1 24 10
M  V30 28 1 23 13
M  V30 29 2 21 17
M  V30 30 1 1 27
M  V30 31 1 1 28
M  V30 32 1 1 29
M  V30 33 1 4 30
M  V30 34 1 5 31
M  V30 35 1 6 32
M  V30 36 1 8 33 CFG=3
M  V30 37 1 9 34
M  V30 38 1 9 35
M  V30 39 1 9 36
M  V30 40 1 11 37
M  V30 41 1 14 38
M  V30 42 1 15 39
M  V30 43 1 18 40
M  V30 44 1 20 41
M  V30 45 1 21 42
M  V30 46 1 22 43
M  V30 47 1 26 44
M  V30 END BOND
M  V30 END CTAB
M  END
>  <Dataset>  (624) 
ChEMBL_Kinases

>  <Ligand_Instance>  (624) 
nan

>  <PDB_ID>  (624) 
nan

>  <Standardized_SMILES>  (624) 
COc1cccc([C@@H](C)n2cnc3ccc(-c4cn[nH]c4)cc3c2=O)c1

>  <Name>  (624) 
nan

>  <Pocket>  (624) 
nan

>  <ATP_Site>  (624) 
nan

>  <Peripheral>  (624) 
nan

>  <Num_H_Atoms_ProtBoundConf>  (624) 
nan

>  <Num_Resolved_Atoms>  (624) 
nan

>  <Num_Not_Resolved_Atoms>  (624) 
nan

$$$$
CHEMBL4207793
     RDKit          3D

  0  0  0  0  0  0  0  0  0  0999 V3000
M  V30 BEGIN CTAB
M  V30 COUNTS 26 27 0 0 0
M  V30 BEGIN ATOM
M  V30 1 C -0.593504 -1.919314 4.233356 0
M  V30 2 N 0.523950 -2.727311 3.794359 0
M  V30 3 C 1.589798 -1.853977 3.340878 0
M  V30 4 C 1.076822 -1.045780 2.228678 0
M  V30 5 C 0.453501 0.194084 2.282995 0
M  V30 6 C 0.050267 0.781685 1.132075 0
M  V30 7 C 0.305035 0.064789 -0.051412 0
M  V30 8 C 0.013994 0.379824 -1.484752 0
M  V30 9 C 0.403850 -0.554014 -2.393748 0
M  V30 10 C 0.082180 -0.154644 -3.694793 0
M  V30 11 N -0.541545 1.021416 -3.997759 0
M  V30 12 C -0.876035 1.863475 -2.992139 0
M  V30 13 C -0.605569 1.570151 -1.663478 0
M  V30 14 S 1.130697 -1.457191 0.542735 0
M  V30 15 H -1.314852 -2.559890 4.773460 0
M  V30 16 H -0.215488 -1.085767 4.839596 0
M  V30 17 H -1.100073 -1.484398 3.326407 0
M  V30 18 H 0.259450 -3.317114 2.967345 0
M  V30 19 H 1.880857 -1.149056 4.144577 0
M  V30 20 H 2.430630 -2.484156 3.025855 0
M  V30 21 H 0.300927 0.668757 3.242934 0
M  V30 22 H -0.442570 1.736421 1.033100 0
M  V30 23 H 0.889568 -1.476245 -2.193153 0
M  V30 24 H 0.327608 -0.794861 -4.556220 0
M  V30 25 H -1.374537 2.796125 -3.274651 0
M  V30 26 H -0.879003 2.250062 -0.888101 0
M  V30 END ATOM
M  V30 BEGIN BOND
M  V30 1 1 1 2
M  V30 2 1 2 3
M  V30 3 1 3 4
M  V30 4 2 4 5
M  V30 5 1 5 6
M  V30 6 2 6 7
M  V30 7 1 7 8
M  V30 8 2 8 9
M  V30 9 1 9 10
M  V30 10 2 10 11
M  V30 11 1 11 12
M  V30 12 2 12 13
M  V30 13 1 7 14
M  V30 14 1 14 4
M  V30 15 1 13 8
M  V30 16 1 1 15
M  V30 17 1 1 16
M  V30 18 1 1 17
M  V30 19 1 2 18
M  V30 20 1 3 19
M  V30 21 1 3 20
M  V30 22 1 5 21
M  V30 23 1 6 22
M  V30 24 1 9 23
M  V30 25 1 10 24
M  V30 26 1 12 25
M  V30 27 1 13 26
M  V30 END BOND
M  V30 END CTAB
M  END
>  <Dataset>  (625) 
ChEMBL_Kinases

>  <Ligand_Instance>  (625) 
nan

>  <PDB_ID>  (625) 
nan

>  <Standardized_SMILES>  (625) 
CNCc1ccc(-c2ccncc2)s1

>  <Name>  (625) 
nan

>  <Pocket>  (625) 
nan

>  <ATP_Site>  (625) 
nan

>  <Peripheral>  (625) 
nan

>  <Num_H_Atoms_ProtBoundConf>  (625) 
nan

>  <Num_Resolved_Atoms>  (625) 
nan

>  <Num_Not_Resolved_Atoms>  (625) 
nan

$$$$
CHEMBL4207753
     RDKit          3D

  0  0  0  0  0  0  0  0  0  0999 V3000
M  V30 BEGIN CTAB
M  V30 COUNTS 85 90 0 0 0
M  V30 BEGIN ATOM
M  V30 1 C 0.692278 -6.802606 4.019130 0
M  V30 2 C 0.639009 -6.158747 2.696154 0
M  V30 3 C 0.580832 -6.770977 1.450474 0
M  V30 4 C 0.538378 -6.034779 0.286809 0
M  V30 5 C 0.550047 -4.656749 0.284020 0
M  V30 6 N 0.508978 -3.827620 -0.871373 0
M  V30 7 C 1.497059 -3.238676 -1.683238 0
M  V30 8 O 2.746139 -3.396554 -1.456439 0
M  V30 9 C 1.116334 -2.417313 -2.821637 0
M  V30 10 C 2.149857 -1.782807 -3.519924 0
M  V30 11 C 1.745560 -1.013288 -4.591152 0
M  V30 12 C 0.465410 -0.795986 -5.051786 0
M  V30 13 C 0.099871 0.043527 -6.203952 0
M  V30 14 N -0.461302 1.306228 -5.834008 0
M  V30 15 C 0.425071 2.145791 -5.051070 0
M  V30 16 C -0.108950 3.558649 -5.216743 0
M  V30 17 C -1.068733 3.513115 -6.381532 0
M  V30 18 N -2.449235 3.472435 -5.937155 0
M  V30 19 C -2.746361 4.588079 -5.047301 0
M  V30 20 C -3.399117 3.579591 -7.030733 0
M  V30 21 C -0.670818 2.161413 -6.991469 0
M  V30 22 C -0.539860 -1.449236 -4.325174 0
M  V30 23 C -1.964823 -1.297526 -4.716054 0
M  V30 24 F -2.742182 -2.048987 -3.823568 0
M  V30 25 F -2.420492 -0.011550 -4.617751 0
M  V30 26 F -2.132591 -1.862517 -5.965350 0
M  V30 27 C -0.189030 -2.245438 -3.226232 0
M  V30 28 C 0.608803 -4.030538 1.538816 0
M  V30 29 C 0.652605 -4.782033 2.724091 0
M  V30 30 N 0.718874 -3.879608 3.853079 0
M  V30 31 C -0.602980 -3.447811 4.268981 0
M  V30 32 C -0.486838 -2.331886 5.240543 0
M  V30 33 C -1.639477 -1.673136 5.661615 0
M  V30 34 N -1.531848 -0.673291 6.564699 0
M  V30 35 C -0.333773 -0.295467 7.071113 0
M  V30 36 N -0.472032 0.804366 7.998401 0
M  V30 37 C -0.354013 2.090309 7.353257 0
M  V30 38 C -0.449070 3.345297 7.925339 0
M  V30 39 N -0.274024 4.314235 6.973405 0
M  V30 40 N -0.072457 3.718061 5.823787 0
M  V30 41 C 0.168763 4.306713 4.504339 0
M  V30 42 C -0.111105 2.393159 5.997355 0
M  V30 43 N 0.834920 -0.903327 6.698286 0
M  V30 44 C 0.700047 -1.908773 5.784524 0
M  V30 45 N 1.940252 -2.471059 5.383138 0
M  V30 46 C 3.207271 -2.057483 5.933173 0
M  V30 47 C 1.979443 -3.498403 4.384424 0
M  V30 48 O 2.992435 -4.073022 3.949467 0
M  V30 49 H 0.241796 -7.814879 4.059288 0
M  V30 50 H 0.207575 -6.194810 4.794058 0
M  V30 51 H 1.773536 -6.944893 4.249815 0
M  V30 52 H 0.572623 -7.844013 1.476467 0
M  V30 53 H 0.494754 -6.518422 -0.667816 0
M  V30 54 H -0.520612 -3.732939 -1.010693 0
M  V30 55 H 3.193740 -1.874817 -3.255942 0
M  V30 56 H 2.556349 -0.522863 -5.128719 0
M  V30 57 H -0.513657 -0.474684 -6.962224 0
M  V30 58 H 1.065678 0.267748 -6.745240 0
M  V30 59 H 0.431843 1.906268 -3.974608 0
M  V30 60 H 1.486344 2.119525 -5.438243 0
M  V30 61 H -0.558467 3.917861 -4.275243 0
M  V30 62 H 0.704504 4.248515 -5.510597 0
M  V30 63 H -0.933654 4.302347 -7.112900 0
M  V30 64 H -2.516993 4.373579 -3.984281 0
M  V30 65 H -3.867783 4.720799 -5.063082 0
M  V30 66 H -2.345737 5.554965 -5.409792 0
M  V30 67 H -4.395393 3.267231 -6.611542 0
M  V30 68 H -3.181860 2.874962 -7.840869 0
M  V30 69 H -3.556405 4.635949 -7.361937 0
M  V30 70 H -1.479268 1.842739 -7.638279 0
M  V30 71 H 0.248412 2.260737 -7.598523 0
M  V30 72 H -0.998254 -2.728663 -2.699072 0
M  V30 73 H 0.615762 -2.940173 1.500679 0
M  V30 74 H -1.186748 -3.103615 3.361895 0
M  V30 75 H -1.173347 -4.247290 4.782022 0
M  V30 76 H -2.620453 -1.933941 5.290925 0
M  V30 77 H -0.638527 0.825524 9.018912 0
M  V30 78 H -0.633767 3.571774 8.956083 0
M  V30 79 H -0.802852 4.510914 4.012594 0
M  V30 80 H 0.736831 3.610503 3.849020 0
M  V30 81 H 0.767070 5.252970 4.611017 0
M  V30 82 H 0.021212 1.622685 5.230710 0
M  V30 83 H 3.178101 -2.228529 7.043847 0
M  V30 84 H 4.061477 -2.586976 5.503245 0
M  V30 85 H 3.285448 -0.953214 5.806992 0
M  V30 END ATOM
M  V30 BEGIN BOND
M  V30 1 1 1 2
M  V30 2 2 2 3
M  V30 3 1 3 4
M  V30 4 2 4 5
M  V30 5 1 5 6
M  V30 6 1 6 7
M  V30 7 2 7 8
M  V30 8 1 7 9
M  V30 9 2 9 10
M  V30 10 1 10 11
M  V30 11 2 11 12
M  V30 12 1 12 13
M  V30 13 1 13 14
M  V30 14 1 14 15
M  V30 15 1 15 16
M  V30 16 1 16 17
M  V30 17 1 17 18
M  V30 18 1 18 19
M  V30 19 1 18 20
M  V30 20 1 17 21
M  V30 21 1 12 22
M  V30 22 1 22 23
M  V30 23 1 23 24
M  V30 24 1 23 25
M  V30 25 1 23 26
M  V30 26 2 22 27
M  V30 27 1 5 28
M  V30 28 2 28 29
M  V30 29 1 29 30
M  V30 30 1 30 31
M  V30 31 1 31 32
M  V30 32 2 32 33
M  V30 33 1 33 34
M  V30 34 2 34 35
M  V30 35 1 35 36
M  V30 36 1 36 37
M  V30 37 1 37 38
M  V30 38 2 38 39
M  V30 39 1 39 40
M  V30 40 1 40 41
M  V30 41 1 40 42
M  V30 42 1 35 43
M  V30 43 2 43 44
M  V30 44 1 44 45
M  V30 45 1 45 46
M  V30 46 1 45 47
M  V30 47 2 47 48
M  V30 48 1 29 2
M  V30 49 1 47 30
M  V30 50 1 27 9
M  V30 51 1 44 32
M  V30 52 1 21 14
M  V30 53 2 42 37
M  V30 54 1 1 49
M  V30 55 1 1 50
M  V30 56 1 1 51
M  V30 57 1 3 52
M  V30 58 1 4 53
M  V30 59 1 6 54
M  V30 60 1 10 55
M  V30 61 1 11 56
M  V30 62 1 13 57
M  V30 63 1 13 58
M  V30 64 1 15 59
M  V30 65 1 15 60
M  V30 66 1 16 61
M  V30 67 1 16 62
M  V30 68 1 17 63
M  V30 69 1 19 64
M  V30 70 1 19 65
M  V30 71 1 19 66
M  V30 72 1 20 67
M  V30 73 1 20 68
M  V30 74 1 20 69
M  V30 75 1 21 70
M  V30 76 1 21 71
M  V30 77 1 27 72
M  V30 78 1 28 73
M  V30 79 1 31 74
M  V30 80 1 31 75
M  V30 81 1 33 76
M  V30 82 1 36 77
M  V30 83 1 38 78
M  V30 84 1 41 79
M  V30 85 1 41 80
M  V30 86 1 41 81
M  V30 87 1 42 82
M  V30 88 1 46 83
M  V30 89 1 46 84
M  V30 90 1 46 85
M  V30 END BOND
M  V30 END CTAB
M  END
>  <Dataset>  (626) 
ChEMBL_Kinases

>  <Ligand_Instance>  (626) 
nan

>  <PDB_ID>  (626) 
nan

>  <Standardized_SMILES>  (626) 
Cc1ccc(NC(=O)c2ccc(CN3CCC(N(C)C)C3)c(C(F)(F)F)c2)cc1N1Cc2cnc(Nc3cnn(C)c3)nc2N(C)C1=O

>  <Name>  (626) 
nan

>  <Pocket>  (626) 
nan

>  <ATP_Site>  (626) 
nan

>  <Peripheral>  (626) 
nan

>  <Num_H_Atoms_ProtBoundConf>  (626) 
nan

>  <Num_Resolved_Atoms>  (626) 
nan

>  <Num_Not_Resolved_Atoms>  (626) 
nan

$$$$
CHEMBL4207719
     RDKit          3D

  0  0  0  0  0  0  0  0  0  0999 V3000
M  V30 BEGIN CTAB
M  V30 COUNTS 36 38 0 0 0
M  V30 BEGIN ATOM
M  V30 1 O 0.167626 0.630600 3.793087 0
M  V30 2 C 0.932114 -0.288570 3.398780 0
M  V30 3 N 1.625569 -1.286488 4.134717 0
M  V30 4 C 2.376764 -2.113721 3.241171 0
M  V30 5 O 3.114099 -3.099522 3.522185 0
M  V30 6 N 2.185201 -1.665989 1.891546 0
M  V30 7 C 2.695857 -2.133538 0.652523 0
M  V30 8 C 1.956138 -3.089758 -0.001116 0
M  V30 9 C 2.399326 -3.585172 -1.210856 0
M  V30 10 C 3.574058 -3.144378 -1.788340 0
M  V30 11 C 4.305581 -2.184736 -1.120928 0
M  V30 12 C 3.889542 -1.669364 0.090111 0
M  V30 13 C 1.301848 -0.552061 2.001844 0
M  V30 14 C 0.850199 0.178312 0.986742 0
M  V30 15 N -0.030950 1.294612 1.062475 0
M  V30 16 C -1.344699 1.335858 0.493749 0
M  V30 17 C -2.100688 2.484199 0.638840 0
M  V30 18 C -3.366059 2.513850 0.086831 0
M  V30 19 C -3.860868 1.424837 -0.591303 0
M  V30 20 N -5.166586 1.459772 -1.159098 0 CHG=1 VAL=4
M  V30 21 O -5.891788 2.470605 -1.058030 0
M  V30 22 O -5.630423 0.348444 -1.832788 0 CHG=-1 VAL=1
M  V30 23 C -3.119366 0.271489 -0.744960 0
M  V30 24 C -1.837554 0.242605 -0.185295 0
M  V30 25 H 1.581730 -1.387730 5.183017 0
M  V30 26 H 1.036743 -3.484904 0.375660 0
M  V30 27 H 1.834160 -4.349825 -1.761324 0
M  V30 28 H 3.910285 -3.538611 -2.733667 0
M  V30 29 H 5.229150 -1.814853 -1.539961 0
M  V30 30 H 4.447466 -0.915468 0.632103 0
M  V30 31 H 1.135578 -0.032245 -0.043667 0
M  V30 32 H 0.352849 2.097930 1.571047 0
M  V30 33 H -1.667317 3.326972 1.186138 0
M  V30 34 H -3.939232 3.424758 0.213751 0
M  V30 35 H -3.471658 -0.623246 -1.277922 0
M  V30 36 H -1.261029 -0.671534 -0.312080 0
M  V30 END ATOM
M  V30 BEGIN BOND
M  V30 1 2 1 2
M  V30 2 1 2 3
M  V30 3 1 3 4
M  V30 4 2 4 5
M  V30 5 1 4 6
M  V30 6 1 6 7
M  V30 7 2 7 8
M  V30 8 1 8 9
M  V30 9 2 9 10
M  V30 10 1 10 11
M  V30 11 2 11 12
M  V30 12 1 6 13
M  V30 13 2 13 14
M  V30 14 1 14 15
M  V30 15 1 15 16
M  V30 16 2 16 17
M  V30 17 1 17 18
M  V30 18 2 18 19
M  V30 19 1 19 20
M  V30 20 2 20 21
M  V30 21 1 20 22
M  V30 22 1 19 23
M  V30 23 2 23 24
M  V30 24 1 13 2
M  V30 25 1 24 16
M  V30 26 1 12 7
M  V30 27 1 3 25
M  V30 28 1 8 26
M  V30 29 1 9 27
M  V30 30 1 10 28
M  V30 31 1 11 29
M  V30 32 1 12 30
M  V30 33 1 14 31
M  V30 34 1 15 32
M  V30 35 1 17 33
M  V30 36 1 18 34
M  V30 37 1 23 35
M  V30 38 1 24 36
M  V30 END BOND
M  V30 END CTAB
M  END
>  <Dataset>  (627) 
ChEMBL_Kinases

>  <Ligand_Instance>  (627) 
nan

>  <PDB_ID>  (627) 
nan

>  <Standardized_SMILES>  (627) 
O=C1NC(=O)N(c2ccccc2)/C1=C/Nc1ccc([N+](=O)[O-])cc1

>  <Name>  (627) 
nan

>  <Pocket>  (627) 
nan

>  <ATP_Site>  (627) 
nan

>  <Peripheral>  (627) 
nan

>  <Num_H_Atoms_ProtBoundConf>  (627) 
nan

>  <Num_Resolved_Atoms>  (627) 
nan

>  <Num_Not_Resolved_Atoms>  (627) 
nan

$$$$
CHEMBL4207643
     RDKit          3D

  0  0  0  0  0  0  0  0  0  0999 V3000
M  V30 BEGIN CTAB
M  V30 COUNTS 55 59 0 0 0
M  V30 BEGIN ATOM
M  V30 1 O -0.555517 -2.479584 1.748548 0
M  V30 2 C 0.071115 -2.117923 0.715757 0
M  V30 3 N 1.427278 -1.754088 0.794767 0
M  V30 4 C 2.450142 -1.287491 -0.157658 0
M  V30 5 C 3.331255 -0.216505 0.462127 0
M  V30 6 N 2.395765 0.503968 1.360762 0
M  V30 7 C 1.868685 1.723309 0.869227 0
M  V30 8 N 1.506871 1.632996 -0.447082 0
M  V30 9 C 0.932033 2.658719 -1.094191 0
M  V30 10 N 0.680042 3.826719 -0.492324 0
M  V30 11 C 1.012830 3.975749 0.794510 0
M  V30 12 N 0.925864 4.968506 1.682644 0
M  V30 13 C 1.434805 4.586771 2.867881 0
M  V30 14 C 1.866764 3.286561 2.726640 0
M  V30 15 Br 2.688283 2.341886 4.153480 0
M  V30 16 C 1.598436 2.916572 1.435698 0
M  V30 17 C 2.266266 -0.366376 2.541233 0
M  V30 18 C 2.057956 -1.833699 2.102830 0
M  V30 19 C -1.096400 -2.286527 -0.151027 0
M  V30 20 C -2.295075 -2.532945 0.696244 0
M  V30 21 C -2.654092 -1.716304 1.745249 0
M  V30 22 C -3.743034 -1.914704 2.566153 0
M  V30 23 C -4.551566 -2.993221 2.353143 0
M  V30 24 Cl -5.937451 -3.276356 3.370655 0
M  V30 25 C -4.255579 -3.854056 1.322140 0
M  V30 26 Cl -5.299468 -5.233701 1.058036 0
M  V30 27 C -3.154521 -3.598763 0.540908 0
M  V30 28 C -0.976280 -3.328612 -1.221283 0
M  V30 29 C -0.098578 -2.914180 -2.384894 0
M  V30 30 N -0.692758 -1.780520 -3.069654 0
M  V30 31 C -1.726751 -1.149179 -2.308992 0
M  V30 32 C -1.283435 -0.947619 -0.878052 0
M  V30 33 H 3.151691 -2.117267 -0.421013 0
M  V30 34 H 2.036562 -0.895143 -1.083457 0
M  V30 35 H 3.681264 0.497681 -0.315047 0
M  V30 36 H 4.189849 -0.606472 1.014228 0
M  V30 37 H 0.639374 2.603738 -2.135174 0
M  V30 38 H 0.509060 5.902300 1.442435 0
M  V30 39 H 1.483086 5.200906 3.744801 0
M  V30 40 H 1.356204 -0.149079 3.127233 0
M  V30 41 H 3.203581 -0.424853 3.125904 0
M  V30 42 H 3.048376 -2.336128 2.050517 0
M  V30 43 H 1.399159 -2.351006 2.854705 0
M  V30 44 H -2.082447 -0.822396 1.993014 0
M  V30 45 H -4.002691 -1.259819 3.382097 0
M  V30 46 H -2.996582 -4.326024 -0.238943 0
M  V30 47 H -2.006588 -3.382978 -1.692822 0
M  V30 48 H -0.781047 -4.341965 -0.863128 0
M  V30 49 H -0.115570 -3.762808 -3.102690 0
M  V30 50 H 0.942627 -2.736855 -2.143418 0
M  V30 51 H -1.057956 -2.029575 -4.013881 0
M  V30 52 H -1.824520 -0.105283 -2.715270 0
M  V30 53 H -2.715286 -1.599449 -2.365720 0
M  V30 54 H -0.306578 -0.446258 -0.877474 0
M  V30 55 H -2.000370 -0.291605 -0.363127 0
M  V30 END ATOM
M  V30 BEGIN BOND
M  V30 1 2 1 2
M  V30 2 1 2 3
M  V30 3 1 3 4
M  V30 4 1 4 5
M  V30 5 1 5 6
M  V30 6 1 6 7
M  V30 7 2 7 8
M  V30 8 1 8 9
M  V30 9 2 9 10
M  V30 10 1 10 11
M  V30 11 1 11 12
M  V30 12 1 12 13
M  V30 13 2 13 14
M  V30 14 1 14 15
M  V30 15 1 14 16
M  V30 16 1 6 17
M  V30 17 1 17 18
M  V30 18 1 2 19
M  V30 19 1 19 20
M  V30 20 2 20 21
M  V30 21 1 21 22
M  V30 22 2 22 23
M  V30 23 1 23 24
M  V30 24 1 23 25
M  V30 25 1 25 26
M  V30 26 2 25 27
M  V30 27 1 19 28
M  V30 28 1 28 29
M  V30 29 1 29 30
M  V30 30 1 30 31
M  V30 31 1 31 32
M  V30 32 1 18 3
M  V30 33 1 32 19
M  V30 34 1 16 7
M  V30 35 1 27 20
M  V30 36 2 16 11
M  V30 37 1 4 33
M  V30 38 1 4 34
M  V30 39 1 5 35
M  V30 40 1 5 36
M  V30 41 1 9 37
M  V30 42 1 12 38
M  V30 43 1 13 39
M  V30 44 1 17 40
M  V30 45 1 17 41
M  V30 46 1 18 42
M  V30 47 1 18 43
M  V30 48 1 21 44
M  V30 49 1 22 45
M  V30 50 1 27 46
M  V30 51 1 28 47
M  V30 52 1 28 48
M  V30 53 1 29 49
M  V30 54 1 29 50
M  V30 55 1 30 51
M  V30 56 1 31 52
M  V30 57 1 31 53
M  V30 58 1 32 54
M  V30 59 1 32 55
M  V30 END BOND
M  V30 END CTAB
M  END
>  <Dataset>  (628) 
ChEMBL_Kinases

>  <Ligand_Instance>  (628) 
nan

>  <PDB_ID>  (628) 
nan

>  <Standardized_SMILES>  (628) 
O=C(N1CCN(c2ncnc3[nH]cc(Br)c23)CC1)C1(c2ccc(Cl)c(Cl)c2)CCNCC1

>  <Name>  (628) 
nan

>  <Pocket>  (628) 
nan

>  <ATP_Site>  (628) 
nan

>  <Peripheral>  (628) 
nan

>  <Num_H_Atoms_ProtBoundConf>  (628) 
nan

>  <Num_Resolved_Atoms>  (628) 
nan

>  <Num_Not_Resolved_Atoms>  (628) 
nan

$$$$
CHEMBL4207608
     RDKit          3D

  0  0  0  0  0  0  0  0  0  0999 V3000
M  V30 BEGIN CTAB
M  V30 COUNTS 37 39 0 0 0
M  V30 BEGIN ATOM
M  V30 1 C -1.778990 -3.330540 2.497484 0
M  V30 2 C -0.634087 -3.903036 1.734329 0
M  V30 3 C -1.049165 -4.756142 0.571736 0
M  V30 4 C 0.330223 -2.848000 1.328443 0
M  V30 5 C 0.874718 -2.155310 2.585558 0
M  V30 6 N 1.400384 -3.347071 0.488700 0
M  V30 7 C 2.299218 -2.329229 0.077861 0
M  V30 8 O 3.519047 -2.399128 -0.197608 0
M  V30 9 C 1.743030 -0.950653 -0.058546 0
M  V30 10 S 2.478282 0.710592 -0.552732 0
M  V30 11 C 0.970930 1.584097 -0.365558 0
M  V30 12 C 0.764478 3.060573 -0.601476 0
M  V30 13 C -0.472899 3.627369 -0.419064 0
M  V30 14 C -0.527312 4.984937 -0.667830 0
M  V30 15 N 0.558713 5.677129 -1.057168 0
M  V30 16 C 1.760370 5.114481 -1.231959 0
M  V30 17 C 1.886127 3.757992 -1.000214 0
M  V30 18 C 0.054526 0.711689 0.019037 0
M  V30 19 C 0.375451 -0.604312 0.197476 0
M  V30 20 N -0.345454 -1.765455 0.593547 0
M  V30 21 H -1.414954 -3.011129 3.512122 0
M  V30 22 H -2.526868 -4.138558 2.738519 0
M  V30 23 H -2.337911 -2.531217 2.013229 0
M  V30 24 H -0.086983 -4.583555 2.435282 0
M  V30 25 H -1.818150 -5.480800 0.911947 0
M  V30 26 H -1.355222 -4.165799 -0.314887 0
M  V30 27 H -0.166893 -5.366908 0.246562 0
M  V30 28 H 1.907435 -1.795652 2.345655 0
M  V30 29 H 0.285289 -1.250707 2.840893 0
M  V30 30 H 0.863249 -2.846535 3.450059 0
M  V30 31 H 1.680680 -4.288460 0.104165 0
M  V30 32 H -1.295359 3.027294 -0.109593 0
M  V30 33 H -1.480438 5.494667 -0.541414 0
M  V30 34 H 2.641440 5.666485 -1.545986 0
M  V30 35 H 2.850271 3.275369 -1.134448 0
M  V30 36 H -0.975425 1.035867 0.197498 0
M  V30 37 H -1.380104 -1.836770 0.351353 0
M  V30 END ATOM
M  V30 BEGIN BOND
M  V30 1 1 1 2
M  V30 2 1 2 3
M  V30 3 1 2 4
M  V30 4 1 4 5
M  V30 5 1 4 6
M  V30 6 1 6 7
M  V30 7 2 7 8
M  V30 8 1 7 9
M  V30 9 1 9 10
M  V30 10 1 10 11
M  V30 11 1 11 12
M  V30 12 2 12 13
M  V30 13 1 13 14
M  V30 14 2 14 15
M  V30 15 1 15 16
M  V30 16 2 16 17
M  V30 17 2 11 18
M  V30 18 1 18 19
M  V30 19 1 19 20
M  V30 20 1 20 4
M  V30 21 2 19 9
M  V30 22 1 17 12
M  V30 23 1 1 21
M  V30 24 1 1 22
M  V30 25 1 1 23
M  V30 26 1 2 24
M  V30 27 1 3 25
M  V30 28 1 3 26
M  V30 29 1 3 27
M  V30 30 1 5 28
M  V30 31 1 5 29
M  V30 32 1 5 30
M  V30 33 1 6 31
M  V30 34 1 13 32
M  V30 35 1 14 33
M  V30 36 1 16 34
M  V30 37 1 17 35
M  V30 38 1 18 36
M  V30 39 1 20 37
M  V30 END BOND
M  V30 END CTAB
M  END
>  <Dataset>  (629) 
ChEMBL_Kinases

>  <Ligand_Instance>  (629) 
nan

>  <PDB_ID>  (629) 
nan

>  <Standardized_SMILES>  (629) 
CC(C)C1(C)NC(=O)c2sc(-c3ccncc3)cc2N1

>  <Name>  (629) 
nan

>  <Pocket>  (629) 
nan

>  <ATP_Site>  (629) 
nan

>  <Peripheral>  (629) 
nan

>  <Num_H_Atoms_ProtBoundConf>  (629) 
nan

>  <Num_Resolved_Atoms>  (629) 
nan

>  <Num_Not_Resolved_Atoms>  (629) 
nan

$$$$
CHEMBL4782760
     RDKit          3D

  0  0  0  0  0  0  0  0  0  0999 V3000
M  V30 BEGIN CTAB
M  V30 COUNTS 48 50 0 0 0
M  V30 BEGIN ATOM
M  V30 1 C 2.551136 -2.128259 -0.032262 0
M  V30 2 C 3.395574 -2.099574 1.205112 0
M  V30 3 C 4.318161 -3.315145 1.114386 0
M  V30 4 C 2.458812 -2.414685 2.368737 0
M  V30 5 O 1.430322 -1.520975 2.505935 0
M  V30 6 C 4.185056 -0.865188 1.443720 0
M  V30 7 N 3.377219 0.319547 1.568283 0
M  V30 8 C 2.667376 0.968191 0.527453 0
M  V30 9 N 3.257364 1.262672 -0.579543 0
M  V30 10 C 2.465309 1.892905 -1.513511 0
M  V30 11 O 2.893055 2.253402 -2.666456 0
M  V30 12 C 1.097562 2.152226 -1.163926 0
M  V30 13 C 0.045112 2.721817 -1.695790 0
M  V30 14 C -1.275549 2.827727 -1.054416 0
M  V30 15 C -2.067891 3.965955 -1.071938 0
M  V30 16 S -3.544266 3.314807 -0.110835 0
M  V30 17 C -2.814805 1.698533 0.109022 0
M  V30 18 C -3.575175 0.668756 0.845427 0
M  V30 19 C -4.817255 0.951000 1.372504 0
M  V30 20 C -5.504324 -0.031580 2.045792 0
M  V30 21 C -4.976504 -1.315901 2.213662 0
M  V30 22 C -3.741374 -1.569330 1.681224 0
M  V30 23 O -3.105552 -2.804968 1.777754 0
M  V30 24 C -3.295641 -3.812738 0.775197 0
M  V30 25 F -2.550377 -4.931095 1.122138 0
M  V30 26 F -2.966460 -3.338850 -0.469310 0
M  V30 27 F -4.629201 -4.197757 0.768783 0
M  V30 28 C -3.025483 -0.594162 0.994498 0
M  V30 29 N -1.674047 1.698729 -0.452893 0
M  V30 30 S 0.944678 1.467096 0.510011 0
M  V30 31 H 2.050071 -1.206842 -0.302642 0
M  V30 32 H 3.179674 -2.503759 -0.894514 0
M  V30 33 H 1.784156 -2.932611 0.131496 0
M  V30 34 H 5.038133 -3.306156 1.940179 0
M  V30 35 H 3.647296 -4.209418 1.289792 0
M  V30 36 H 4.769305 -3.429130 0.118399 0
M  V30 37 H 2.009181 -3.397879 2.131615 0
M  V30 38 H 3.084016 -2.507592 3.284159 0
M  V30 39 H 1.444073 -0.988829 3.334284 0
M  V30 40 H 4.813373 -0.996647 2.352250 0
M  V30 41 H 4.912015 -0.756074 0.609822 0
M  V30 42 H 3.278937 0.766873 2.536028 0
M  V30 43 H 0.232135 3.132481 -2.701849 0
M  V30 44 H -1.768450 4.865897 -1.543177 0
M  V30 45 H -5.281841 1.920723 1.279933 0
M  V30 46 H -6.480934 0.072095 2.501654 0
M  V30 47 H -5.433131 -2.143480 2.720364 0
M  V30 48 H -2.056817 -0.770019 0.568175 0
M  V30 END ATOM
M  V30 BEGIN BOND
M  V30 1 1 1 2
M  V30 2 1 2 3
M  V30 3 1 2 4
M  V30 4 1 4 5
M  V30 5 1 2 6
M  V30 6 1 6 7
M  V30 7 1 7 8
M  V30 8 2 8 9
M  V30 9 1 9 10
M  V30 10 2 10 11
M  V30 11 1 10 12
M  V30 12 2 12 13
M  V30 13 1 13 14
M  V30 14 2 14 15
M  V30 15 1 15 16
M  V30 16 1 16 17
M  V30 17 1 17 18
M  V30 18 2 18 19
M  V30 19 1 19 20
M  V30 20 2 20 21
M  V30 21 1 21 22
M  V30 22 1 22 23
M  V30 23 1 23 24
M  V30 24 1 24 25
M  V30 25 1 24 26
M  V30 26 1 24 27
M  V30 27 2 22 28
M  V30 28 2 17 29
M  V30 29 1 12 30
M  V30 30 1 30 8
M  V30 31 1 29 14
M  V30 32 1 28 18
M  V30 33 1 1 31
M  V30 34 1 1 32
M  V30 35 1 1 33
M  V30 36 1 3 34
M  V30 37 1 3 35
M  V30 38 1 3 36
M  V30 39 1 4 37
M  V30 40 1 4 38
M  V30 41 1 5 39
M  V30 42 1 6 40
M  V30 43 1 6 41
M  V30 44 1 7 42
M  V30 45 1 13 43
M  V30 46 1 15 44
M  V30 47 1 19 45
M  V30 48 1 20 46
M  V30 49 1 21 47
M  V30 50 1 28 48
M  V30 END BOND
M  V30 END CTAB
M  END
>  <Dataset>  (630) 
ChEMBL_Kinases

>  <Ligand_Instance>  (630) 
nan

>  <PDB_ID>  (630) 
nan

>  <Standardized_SMILES>  (630) 
CC(C)(CO)CNC1=NC(=O)/C(=C/c2csc(-c3cccc(OC(F)(F)F)c3)n2)S1

>  <Name>  (630) 
nan

>  <Pocket>  (630) 
nan

>  <ATP_Site>  (630) 
nan

>  <Peripheral>  (630) 
nan

>  <Num_H_Atoms_ProtBoundConf>  (630) 
nan

>  <Num_Resolved_Atoms>  (630) 
nan

>  <Num_Not_Resolved_Atoms>  (630) 
nan

$$$$
CHEMBL4780812
     RDKit          3D

  0  0  0  0  0  0  0  0  0  0999 V3000
M  V30 BEGIN CTAB
M  V30 COUNTS 56 61 0 0 0
M  V30 BEGIN ATOM
M  V30 1 N -6.748102 0.156541 -0.341934 0
M  V30 2 C -5.320912 0.268320 -0.386399 0
M  V30 3 N -4.682652 1.167213 -1.132723 0
M  V30 4 C -3.362410 1.001628 -0.943854 0
M  V30 5 C -3.175383 -0.044204 -0.042341 0
M  V30 6 N -4.401064 -0.456918 0.267022 0
M  V30 7 C -1.868857 -0.386983 0.297328 0
M  V30 8 C -0.733619 0.207863 -0.171718 0
M  V30 9 C -0.974739 1.234938 -1.058420 0
M  V30 10 N -0.184847 2.082291 -1.751891 0
M  V30 11 C -0.879423 2.941613 -2.509959 0
M  V30 12 N -0.330938 3.955085 -3.354057 0
M  V30 13 N -2.162155 2.647804 -2.306318 0
M  V30 14 C -2.240115 1.628347 -1.439933 0
M  V30 15 C 0.115345 -0.673618 0.607965 0 CFG=2
M  V30 16 C 0.930707 -1.677436 -0.209368 0
M  V30 17 N 1.828080 -1.035686 -1.141165 0
M  V30 18 C 2.730304 -1.678893 -2.059039 0
M  V30 19 O 2.715710 -2.944485 -2.024747 0
M  V30 20 C 3.573572 -0.872167 -2.938706 0
M  V30 21 N 3.597506 0.472215 -2.982161 0
M  V30 22 C 4.508712 0.768758 -3.925089 0
M  V30 23 C 5.059602 -0.349279 -4.476997 0
M  V30 24 Br 6.386015 -0.505013 -5.841385 0
M  V30 25 C 4.452941 -1.432669 -3.836854 0
M  V30 26 Br 4.817647 -3.269477 -4.186799 0
M  V30 27 C -1.112824 -1.327912 1.138787 0 CFG=1
M  V30 28 C -1.386874 -1.096857 2.606565 0
M  V30 29 N -0.648820 -2.017093 3.448043 0
M  V30 30 C -0.718657 -2.023519 4.871089 0
M  V30 31 O -1.456603 -1.192082 5.461933 0
M  V30 32 C 0.085951 -3.014222 5.576244 0
M  V30 33 N 0.915886 -3.960012 5.100702 0
M  V30 34 C 1.470982 -4.676427 6.094984 0
M  V30 35 C 0.996979 -4.196843 7.315819 0
M  V30 36 Br 1.454068 -4.844171 9.034904 0
M  V30 37 C 0.147926 -3.174523 6.944943 0
M  V30 38 Br -0.837136 -2.096126 8.198141 0
M  V30 39 H -6.981431 -0.571344 -1.076203 0
M  V30 40 H -7.064105 0.831409 0.399031 0
M  V30 41 H -4.619898 -1.236651 0.926432 0
M  V30 42 H 0.857455 2.090593 -1.718545 0
M  V30 43 H -0.197704 4.756333 -2.692054 0
M  V30 44 H -0.235672 3.608885 -4.316185 0
M  V30 45 H 0.733842 -0.122508 1.350205 0
M  V30 46 H 1.415622 -2.357181 0.502614 0
M  V30 47 H 0.194109 -2.297342 -0.788877 0
M  V30 48 H 1.838393 0.003695 -1.163117 0
M  V30 49 H 3.046373 1.147900 -2.423827 0
M  V30 50 H 4.760748 1.784434 -4.198915 0
M  V30 51 H -1.284669 -2.371650 0.799007 0
M  V30 52 H -2.465903 -1.295336 2.783594 0
M  V30 53 H -1.169095 -0.055168 2.841583 0
M  V30 54 H -0.027935 -2.716699 2.957871 0
M  V30 55 H 1.095124 -4.104786 4.069225 0
M  V30 56 H 2.166446 -5.486456 5.968396 0
M  V30 END ATOM
M  V30 BEGIN BOND
M  V30 1 1 1 2
M  V30 2 2 2 3
M  V30 3 1 3 4
M  V30 4 2 4 5
M  V30 5 1 5 6
M  V30 6 1 5 7
M  V30 7 2 7 8
M  V30 8 1 8 9
M  V30 9 1 9 10
M  V30 10 1 10 11
M  V30 11 1 11 12
M  V30 12 2 11 13
M  V30 13 1 13 14
M  V30 14 1 8 15
M  V30 15 1 15 16
M  V30 16 1 16 17
M  V30 17 1 17 18
M  V30 18 2 18 19
M  V30 19 1 18 20
M  V30 20 1 20 21
M  V30 21 1 21 22
M  V30 22 2 22 23
M  V30 23 1 23 24
M  V30 24 1 23 25
M  V30 25 1 25 26
M  V30 26 1 15 27
M  V30 27 1 27 28
M  V30 28 1 28 29
M  V30 29 1 29 30
M  V30 30 2 30 31
M  V30 31 1 30 32
M  V30 32 1 32 33
M  V30 33 1 33 34
M  V30 34 2 34 35
M  V30 35 1 35 36
M  V30 36 1 35 37
M  V30 37 1 37 38
M  V30 38 1 6 2
M  V30 39 1 27 7
M  V30 40 2 37 32
M  V30 41 1 14 4
M  V30 42 2 25 20
M  V30 43 2 14 9
M  V30 44 1 1 39
M  V30 45 1 1 40
M  V30 46 1 6 41
M  V30 47 1 10 42
M  V30 48 1 12 43
M  V30 49 1 12 44
M  V30 50 1 15 45 CFG=1
M  V30 51 1 16 46
M  V30 52 1 16 47
M  V30 53 1 17 48
M  V30 54 1 21 49
M  V30 55 1 22 50
M  V30 56 1 27 51 CFG=3
M  V30 57 1 28 52
M  V30 58 1 28 53
M  V30 59 1 29 54
M  V30 60 1 33 55
M  V30 61 1 34 56
M  V30 END BOND
M  V30 END CTAB
M  END
>  <Dataset>  (631) 
ChEMBL_Kinases

>  <Ligand_Instance>  (631) 
nan

>  <PDB_ID>  (631) 
nan

>  <Standardized_SMILES>  (631) 
Nc1nc2c([nH]1)c1c(c3[nH]c(N)nc32)[C@H](CNC(=O)c2[nH]cc(Br)c2Br)[C@H]1CNC(=O)c1[nH]cc(Br)c1Br

>  <Name>  (631) 
nan

>  <Pocket>  (631) 
nan

>  <ATP_Site>  (631) 
nan

>  <Peripheral>  (631) 
nan

>  <Num_H_Atoms_ProtBoundConf>  (631) 
nan

>  <Num_Resolved_Atoms>  (631) 
nan

>  <Num_Not_Resolved_Atoms>  (631) 
nan

$$$$
CHEMBL4211820
     RDKit          3D

  0  0  0  0  0  0  0  0  0  0999 V3000
M  V30 BEGIN CTAB
M  V30 COUNTS 43 47 0 0 0
M  V30 BEGIN ATOM
M  V30 1 N -0.480797 -5.401241 0.327944 0
M  V30 2 C -1.332513 -4.232557 0.370495 0
M  V30 3 C -0.942265 -3.363361 -0.782475 0
M  V30 4 C -1.553693 -3.504214 -2.023704 0
M  V30 5 C -1.199568 -2.706753 -3.091598 0
M  V30 6 C -0.212599 -1.757956 -2.888641 0
M  V30 7 C 0.431317 -1.571983 -1.675397 0
M  V30 8 N 1.437573 -0.570595 -1.553398 0
M  V30 9 C 2.421734 -0.380470 -2.471943 0
M  V30 10 N 3.229044 0.631374 -2.099990 0
M  V30 11 C 2.779684 1.113031 -0.933087 0
M  V30 12 C 3.178104 2.122889 -0.078233 0
M  V30 13 C 2.433618 2.336804 1.087037 0
M  V30 14 C 1.308001 1.572889 1.419039 0
M  V30 15 C 0.665350 1.944600 2.670896 0
M  V30 16 C 0.455659 3.303215 2.935764 0
M  V30 17 C -0.154139 3.634498 4.126074 0
M  V30 18 N -0.561026 2.749995 5.048607 0
M  V30 19 C -0.366439 1.438712 4.808686 0
M  V30 20 N -0.659213 0.331510 5.527138 0
M  V30 21 C -0.257871 -0.769576 4.846210 0
M  V30 22 C 0.296457 -0.298560 3.674561 0
M  V30 23 C 0.242533 1.072492 3.624093 0
M  V30 24 C 0.942004 0.573401 0.539325 0
M  V30 25 C 1.670276 0.359042 -0.607276 0
M  V30 26 C 0.043582 -2.387708 -0.649477 0
M  V30 27 H 0.218435 -5.396597 -0.439189 0
M  V30 28 H -0.078749 -5.645107 1.260144 0
M  V30 29 H -1.286313 -3.693415 1.321210 0
M  V30 30 H -2.372987 -4.596675 0.155757 0
M  V30 31 H -2.328649 -4.254003 -2.171075 0
M  V30 32 H -1.658440 -2.792619 -4.072675 0
M  V30 33 H 0.102187 -1.102002 -3.705829 0
M  V30 34 H 2.528224 -0.979256 -3.385751 0
M  V30 35 H 4.031888 2.700155 -0.332904 0
M  V30 36 H 2.803151 3.139815 1.704189 0
M  V30 37 H 0.735839 4.098035 2.278978 0
M  V30 38 H -0.358233 4.676167 4.416460 0
M  V30 39 H -1.120992 0.258977 6.466050 0
M  V30 40 H -0.354048 -1.813763 5.161196 0
M  V30 41 H 0.701262 -0.948691 2.934329 0
M  V30 42 H 0.086482 0.018855 0.825905 0
M  V30 43 H 0.511094 -2.288734 0.321345 0
M  V30 END ATOM
M  V30 BEGIN BOND
M  V30 1 1 1 2
M  V30 2 1 2 3
M  V30 3 2 3 4
M  V30 4 1 4 5
M  V30 5 2 5 6
M  V30 6 1 6 7
M  V30 7 1 7 8
M  V30 8 1 8 9
M  V30 9 2 9 10
M  V30 10 1 10 11
M  V30 11 2 11 12
M  V30 12 1 12 13
M  V30 13 2 13 14
M  V30 14 1 14 15
M  V30 15 2 15 16
M  V30 16 1 16 17
M  V30 17 2 17 18
M  V30 18 1 18 19
M  V30 19 1 19 20
M  V30 20 1 20 21
M  V30 21 2 21 22
M  V30 22 1 22 23
M  V30 23 1 14 24
M  V30 24 2 24 25
M  V30 25 2 7 26
M  V30 26 1 26 3
M  V30 27 1 25 8
M  V30 28 1 25 11
M  V30 29 1 23 15
M  V30 30 2 23 19
M  V30 31 1 1 27
M  V30 32 1 1 28
M  V30 33 1 2 29
M  V30 34 1 2 30
M  V30 35 1 4 31
M  V30 36 1 5 32
M  V30 37 1 6 33
M  V30 38 1 9 34
M  V30 39 1 12 35
M  V30 40 1 13 36
M  V30 41 1 16 37
M  V30 42 1 17 38
M  V30 43 1 20 39
M  V30 44 1 21 40
M  V30 45 1 22 41
M  V30 46 1 24 42
M  V30 47 1 26 43
M  V30 END BOND
M  V30 END CTAB
M  END
>  <Dataset>  (632) 
ChEMBL_Kinases

>  <Ligand_Instance>  (632) 
nan

>  <PDB_ID>  (632) 
nan

>  <Standardized_SMILES>  (632) 
NCc1cccc(-n2cnc3ccc(-c4ccnc5[nH]ccc45)cc32)c1

>  <Name>  (632) 
nan

>  <Pocket>  (632) 
nan

>  <ATP_Site>  (632) 
nan

>  <Peripheral>  (632) 
nan

>  <Num_H_Atoms_ProtBoundConf>  (632) 
nan

>  <Num_Resolved_Atoms>  (632) 
nan

>  <Num_Not_Resolved_Atoms>  (632) 
nan

$$$$
CHEMBL4780868
     RDKit          3D

  0  0  0  0  0  0  0  0  0  0999 V3000
M  V30 BEGIN CTAB
M  V30 COUNTS 72 76 0 0 0
M  V30 BEGIN ATOM
M  V30 1 C 4.762118 -3.008216 3.058458 0
M  V30 2 C 4.790885 -1.765476 2.659273 0
M  V30 3 C 5.115464 -0.304967 2.465766 0
M  V30 4 N 3.933142 0.479933 2.763048 0
M  V30 5 C 3.569144 0.989428 3.951981 0
M  V30 6 O 4.166558 0.897177 5.051252 0
M  V30 7 C 2.379680 1.655032 3.741286 0
M  V30 8 C 1.532561 2.362731 4.564414 0
M  V30 9 N 0.403891 2.926385 4.098388 0
M  V30 10 C 0.095036 2.794140 2.788725 0
M  V30 11 N -0.996493 3.220518 1.961894 0
M  V30 12 C -1.974294 2.206990 1.640671 0
M  V30 13 C -3.088246 2.480160 0.859852 0
M  V30 14 C -4.048106 1.548864 0.504250 0
M  V30 15 C -3.876132 0.260500 0.963656 0
M  V30 16 N -4.811594 -0.756165 0.623421 0
M  V30 17 C -5.841980 -0.576475 -0.379176 0
M  V30 18 C -6.098651 -1.839147 -1.142557 0
M  V30 19 N -4.880810 -2.619551 -1.168113 0
M  V30 20 C -4.226962 -2.695171 -2.424263 0
M  V30 21 O -4.918803 -2.037417 -3.211452 0
M  V30 22 O -3.071103 -3.318018 -2.854942 0
M  V30 23 C -2.680766 -3.196823 -4.219420 0
M  V30 24 C -4.624962 -3.155681 0.177865 0
M  V30 25 C -4.869866 -2.069774 1.212185 0
M  V30 26 C -2.787399 -0.036102 1.736078 0
M  V30 27 C -1.832731 0.887714 2.090486 0
M  V30 28 N 0.921434 2.104024 1.986450 0
M  V30 29 C 2.075410 1.512784 2.404089 0
M  V30 30 N 3.067166 0.772891 1.822995 0
M  V30 31 C 2.933748 0.506653 0.435119 0
M  V30 32 C 2.750971 1.577735 -0.433653 0
M  V30 33 C 2.597800 1.479065 -1.799319 0
M  V30 34 C 2.629777 0.207561 -2.339508 0
M  V30 35 C 2.811748 -0.865340 -1.480274 0
M  V30 36 C 2.836025 -2.221168 -2.097360 0
M  V30 37 C 3.088627 -3.322169 -1.102619 0
M  V30 38 C 1.454171 -2.409830 -2.735220 0
M  V30 39 O 3.786368 -2.310195 -3.101780 0
M  V30 40 N 2.952520 -0.682462 -0.167337 0
M  V30 41 H 4.617379 -4.045764 3.277443 0
M  V30 42 H 5.430834 -3.404818 3.827683 0
M  V30 43 H 3.981254 -2.097726 2.009265 0
M  V30 44 H 6.005904 0.005128 3.048898 0
M  V30 45 H 5.404684 -0.242990 1.392943 0
M  V30 46 H 1.717110 2.506114 5.610603 0
M  V30 47 H -1.172882 4.160154 1.567322 0
M  V30 48 H -3.221455 3.494625 0.501234 0
M  V30 49 H -4.880879 1.863484 -0.108513 0
M  V30 50 H -6.744266 -0.179885 0.123147 0
M  V30 51 H -5.425059 0.184678 -1.096790 0
M  V30 52 H -6.470303 -1.558455 -2.150786 0
M  V30 53 H -6.917468 -2.368940 -0.584931 0
M  V30 54 H -1.857788 -3.896164 -4.370262 0
M  V30 55 H -2.412840 -2.137006 -4.402700 0
M  V30 56 H -3.522346 -3.473986 -4.875886 0
M  V30 57 H -5.334332 -3.986448 0.366285 0
M  V30 58 H -3.606217 -3.588406 0.266258 0
M  V30 59 H -4.147554 -2.214468 2.018665 0
M  V30 60 H -5.874994 -2.196183 1.621937 0
M  V30 61 H -2.557934 -1.001571 2.141104 0
M  V30 62 H -0.960323 0.684154 2.699489 0
M  V30 63 H 2.725300 2.579356 -0.011839 0
M  V30 64 H 2.462002 2.369098 -2.399251 0
M  V30 65 H 2.507964 0.135515 -3.424672 0
M  V30 66 H 3.991767 -3.918771 -1.381602 0
M  V30 67 H 3.174686 -2.974890 -0.072908 0
M  V30 68 H 2.252288 -4.049997 -1.144861 0
M  V30 69 H 0.712877 -2.464770 -1.887637 0
M  V30 70 H 1.233402 -1.486339 -3.305417 0
M  V30 71 H 1.403351 -3.316853 -3.353208 0
M  V30 72 H 3.342762 -1.976148 -3.934990 0
M  V30 END ATOM
M  V30 BEGIN BOND
M  V30 1 2 1 2
M  V30 2 1 2 3
M  V30 3 1 3 4
M  V30 4 1 4 5
M  V30 5 2 5 6
M  V30 6 1 5 7
M  V30 7 2 7 8
M  V30 8 1 8 9
M  V30 9 2 9 10
M  V30 10 1 10 11
M  V30 11 1 11 12
M  V30 12 2 12 13
M  V30 13 1 13 14
M  V30 14 2 14 15
M  V30 15 1 15 16
M  V30 16 1 16 17
M  V30 17 1 17 18
M  V30 18 1 18 19
M  V30 19 1 19 20
M  V30 20 2 20 21
M  V30 21 1 20 22
M  V30 22 1 22 23
M  V30 23 1 19 24
M  V30 24 1 24 25
M  V30 25 1 15 26
M  V30 26 2 26 27
M  V30 27 1 10 28
M  V30 28 2 28 29
M  V30 29 1 29 30
M  V30 30 1 30 31
M  V30 31 2 31 32
M  V30 32 1 32 33
M  V30 33 2 33 34
M  V30 34 1 34 35
M  V30 35 1 35 36
M  V30 36 1 36 37
M  V30 37 1 36 38
M  V30 38 1 36 39
M  V30 39 2 35 40
M  V30 40 1 30 4
M  V30 41 1 40 31
M  V30 42 1 29 7
M  V30 43 1 27 12
M  V30 44 1 25 16
M  V30 45 1 1 41
M  V30 46 1 1 42
M  V30 47 1 2 43
M  V30 48 1 3 44
M  V30 49 1 3 45
M  V30 50 1 8 46
M  V30 51 1 11 47
M  V30 52 1 13 48
M  V30 53 1 14 49
M  V30 54 1 17 50
M  V30 55 1 17 51
M  V30 56 1 18 52
M  V30 57 1 18 53
M  V30 58 1 23 54
M  V30 59 1 23 55
M  V30 60 1 23 56
M  V30 61 1 24 57
M  V30 62 1 24 58
M  V30 63 1 25 59
M  V30 64 1 25 60
M  V30 65 1 26 61
M  V30 66 1 27 62
M  V30 67 1 32 63
M  V30 68 1 33 64
M  V30 69 1 34 65
M  V30 70 1 37 66
M  V30 71 1 37 67
M  V30 72 1 37 68
M  V30 73 1 38 69
M  V30 74 1 38 70
M  V30 75 1 38 71
M  V30 76 1 39 72
M  V30 END BOND
M  V30 END CTAB
M  END
>  <Dataset>  (633) 
ChEMBL_Kinases

>  <Ligand_Instance>  (633) 
nan

>  <PDB_ID>  (633) 
nan

>  <Standardized_SMILES>  (633) 
C=CCn1c(=O)c2cnc(Nc3ccc(N4CCN(C(=O)OC)CC4)cc3)nc2n1-c1cccc(C(C)(C)O)n1

>  <Name>  (633) 
nan

>  <Pocket>  (633) 
nan

>  <ATP_Site>  (633) 
nan

>  <Peripheral>  (633) 
nan

>  <Num_H_Atoms_ProtBoundConf>  (633) 
nan

>  <Num_Resolved_Atoms>  (633) 
nan

>  <Num_Not_Resolved_Atoms>  (633) 
nan

$$$$
CHEMBL4780889
     RDKit          3D

  0  0  0  0  0  0  0  0  0  0999 V3000
M  V30 BEGIN CTAB
M  V30 COUNTS 53 57 0 0 0
M  V30 BEGIN ATOM
M  V30 1 C -2.387597 -0.763456 -5.295049 0
M  V30 2 C -3.096352 0.180752 -4.423628 0
M  V30 3 C -2.860953 -0.463409 -3.119052 0
M  V30 4 N -2.836672 0.518107 -2.031905 0
M  V30 5 C -2.079634 1.732861 -1.951188 0
M  V30 6 C -3.689784 0.096787 -0.964608 0
M  V30 7 O -4.596503 -0.820328 -1.182275 0
M  V30 8 C -3.728662 0.512430 0.442585 0
M  V30 9 C -3.825926 0.917771 1.685280 0
M  V30 10 N -3.074721 0.593262 2.807896 0
M  V30 11 C -2.006121 -0.271287 2.735337 0
M  V30 12 N -1.153711 -0.669816 3.663790 0
M  V30 13 C -0.259131 -1.464423 2.969919 0
M  V30 14 C -0.525375 -1.583010 1.632009 0
M  V30 15 C 0.057820 -2.178963 0.469800 0
M  V30 16 C -0.129126 -3.259660 -0.370409 0
M  V30 17 C 0.698922 -3.438936 -1.515067 0
M  V30 18 F 0.424503 -4.515517 -2.247909 0
M  V30 19 C 1.680295 -2.551872 -1.832469 0
M  V30 20 N 2.413413 -2.642055 -2.943844 0
M  V30 21 C 3.355989 -1.786287 -3.312430 0
M  V30 22 C 3.601160 -0.743425 -2.486827 0
M  V30 23 C 2.985572 -0.430913 -1.280261 0
M  V30 24 C 2.882359 0.630095 -0.300549 0
M  V30 25 C 1.779580 1.305111 -0.949256 0
M  V30 26 C 1.344745 2.533329 -0.351857 0
M  V30 27 C 2.035121 2.991991 0.827806 0
M  V30 28 N 3.052415 2.371192 1.446613 0
M  V30 29 C 3.487864 1.204655 0.874562 0
M  V30 30 C 1.996412 -1.401350 -1.048000 0
M  V30 31 C 1.104392 -1.354230 0.037702 0
M  V30 32 C -1.685914 -0.812933 1.533821 0
M  V30 33 C -2.629085 -0.319849 0.534900 0
M  V30 34 H -2.235769 -0.765474 -6.410040 0
M  V30 35 H -1.920469 -1.682982 -5.052617 0
M  V30 36 H -3.470734 1.064665 -5.005589 0
M  V30 37 H -3.615705 -1.324396 -2.953231 0
M  V30 38 H -1.804393 -0.932441 -3.002367 0
M  V30 39 H -2.288579 2.180018 -0.948021 0
M  V30 40 H -1.026629 1.750067 -2.117924 0
M  V30 41 H -2.540606 2.501168 -2.713998 0
M  V30 42 H -4.683981 1.501081 1.546998 0
M  V30 43 H -1.146443 -0.401380 4.688532 0
M  V30 44 H 0.587965 -2.002805 3.330087 0
M  V30 45 H -0.987131 -3.836128 -0.059788 0
M  V30 46 H 3.941629 -1.833485 -4.192586 0
M  V30 47 H 4.175554 0.134123 -2.601810 0
M  V30 48 H 1.189572 1.209807 -1.777236 0
M  V30 49 H 0.613158 3.261172 -0.745880 0
M  V30 50 H 1.695362 3.930598 1.333850 0
M  V30 51 H 4.292675 0.452394 1.082055 0
M  V30 52 H 1.291176 -0.448936 0.625798 0
M  V30 53 H -2.059175 -0.878231 -0.351261 0
M  V30 END ATOM
M  V30 BEGIN BOND
M  V30 1 2 1 2
M  V30 2 1 2 3
M  V30 3 1 3 4
M  V30 4 1 4 5
M  V30 5 1 4 6
M  V30 6 2 6 7
M  V30 7 1 6 8
M  V30 8 2 8 9
M  V30 9 1 9 10
M  V30 10 2 10 11
M  V30 11 1 11 12
M  V30 12 1 12 13
M  V30 13 2 13 14
M  V30 14 1 14 15
M  V30 15 2 15 16
M  V30 16 1 16 17
M  V30 17 1 17 18
M  V30 18 2 17 19
M  V30 19 1 19 20
M  V30 20 2 20 21
M  V30 21 1 21 22
M  V30 22 2 22 23
M  V30 23 1 23 24
M  V30 24 2 24 25
M  V30 25 1 25 26
M  V30 26 2 26 27
M  V30 27 1 27 28
M  V30 28 2 28 29
M  V30 29 1 23 30
M  V30 30 2 30 31
M  V30 31 1 14 32
M  V30 32 2 32 33
M  V30 33 1 33 8
M  V30 34 1 32 11
M  V30 35 1 31 15
M  V30 36 1 30 19
M  V30 37 1 29 24
M  V30 38 1 1 34
M  V30 39 1 1 35
M  V30 40 1 2 36
M  V30 41 1 3 37
M  V30 42 1 3 38
M  V30 43 1 5 39
M  V30 44 1 5 40
M  V30 45 1 5 41
M  V30 46 1 9 42
M  V30 47 1 12 43
M  V30 48 1 13 44
M  V30 49 1 16 45
M  V30 50 1 21 46
M  V30 51 1 22 47
M  V30 52 1 25 48
M  V30 53 1 26 49
M  V30 54 1 27 50
M  V30 55 1 29 51
M  V30 56 1 31 52
M  V30 57 1 33 53
M  V30 END BOND
M  V30 END CTAB
M  END
>  <Dataset>  (634) 
ChEMBL_Kinases

>  <Ligand_Instance>  (634) 
nan

>  <PDB_ID>  (634) 
nan

>  <Standardized_SMILES>  (634) 
C=CCN(C)C(=O)c1cnc2[nH]cc(-c3cc(F)c4nccc(-c5cccnc5)c4c3)c2c1

>  <Name>  (634) 
nan

>  <Pocket>  (634) 
nan

>  <ATP_Site>  (634) 
nan

>  <Peripheral>  (634) 
nan

>  <Num_H_Atoms_ProtBoundConf>  (634) 
nan

>  <Num_Resolved_Atoms>  (634) 
nan

>  <Num_Not_Resolved_Atoms>  (634) 
nan

$$$$
CHEMBL4780899
     RDKit          3D

  0  0  0  0  0  0  0  0  0  0999 V3000
M  V30 BEGIN CTAB
M  V30 COUNTS 62 65 0 0 0
M  V30 BEGIN ATOM
M  V30 1 C 5.657052 1.760775 2.450388 0
M  V30 2 O 4.725845 0.732370 2.283572 0
M  V30 3 C 3.800714 0.327847 3.230833 0
M  V30 4 O 3.723149 0.858752 4.335891 0
M  V30 5 C 2.874777 -0.762406 2.938223 0
M  V30 6 S 1.684271 -1.255161 4.253820 0
M  V30 7 C 0.901253 -2.619203 3.212685 0
M  V30 8 C 1.602260 -2.543304 2.044305 0
M  V30 9 C 2.603957 -1.639849 1.832122 0
M  V30 10 N 3.398599 -1.478407 0.676934 0
M  V30 11 C 3.267596 -0.197006 0.042569 0
M  V30 12 N 2.296010 0.658534 0.357090 0
M  V30 13 C 2.144102 1.852537 -0.198296 0
M  V30 14 N 0.979614 2.514709 0.345842 0
M  V30 15 C -0.198742 2.171727 -0.393286 0
M  V30 16 C -0.169006 1.384435 -1.523579 0
M  V30 17 C -1.261800 1.006281 -2.274515 0
M  V30 18 C -2.512631 1.438539 -1.885724 0
M  V30 19 C -3.690688 1.034421 -2.675153 0
M  V30 20 N -4.462218 -0.017936 -2.086793 0
M  V30 21 C -3.742352 -1.245585 -1.924296 0
M  V30 22 C -3.381459 -1.872373 -3.256777 0
M  V30 23 N -4.618357 -2.157338 -3.952047 0
M  V30 24 C -4.690649 -3.592441 -4.143101 0
M  V30 25 C -5.796609 -1.688693 -3.286185 0
M  V30 26 C -5.666816 -0.256529 -2.812701 0
M  V30 27 C -2.610913 2.243021 -0.744114 0
M  V30 28 C -3.957467 2.724803 -0.301465 0
M  V30 29 F -4.599564 3.485696 -1.232186 0
M  V30 30 F -3.770330 3.512623 0.824893 0
M  V30 31 F -4.749281 1.671141 0.113913 0
M  V30 32 C -1.468959 2.593290 -0.024598 0
M  V30 33 N 2.994904 2.291586 -1.148562 0
M  V30 34 C 4.009579 1.482902 -1.524448 0
M  V30 35 C 4.133854 0.254490 -0.928358 0
M  V30 36 N 5.190375 -0.582202 -1.318579 0 CHG=1 VAL=4
M  V30 37 O 5.933350 -1.449736 -0.835484 0
M  V30 38 O 5.689895 -0.562924 -2.613924 0 CHG=-1 VAL=1
M  V30 39 H 5.410012 2.385615 3.321366 0
M  V30 40 H 5.658788 2.437323 1.551861 0
M  V30 41 H 6.676764 1.296748 2.530183 0
M  V30 42 H 0.128553 -3.233799 3.524310 0
M  V30 43 H 1.342507 -3.236027 1.258342 0
M  V30 44 H 4.034319 -2.205580 0.291986 0
M  V30 45 H 0.823951 3.182546 1.156405 0
M  V30 46 H 0.771603 0.999888 -1.902503 0
M  V30 47 H -1.174592 0.386386 -3.155043 0
M  V30 48 H -3.330317 0.762640 -3.700450 0
M  V30 49 H -4.390145 1.884414 -2.851588 0
M  V30 50 H -2.861172 -1.186322 -1.254074 0
M  V30 51 H -4.429959 -1.981425 -1.440175 0
M  V30 52 H -2.796256 -1.200571 -3.916856 0
M  V30 53 H -2.780251 -2.779991 -3.104220 0
M  V30 54 H -5.679064 -4.020771 -3.840301 0
M  V30 55 H -3.889390 -4.118100 -3.583477 0
M  V30 56 H -4.465112 -3.769200 -5.219286 0
M  V30 57 H -6.626121 -1.679921 -4.025511 0
M  V30 58 H -6.159351 -2.355498 -2.471847 0
M  V30 59 H -5.804954 0.459921 -3.635593 0
M  V30 60 H -6.522293 -0.104899 -2.105883 0
M  V30 61 H -1.577004 3.226312 0.866947 0
M  V30 62 H 4.664874 1.872744 -2.284975 0
M  V30 END ATOM
M  V30 BEGIN BOND
M  V30 1 1 1 2
M  V30 2 1 2 3
M  V30 3 2 3 4
M  V30 4 1 3 5
M  V30 5 1 5 6
M  V30 6 1 6 7
M  V30 7 2 7 8
M  V30 8 1 8 9
M  V30 9 1 9 10
M  V30 10 1 10 11
M  V30 11 2 11 12
M  V30 12 1 12 13
M  V30 13 1 13 14
M  V30 14 1 14 15
M  V30 15 2 15 16
M  V30 16 1 16 17
M  V30 17 2 17 18
M  V30 18 1 18 19
M  V30 19 1 19 20
M  V30 20 1 20 21
M  V30 21 1 21 22
M  V30 22 1 22 23
M  V30 23 1 23 24
M  V30 24 1 23 25
M  V30 25 1 25 26
M  V30 26 1 18 27
M  V30 27 1 27 28
M  V30 28 1 28 29
M  V30 29 1 28 30
M  V30 30 1 28 31
M  V30 31 2 27 32
M  V30 32 2 13 33
M  V30 33 1 33 34
M  V30 34 2 34 35
M  V30 35 1 35 36
M  V30 36 2 36 37
M  V30 37 1 36 38
M  V30 38 2 9 5
M  V30 39 1 35 11
M  V30 40 1 32 15
M  V30 41 1 26 20
M  V30 42 1 1 39
M  V30 43 1 1 40
M  V30 44 1 1 41
M  V30 45 1 7 42
M  V30 46 1 8 43
M  V30 47 1 10 44
M  V30 48 1 14 45
M  V30 49 1 16 46
M  V30 50 1 17 47
M  V30 51 1 19 48
M  V30 52 1 19 49
M  V30 53 1 21 50
M  V30 54 1 21 51
M  V30 55 1 22 52
M  V30 56 1 22 53
M  V30 57 1 24 54
M  V30 58 1 24 55
M  V30 59 1 24 56
M  V30 60 1 25 57
M  V30 61 1 25 58
M  V30 62 1 26 59
M  V30 63 1 26 60
M  V30 64 1 32 61
M  V30 65 1 34 62
M  V30 END BOND
M  V30 END CTAB
M  END
>  <Dataset>  (635) 
ChEMBL_Kinases

>  <Ligand_Instance>  (635) 
nan

>  <PDB_ID>  (635) 
nan

>  <Standardized_SMILES>  (635) 
COC(=O)c1sccc1Nc1nc(Nc2ccc(CN3CCN(C)CC3)c(C(F)(F)F)c2)ncc1[N+](=O)[O-]

>  <Name>  (635) 
nan

>  <Pocket>  (635) 
nan

>  <ATP_Site>  (635) 
nan

>  <Peripheral>  (635) 
nan

>  <Num_H_Atoms_ProtBoundConf>  (635) 
nan

>  <Num_Resolved_Atoms>  (635) 
nan

>  <Num_Not_Resolved_Atoms>  (635) 
nan

$$$$
CHEMBL4780912
     RDKit          3D

  0  0  0  0  0  0  0  0  0  0999 V3000
M  V30 BEGIN CTAB
M  V30 COUNTS 55 58 0 0 0
M  V30 BEGIN ATOM
M  V30 1 C 4.274104 -2.066816 5.052478 0
M  V30 2 C 4.645906 -1.954373 3.623496 0
M  V30 3 O 5.298339 -2.963666 3.243541 0
M  V30 4 N 4.312829 -0.860440 2.797155 0
M  V30 5 C 4.690095 -0.770127 1.389238 0 CFG=2
M  V30 6 C 5.601245 0.415763 1.122467 0
M  V30 7 C 4.916687 1.645199 1.625696 0
M  V30 8 C 3.537097 1.722341 1.063223 0
M  V30 9 C 3.260470 0.725777 -0.044193 0 CFG=2
M  V30 10 C 1.808818 0.943560 -0.386264 0
M  V30 11 O 1.486120 1.873552 0.422244 0
M  V30 12 N 1.136519 0.199142 -1.392818 0
M  V30 13 C -0.249693 0.502198 -1.624043 0
M  V30 14 C -1.159763 -0.200574 -0.893698 0
M  V30 15 C -2.541259 -0.016697 -1.008509 0
M  V30 16 C -3.456651 -0.807996 -0.190781 0
M  V30 17 C -3.145248 -0.946821 1.167898 0
M  V30 18 N -4.093369 -1.701041 1.754472 0
M  V30 19 N -4.983214 -2.043480 0.838437 0
M  V30 20 C -4.633320 -1.523542 -0.347702 0
M  V30 21 C -5.330561 -1.645534 -1.654461 0
M  V30 22 C -6.661367 -2.324362 -1.417985 0
M  V30 23 C -6.445066 -3.458008 -0.453290 0
M  V30 24 C -6.195945 -2.838275 0.905847 0
M  V30 25 C -2.921979 0.940319 -1.926749 0
M  V30 26 C -2.006148 1.655928 -2.669928 0
M  V30 27 N -0.692380 1.420318 -2.501340 0
M  V30 28 C 3.483995 -0.649905 0.513070 0
M  V30 29 H 3.915406 -1.075790 5.456759 0
M  V30 30 H 5.126763 -2.442097 5.685600 0
M  V30 31 H 3.449129 -2.771471 5.166939 0
M  V30 32 H 3.768548 -0.101192 3.259950 0
M  V30 33 H 5.264741 -1.710527 1.145020 0
M  V30 34 H 6.610554 0.263365 1.552380 0
M  V30 35 H 5.722330 0.504108 0.042149 0
M  V30 36 H 4.829913 1.559608 2.735370 0
M  V30 37 H 5.492726 2.565725 1.347552 0
M  V30 38 H 2.741362 1.539759 1.842724 0
M  V30 39 H 3.288844 2.736845 0.661005 0
M  V30 40 H 3.920455 0.906492 -0.919998 0
M  V30 41 H 1.755183 -0.502837 -1.858241 0
M  V30 42 H -0.840564 -0.946570 -0.179002 0
M  V30 43 H -2.343992 -0.595578 1.820536 0
M  V30 44 H -5.530492 -0.687072 -2.148505 0
M  V30 45 H -4.682275 -2.318053 -2.267298 0
M  V30 46 H -7.068595 -2.670825 -2.403020 0
M  V30 47 H -7.358139 -1.554271 -0.987107 0
M  V30 48 H -5.484255 -3.971619 -0.729998 0
M  V30 49 H -7.291539 -4.166167 -0.405125 0
M  V30 50 H -7.060329 -2.252254 1.272199 0
M  V30 51 H -6.042843 -3.687821 1.634072 0
M  V30 52 H -3.960080 1.122564 -2.055736 0
M  V30 53 H -2.317791 2.403103 -3.386134 0
M  V30 54 H 3.505357 -1.403245 -0.316507 0
M  V30 55 H 2.598405 -0.957560 1.134164 0
M  V30 END ATOM
M  V30 BEGIN BOND
M  V30 1 1 1 2
M  V30 2 2 2 3
M  V30 3 1 2 4
M  V30 4 1 4 5
M  V30 5 1 5 6
M  V30 6 1 6 7
M  V30 7 1 7 8
M  V30 8 1 8 9
M  V30 9 1 9 10
M  V30 10 2 10 11
M  V30 11 1 10 12
M  V30 12 1 12 13
M  V30 13 2 13 14
M  V30 14 1 14 15
M  V30 15 1 15 16
M  V30 16 1 16 17
M  V30 17 2 17 18
M  V30 18 1 18 19
M  V30 19 1 19 20
M  V30 20 1 20 21
M  V30 21 1 21 22
M  V30 22 1 22 23
M  V30 23 1 23 24
M  V30 24 2 15 25
M  V30 25 1 25 26
M  V30 26 2 26 27
M  V30 27 1 9 28
M  V30 28 1 28 5
M  V30 29 1 27 13
M  V30 30 2 20 16
M  V30 31 1 24 19
M  V30 32 1 1 29
M  V30 33 1 1 30
M  V30 34 1 1 31
M  V30 35 1 4 32
M  V30 36 1 5 33 CFG=3
M  V30 37 1 6 34
M  V30 38 1 6 35
M  V30 39 1 7 36
M  V30 40 1 7 37
M  V30 41 1 8 38
M  V30 42 1 8 39
M  V30 43 1 9 40 CFG=3
M  V30 44 1 12 41
M  V30 45 1 14 42
M  V30 46 1 17 43
M  V30 47 1 21 44
M  V30 48 1 21 45
M  V30 49 1 22 46
M  V30 50 1 22 47
M  V30 51 1 23 48
M  V30 52 1 23 49
M  V30 53 1 24 50
M  V30 54 1 24 51
M  V30 55 1 25 52
M  V30 56 1 26 53
M  V30 57 1 28 54
M  V30 58 1 28 55
M  V30 END BOND
M  V30 END CTAB
M  END
>  <Dataset>  (636) 
ChEMBL_Kinases

>  <Ligand_Instance>  (636) 
nan

>  <PDB_ID>  (636) 
nan

>  <Standardized_SMILES>  (636) 
CC(=O)N[C@@H]1CCC[C@H](C(=O)Nc2cc(-c3cnn4c3CCCC4)ccn2)C1

>  <Name>  (636) 
nan

>  <Pocket>  (636) 
nan

>  <ATP_Site>  (636) 
nan

>  <Peripheral>  (636) 
nan

>  <Num_H_Atoms_ProtBoundConf>  (636) 
nan

>  <Num_Resolved_Atoms>  (636) 
nan

>  <Num_Not_Resolved_Atoms>  (636) 
nan

$$$$
CHEMBL4780999
     RDKit          3D

  0  0  0  0  0  0  0  0  0  0999 V3000
M  V30 BEGIN CTAB
M  V30 COUNTS 55 59 0 0 0
M  V30 BEGIN ATOM
M  V30 1 C 4.334048 0.368496 4.447061 0
M  V30 2 C 3.061469 -0.404109 4.291341 0
M  V30 3 C 3.204692 -1.690453 3.553500 0
M  V30 4 S 3.797497 -1.574294 1.919165 0
M  V30 5 O 3.866213 -2.958871 1.332070 0
M  V30 6 O 5.179884 -1.007451 1.818352 0
M  V30 7 N 2.782313 -0.637511 0.922350 0
M  V30 8 C 2.245116 0.663521 0.761747 0
M  V30 9 C 2.913162 1.620050 0.036054 0
M  V30 10 F 4.101079 1.276143 -0.529184 0
M  V30 11 C 2.414654 2.894789 -0.127600 0
M  V30 12 C 1.211999 3.172924 0.469323 0
M  V30 13 C 0.453302 2.294431 1.219266 0
M  V30 14 C -0.812947 2.682130 1.792774 0
M  V30 15 O -0.630835 3.793076 2.397536 0
M  V30 16 C -2.146196 2.132023 1.832553 0
M  V30 17 N -3.062818 2.688498 2.632820 0
M  V30 18 N -4.221320 2.022222 2.499193 0
M  V30 19 C -4.122368 1.012177 1.617917 0
M  V30 20 N -4.954489 0.082692 1.138093 0
M  V30 21 C -4.518923 -0.823295 0.212576 0
M  V30 22 C -3.187467 -0.739404 -0.205886 0
M  V30 23 C -2.756359 -1.711924 -1.186929 0
M  V30 24 C -1.443829 -2.137077 -1.181916 0
M  V30 25 C -1.067723 -3.064886 -2.132087 0
M  V30 26 C -1.964831 -3.555623 -3.057959 0
M  V30 27 C -1.530398 -4.553207 -4.067863 0
M  V30 28 N -2.459044 -5.638323 -4.219508 0
M  V30 29 N -1.865565 -6.716560 -3.963710 0
M  V30 30 N -0.532833 -6.470718 -3.628466 0
M  V30 31 N -0.307019 -5.219373 -3.680122 0
M  V30 32 C -3.282279 -3.136810 -3.072393 0
M  V30 33 C -3.663790 -2.209219 -2.124578 0
M  V30 34 C -2.317806 0.212874 0.279597 0
M  V30 35 C -2.808824 1.100113 1.210796 0
M  V30 36 C 1.045721 1.039903 1.321677 0
M  V30 37 F 0.358301 0.098892 2.052139 0
M  V30 38 H 5.240191 -0.241429 4.575203 0
M  V30 39 H 4.242644 0.975805 5.393085 0
M  V30 40 H 4.441518 1.168688 3.659298 0
M  V30 41 H 2.287430 0.257701 3.912181 0
M  V30 42 H 2.726561 -0.687359 5.333211 0
M  V30 43 H 3.778011 -2.444731 4.125838 0
M  V30 44 H 2.164714 -2.128875 3.491862 0
M  V30 45 H 2.301269 -1.030471 0.070683 0
M  V30 46 H 2.949343 3.630022 -0.697468 0
M  V30 47 H 0.845055 4.182798 0.323763 0
M  V30 48 H -5.065705 2.303225 3.043371 0
M  V30 49 H -5.208677 -1.556663 -0.153548 0
M  V30 50 H -0.769772 -1.720372 -0.429488 0
M  V30 51 H -0.031345 -3.371246 -2.093407 0
M  V30 52 H -1.306716 -4.059881 -5.053841 0
M  V30 53 H -3.962836 -3.537729 -3.808596 0
M  V30 54 H -4.695706 -1.861857 -2.113089 0
M  V30 55 H -1.302685 0.275595 -0.051509 0
M  V30 END ATOM
M  V30 BEGIN BOND
M  V30 1 1 1 2
M  V30 2 1 2 3
M  V30 3 1 3 4
M  V30 4 2 4 5
M  V30 5 2 4 6
M  V30 6 1 4 7
M  V30 7 1 7 8
M  V30 8 2 8 9
M  V30 9 1 9 10
M  V30 10 1 9 11
M  V30 11 2 11 12
M  V30 12 1 12 13
M  V30 13 1 13 14
M  V30 14 2 14 15
M  V30 15 1 14 16
M  V30 16 2 16 17
M  V30 17 1 17 18
M  V30 18 1 18 19
M  V30 19 2 19 20
M  V30 20 1 20 21
M  V30 21 2 21 22
M  V30 22 1 22 23
M  V30 23 2 23 24
M  V30 24 1 24 25
M  V30 25 2 25 26
M  V30 26 1 26 27
M  V30 27 1 27 28
M  V30 28 2 28 29
M  V30 29 1 29 30
M  V30 30 2 30 31
M  V30 31 1 26 32
M  V30 32 2 32 33
M  V30 33 1 22 34
M  V30 34 2 34 35
M  V30 35 2 13 36
M  V30 36 1 36 37
M  V30 37 1 36 8
M  V30 38 1 35 16
M  V30 39 1 35 19
M  V30 40 1 33 23
M  V30 41 1 31 27
M  V30 42 1 1 38
M  V30 43 1 1 39
M  V30 44 1 1 40
M  V30 45 1 2 41
M  V30 46 1 2 42
M  V30 47 1 3 43
M  V30 48 1 3 44
M  V30 49 1 7 45
M  V30 50 1 11 46
M  V30 51 1 12 47
M  V30 52 1 18 48
M  V30 53 1 21 49
M  V30 54 1 24 50
M  V30 55 1 25 51
M  V30 56 1 27 52
M  V30 57 1 32 53
M  V30 58 1 33 54
M  V30 59 1 34 55
M  V30 END BOND
M  V30 END CTAB
M  END
>  <Dataset>  (637) 
ChEMBL_Kinases

>  <Ligand_Instance>  (637) 
nan

>  <PDB_ID>  (637) 
nan

>  <Standardized_SMILES>  (637) 
CCCS(=O)(=O)Nc1c(F)ccc(C(=O)c2n[nH]c3ncc(-c4ccc(C5N=NN=N5)cc4)cc23)c1F

>  <Name>  (637) 
nan

>  <Pocket>  (637) 
nan

>  <ATP_Site>  (637) 
nan

>  <Peripheral>  (637) 
nan

>  <Num_H_Atoms_ProtBoundConf>  (637) 
nan

>  <Num_Resolved_Atoms>  (637) 
nan

>  <Num_Not_Resolved_Atoms>  (637) 
nan

$$$$
CHEMBL4781021
     RDKit          3D

  0  0  0  0  0  0  0  0  0  0999 V3000
M  V30 BEGIN CTAB
M  V30 COUNTS 63 67 0 0 0
M  V30 BEGIN ATOM
M  V30 1 C 2.946824 -2.074024 4.730891 0
M  V30 2 O 2.634093 -0.900387 4.011102 0
M  V30 3 C 3.573006 -0.168119 3.309384 0
M  V30 4 C 4.937872 -0.461177 3.204549 0
M  V30 5 C 5.712666 0.397789 2.450666 0
M  V30 6 C 5.200739 1.510854 1.809899 0
M  V30 7 C 3.857854 1.785876 1.922078 0
M  V30 8 N 3.386736 2.879747 1.280912 0
M  V30 9 C 2.076899 3.214038 1.344140 0
M  V30 10 N 1.345498 4.270091 0.737797 0
M  V30 11 C 0.340938 4.032687 -0.275667 0
M  V30 12 C -0.300757 5.069081 -0.920447 0
M  V30 13 C -1.283904 4.853349 -1.876336 0
M  V30 14 C -1.653307 3.574137 -2.213322 0
M  V30 15 C -1.043995 2.513172 -1.601370 0
M  V30 16 N -1.188791 1.079979 -1.692765 0
M  V30 17 C -2.154079 0.692062 -0.729448 0
M  V30 18 O -2.634798 1.685516 -0.074149 0
M  V30 19 C -2.646594 -0.641251 -0.407835 0
M  V30 20 C -1.946748 -1.746479 -0.875532 0
M  V30 21 C -2.376630 -3.028339 -0.603086 0
M  V30 22 N -1.738926 -4.250242 -0.990137 0
M  V30 23 C -2.481622 -5.518953 -0.872595 0
M  V30 24 C -1.831243 -6.548916 -1.749513 0
M  V30 25 O -1.383896 -6.013218 -2.952997 0
M  V30 26 C -0.403355 -5.069202 -2.795867 0
M  V30 27 C -0.379335 -4.364816 -1.475614 0
M  V30 28 C -3.539925 -3.141717 0.158047 0
M  V30 29 C -4.235239 -2.048376 0.622223 0
M  V30 30 C -5.467163 -2.207394 1.424569 0
M  V30 31 F -6.373191 -1.182463 1.121453 0
M  V30 32 F -5.256879 -2.162028 2.779998 0
M  V30 33 F -6.048086 -3.391844 1.024676 0
M  V30 34 C -3.789998 -0.775644 0.341082 0
M  V30 35 C -0.054722 2.748592 -0.640664 0
M  V30 36 C 1.233572 2.390593 2.093984 0
M  V30 37 C 1.701721 1.273313 2.750155 0
M  V30 38 C 3.060066 0.940617 2.673374 0
M  V30 39 H 2.153652 -2.257494 5.489565 0
M  V30 40 H 3.929255 -2.030983 5.216382 0
M  V30 41 H 2.882766 -2.951596 4.040162 0
M  V30 42 H 5.247455 -1.345546 3.735330 0
M  V30 43 H 6.752921 0.147340 2.392834 0
M  V30 44 H 5.927044 2.091587 1.254550 0
M  V30 45 H 1.512362 5.247297 1.007492 0
M  V30 46 H -0.030601 6.086912 -0.676595 0
M  V30 47 H -1.810565 5.627101 -2.404497 0
M  V30 48 H -2.385069 3.212032 -2.918230 0
M  V30 49 H -0.791934 0.293954 -2.253166 0
M  V30 50 H -1.046578 -1.674847 -1.466855 0
M  V30 51 H -2.381637 -5.846132 0.170105 0
M  V30 52 H -3.547446 -5.366542 -1.138085 0
M  V30 53 H -1.049432 -7.145002 -1.213084 0
M  V30 54 H -2.629730 -7.285731 -1.999285 0
M  V30 55 H -0.558208 -4.278364 -3.577672 0
M  V30 56 H 0.621150 -5.465568 -2.988056 0
M  V30 57 H 0.236498 -4.922597 -0.717099 0
M  V30 58 H 0.134552 -3.388883 -1.584854 0
M  V30 59 H -3.954031 -4.127780 0.423026 0
M  V30 60 H -4.359744 0.077280 0.724680 0
M  V30 61 H 0.496650 1.981910 -0.105429 0
M  V30 62 H 0.155756 2.543351 2.228790 0
M  V30 63 H 1.044149 0.628826 3.336647 0
M  V30 END ATOM
M  V30 BEGIN BOND
M  V30 1 1 1 2
M  V30 2 1 2 3
M  V30 3 2 3 4
M  V30 4 1 4 5
M  V30 5 2 5 6
M  V30 6 1 6 7
M  V30 7 2 7 8
M  V30 8 1 8 9
M  V30 9 1 9 10
M  V30 10 1 10 11
M  V30 11 2 11 12
M  V30 12 1 12 13
M  V30 13 2 13 14
M  V30 14 1 14 15
M  V30 15 1 15 16
M  V30 16 1 16 17
M  V30 17 2 17 18
M  V30 18 1 17 19
M  V30 19 2 19 20
M  V30 20 1 20 21
M  V30 21 1 21 22
M  V30 22 1 22 23
M  V30 23 1 23 24
M  V30 24 1 24 25
M  V30 25 1 25 26
M  V30 26 1 26 27
M  V30 27 2 21 28
M  V30 28 1 28 29
M  V30 29 1 29 30
M  V30 30 1 30 31
M  V30 31 1 30 32
M  V30 32 1 30 33
M  V30 33 2 29 34
M  V30 34 2 15 35
M  V30 35 2 9 36
M  V30 36 1 36 37
M  V30 37 2 37 38
M  V30 38 1 38 3
M  V30 39 1 38 7
M  V30 40 1 35 11
M  V30 41 1 34 19
M  V30 42 1 27 22
M  V30 43 1 1 39
M  V30 44 1 1 40
M  V30 45 1 1 41
M  V30 46 1 4 42
M  V30 47 1 5 43
M  V30 48 1 6 44
M  V30 49 1 10 45
M  V30 50 1 12 46
M  V30 51 1 13 47
M  V30 52 1 14 48
M  V30 53 1 16 49
M  V30 54 1 20 50
M  V30 55 1 23 51
M  V30 56 1 23 52
M  V30 57 1 24 53
M  V30 58 1 24 54
M  V30 59 1 26 55
M  V30 60 1 26 56
M  V30 61 1 27 57
M  V30 62 1 27 58
M  V30 63 1 28 59
M  V30 64 1 34 60
M  V30 65 1 35 61
M  V30 66 1 36 62
M  V30 67 1 37 63
M  V30 END BOND
M  V30 END CTAB
M  END
>  <Dataset>  (638) 
ChEMBL_Kinases

>  <Ligand_Instance>  (638) 
nan

>  <PDB_ID>  (638) 
nan

>  <Standardized_SMILES>  (638) 
COc1cccc2nc(Nc3cccc(NC(=O)c4cc(N5CCOCC5)cc(C(F)(F)F)c4)c3)ccc12

>  <Name>  (638) 
nan

>  <Pocket>  (638) 
nan

>  <ATP_Site>  (638) 
nan

>  <Peripheral>  (638) 
nan

>  <Num_H_Atoms_ProtBoundConf>  (638) 
nan

>  <Num_Resolved_Atoms>  (638) 
nan

>  <Num_Not_Resolved_Atoms>  (638) 
nan

$$$$
CHEMBL4211584
     RDKit          3D

  0  0  0  0  0  0  0  0  0  0999 V3000
M  V30 BEGIN CTAB
M  V30 COUNTS 55 59 0 0 0
M  V30 BEGIN ATOM
M  V30 1 O 0.198175 -3.540878 1.691562 0
M  V30 2 C -0.155142 -2.736640 0.769662 0
M  V30 3 N 0.671556 -1.595641 0.441418 0
M  V30 4 C 0.559753 -0.521508 -0.526373 0
M  V30 5 C 0.603618 0.758122 0.285242 0
M  V30 6 N 2.008943 0.927475 0.606866 0
M  V30 7 C 2.813938 2.114455 0.614776 0
M  V30 8 N 3.866503 2.082175 -0.226586 0
M  V30 9 C 4.717357 3.121183 -0.334600 0
M  V30 10 N 4.526117 4.235644 0.413793 0
M  V30 11 C 3.485381 4.311750 1.269500 0
M  V30 12 N 3.002001 5.233125 2.143410 0
M  V30 13 C 1.896531 4.767338 2.758902 0
M  V30 14 C 1.613954 3.479510 2.288020 0
M  V30 15 C 2.602913 3.246044 1.387937 0
M  V30 16 C 2.717949 -0.274494 0.976471 0
M  V30 17 C 1.885687 -1.458332 1.225256 0
M  V30 18 C -1.417441 -2.988787 0.045464 0
M  V30 19 C -2.312644 -1.846647 0.248193 0
M  V30 20 C -3.106101 -1.153187 -0.635437 0
M  V30 21 C -3.885492 -0.091002 -0.226015 0
M  V30 22 C -3.905723 0.327471 1.094306 0
M  V30 23 Br -5.044529 1.812180 1.467267 0
M  V30 24 C -3.114393 -0.360978 1.986051 0
M  V30 25 C -2.340202 -1.415940 1.580259 0
M  V30 26 C -2.108113 -4.169921 0.717178 0
M  V30 27 C -1.656998 -5.500151 0.138462 0
M  V30 28 N -2.078300 -5.649920 -1.223831 0
M  V30 29 C -2.300092 -4.319987 -1.807276 0
M  V30 30 C -1.202576 -3.394791 -1.381338 0
M  V30 31 H 1.468541 -0.521337 -1.198671 0
M  V30 32 H -0.344386 -0.505552 -1.117006 0
M  V30 33 H 0.202384 1.578569 -0.341501 0
M  V30 34 H -0.008700 0.613960 1.214939 0
M  V30 35 H 5.586649 3.158537 -0.995072 0
M  V30 36 H 3.484402 6.171071 2.269540 0
M  V30 37 H 1.329181 5.316132 3.498365 0
M  V30 38 H 0.800170 2.827575 2.575401 0
M  V30 39 H 3.293070 -0.029424 1.894622 0
M  V30 40 H 3.517766 -0.497790 0.215418 0
M  V30 41 H 1.659878 -1.593720 2.325155 0
M  V30 42 H 2.495498 -2.378669 0.979031 0
M  V30 43 H -3.032586 -1.542839 -1.648149 0
M  V30 44 H -4.468779 0.372089 -1.031221 0
M  V30 45 H -3.174869 0.013726 2.997720 0
M  V30 46 H -1.768399 -1.856656 2.410477 0
M  V30 47 H -1.882617 -4.192563 1.807124 0
M  V30 48 H -3.205194 -4.110631 0.561563 0
M  V30 49 H -2.198236 -6.269578 0.736939 0
M  V30 50 H -0.561122 -5.613718 0.283817 0
M  V30 51 H -2.946349 -6.236172 -1.299886 0
M  V30 52 H -2.313706 -4.500459 -2.903920 0
M  V30 53 H -3.268605 -3.922243 -1.463901 0
M  V30 54 H -0.266210 -4.028643 -1.368627 0
M  V30 55 H -0.995330 -2.590271 -2.083449 0
M  V30 END ATOM
M  V30 BEGIN BOND
M  V30 1 2 1 2
M  V30 2 1 2 3
M  V30 3 1 3 4
M  V30 4 1 4 5
M  V30 5 1 5 6
M  V30 6 1 6 7
M  V30 7 2 7 8
M  V30 8 1 8 9
M  V30 9 2 9 10
M  V30 10 1 10 11
M  V30 11 1 11 12
M  V30 12 1 12 13
M  V30 13 2 13 14
M  V30 14 1 14 15
M  V30 15 1 6 16
M  V30 16 1 16 17
M  V30 17 1 2 18
M  V30 18 1 18 19
M  V30 19 2 19 20
M  V30 20 1 20 21
M  V30 21 2 21 22
M  V30 22 1 22 23
M  V30 23 1 22 24
M  V30 24 2 24 25
M  V30 25 1 18 26
M  V30 26 1 26 27
M  V30 27 1 27 28
M  V30 28 1 28 29
M  V30 29 1 29 30
M  V30 30 1 17 3
M  V30 31 1 30 18
M  V30 32 1 15 7
M  V30 33 1 25 19
M  V30 34 2 15 11
M  V30 35 1 4 31
M  V30 36 1 4 32
M  V30 37 1 5 33
M  V30 38 1 5 34
M  V30 39 1 9 35
M  V30 40 1 12 36
M  V30 41 1 13 37
M  V30 42 1 14 38
M  V30 43 1 16 39
M  V30 44 1 16 40
M  V30 45 1 17 41
M  V30 46 1 17 42
M  V30 47 1 20 43
M  V30 48 1 21 44
M  V30 49 1 24 45
M  V30 50 1 25 46
M  V30 51 1 26 47
M  V30 52 1 26 48
M  V30 53 1 27 49
M  V30 54 1 27 50
M  V30 55 1 28 51
M  V30 56 1 29 52
M  V30 57 1 29 53
M  V30 58 1 30 54
M  V30 59 1 30 55
M  V30 END BOND
M  V30 END CTAB
M  END
>  <Dataset>  (639) 
ChEMBL_Kinases

>  <Ligand_Instance>  (639) 
nan

>  <PDB_ID>  (639) 
nan

>  <Standardized_SMILES>  (639) 
O=C(N1CCN(c2ncnc3[nH]ccc23)CC1)C1(c2ccc(Br)cc2)CCNCC1

>  <Name>  (639) 
nan

>  <Pocket>  (639) 
nan

>  <ATP_Site>  (639) 
nan

>  <Peripheral>  (639) 
nan

>  <Num_H_Atoms_ProtBoundConf>  (639) 
nan

>  <Num_Resolved_Atoms>  (639) 
nan

>  <Num_Not_Resolved_Atoms>  (639) 
nan

$$$$
CHEMBL4211574
     RDKit          3D

  0  0  0  0  0  0  0  0  0  0999 V3000
M  V30 BEGIN CTAB
M  V30 COUNTS 37 40 0 0 0
M  V30 BEGIN ATOM
M  V30 1 C -0.705417 -5.698451 3.690737 0
M  V30 2 C -1.081524 -4.437714 3.025521 0
M  V30 3 C -2.342986 -3.945796 3.250963 0
M  V30 4 C -2.713383 -2.750135 2.639549 0
M  V30 5 C -1.754244 -2.172786 1.855839 0
M  V30 6 C -0.485072 -2.645213 1.614181 0
M  V30 7 C 0.375778 -1.875550 0.720504 0
M  V30 8 N -0.013141 -0.701558 0.208970 0
M  V30 9 C 0.747875 0.017413 -0.628072 0
M  V30 10 N 0.130732 1.217114 -1.020455 0
M  V30 11 C 0.151848 2.619349 -0.748692 0
M  V30 12 C 0.704418 3.646602 -1.487468 0
M  V30 13 F 1.285861 3.249526 -2.633391 0
M  V30 14 C 0.608274 4.928520 -0.998759 0
M  V30 15 N -0.003315 5.212537 0.168530 0
M  V30 16 C -0.550996 4.205640 0.902229 0
M  V30 17 C -0.487142 2.896576 0.464389 0
M  V30 18 F -1.068562 1.996170 1.291338 0
M  V30 19 C 1.991254 -0.441314 -1.001959 0
M  V30 20 C 2.921808 0.126036 -1.839746 0
M  V30 21 C 3.960756 -0.810660 -1.815921 0
M  V30 22 C 3.587900 -1.858667 -0.979366 0
M  V30 23 N 2.339702 -1.620173 -0.466079 0
M  V30 24 N 1.598922 -2.335139 0.358646 0
M  V30 25 N -0.204557 -3.800535 2.237231 0
M  V30 26 H -1.638846 -6.331500 3.742068 0
M  V30 27 H 0.095341 -6.213459 3.162761 0
M  V30 28 H -0.392538 -5.498674 4.748624 0
M  V30 29 H -3.056115 -4.473247 3.897187 0
M  V30 30 H -3.696324 -2.340684 2.794040 0
M  V30 31 H -2.075736 -1.239417 1.393275 0
M  V30 32 H -0.618327 1.230322 -1.759594 0
M  V30 33 H 1.064642 5.708513 -1.625761 0
M  V30 34 H -1.029590 4.498156 1.836904 0
M  V30 35 H 2.814035 1.066415 -2.357601 0
M  V30 36 H 4.881096 -0.689555 -2.375904 0
M  V30 37 H 4.255220 -2.695085 -0.821746 0
M  V30 END ATOM
M  V30 BEGIN BOND
M  V30 1 1 1 2
M  V30 2 2 2 3
M  V30 3 1 3 4
M  V30 4 2 4 5
M  V30 5 1 5 6
M  V30 6 1 6 7
M  V30 7 1 7 8
M  V30 8 2 8 9
M  V30 9 1 9 10
M  V30 10 1 10 11
M  V30 11 2 11 12
M  V30 12 1 12 13
M  V30 13 1 12 14
M  V30 14 2 14 15
M  V30 15 1 15 16
M  V30 16 2 16 17
M  V30 17 1 17 18
M  V30 18 1 9 19
M  V30 19 2 19 20
M  V30 20 1 20 21
M  V30 21 2 21 22
M  V30 22 1 22 23
M  V30 23 1 23 24
M  V30 24 2 6 25
M  V30 25 1 25 2
M  V30 26 2 24 7
M  V30 27 1 17 11
M  V30 28 1 23 19
M  V30 29 1 1 26
M  V30 30 1 1 27
M  V30 31 1 1 28
M  V30 32 1 3 29
M  V30 33 1 4 30
M  V30 34 1 5 31
M  V30 35 1 10 32
M  V30 36 1 14 33
M  V30 37 1 16 34
M  V30 38 1 20 35
M  V30 39 1 21 36
M  V30 40 1 22 37
M  V30 END BOND
M  V30 END CTAB
M  END
>  <Dataset>  (640) 
ChEMBL_Kinases

>  <Ligand_Instance>  (640) 
nan

>  <PDB_ID>  (640) 
nan

>  <Standardized_SMILES>  (640) 
Cc1cccc(-c2nc(Nc3c(F)cncc3F)c3cccn3n2)n1

>  <Name>  (640) 
nan

>  <Pocket>  (640) 
nan

>  <ATP_Site>  (640) 
nan

>  <Peripheral>  (640) 
nan

>  <Num_H_Atoms_ProtBoundConf>  (640) 
nan

>  <Num_Resolved_Atoms>  (640) 
nan

>  <Num_Not_Resolved_Atoms>  (640) 
nan

$$$$
CHEMBL4211563
     RDKit          3D

  0  0  0  0  0  0  0  0  0  0999 V3000
M  V30 BEGIN CTAB
M  V30 COUNTS 50 53 0 0 0
M  V30 BEGIN ATOM
M  V30 1 C 2.033350 0.802367 5.579278 0
M  V30 2 C 2.735931 0.255128 4.403831 0
M  V30 3 C 3.726817 -0.720398 4.550891 0
M  V30 4 C 4.386592 -1.235176 3.451949 0
M  V30 5 C 4.085122 -0.801711 2.194077 0
M  V30 6 C 4.716070 -1.277993 1.000574 0
M  V30 7 N 5.217847 -1.673717 0.029917 0
M  V30 8 C 3.108847 0.154644 2.092520 0
M  V30 9 C 2.407140 0.713872 3.156568 0
M  V30 10 N 1.399420 1.715460 2.906583 0
M  V30 11 C 1.146812 2.113392 1.563238 0
M  V30 12 N 1.754494 3.116567 0.927176 0
M  V30 13 C 1.446036 3.425596 -0.366524 0
M  V30 14 C 0.485304 2.671844 -1.004946 0
M  V30 15 F 0.120858 2.911424 -2.285452 0
M  V30 16 C -0.156536 1.630157 -0.368378 0
M  V30 17 C -1.187593 0.770181 -0.955532 0
M  V30 18 C -2.282540 1.150961 -1.711259 0
M  V30 19 C -3.143188 0.177871 -2.175851 0
M  V30 20 C -4.259759 0.605042 -2.950508 0
M  V30 21 N -5.180006 0.970309 -3.583193 0
M  V30 22 C -2.926210 -1.171015 -1.896627 0
M  V30 23 C -1.836681 -1.580788 -1.141526 0
M  V30 24 C -0.990926 -0.587229 -0.688713 0
M  V30 25 C -1.857321 -3.061258 -1.004854 0 CFG=1
M  V30 26 C -0.676610 -3.663287 -1.705831 0
M  V30 27 C -1.851598 -3.483999 0.447640 0
M  V30 28 O -0.737243 -3.036646 1.121960 0
M  V30 29 C -3.169383 -3.466367 -1.634337 0
M  V30 30 N -3.687592 -2.294147 -2.281007 0
M  V30 31 N 0.212601 1.392544 0.918491 0
M  V30 32 H 2.464798 1.699138 6.017776 0
M  V30 33 H 2.112354 0.014038 6.383229 0
M  V30 34 H 0.939756 0.856789 5.375410 0
M  V30 35 H 4.001236 -1.095331 5.526227 0
M  V30 36 H 5.163426 -1.998364 3.551928 0
M  V30 37 H 2.845963 0.521596 1.095905 0
M  V30 38 H 0.911686 2.089647 3.750712 0
M  V30 39 H 1.941181 4.239603 -0.878308 0
M  V30 40 H -2.361732 2.200380 -1.869954 0
M  V30 41 H -0.145226 -0.961910 -0.096870 0
M  V30 42 H -0.044698 -4.282645 -1.019134 0
M  V30 43 H -0.985954 -4.346768 -2.507737 0
M  V30 44 H 0.011151 -2.866037 -2.071576 0
M  V30 45 H -2.767801 -3.110406 0.948502 0
M  V30 46 H -1.918499 -4.588307 0.473050 0
M  V30 47 H -0.968229 -3.039293 2.097628 0
M  V30 48 H -2.972430 -4.246444 -2.414478 0
M  V30 49 H -3.868654 -3.870922 -0.873653 0
M  V30 50 H -4.496860 -2.379828 -2.909550 0
M  V30 END ATOM
M  V30 BEGIN BOND
M  V30 1 1 1 2
M  V30 2 2 2 3
M  V30 3 1 3 4
M  V30 4 2 4 5
M  V30 5 1 5 6
M  V30 6 3 6 7
M  V30 7 1 5 8
M  V30 8 2 8 9
M  V30 9 1 9 10
M  V30 10 1 10 11
M  V30 11 2 11 12
M  V30 12 1 12 13
M  V30 13 2 13 14
M  V30 14 1 14 15
M  V30 15 1 14 16
M  V30 16 1 16 17
M  V30 17 2 17 18
M  V30 18 1 18 19
M  V30 19 1 19 20
M  V30 20 3 20 21
M  V30 21 2 19 22
M  V30 22 1 22 23
M  V30 23 2 23 24
M  V30 24 1 23 25
M  V30 25 1 25 26 CFG=3
M  V30 26 1 25 27
M  V30 27 1 27 28
M  V30 28 1 25 29
M  V30 29 1 29 30
M  V30 30 2 16 31
M  V30 31 1 9 2
M  V30 32 1 31 11
M  V30 33 1 24 17
M  V30 34 1 30 22
M  V30 35 1 1 32
M  V30 36 1 1 33
M  V30 37 1 1 34
M  V30 38 1 3 35
M  V30 39 1 4 36
M  V30 40 1 8 37
M  V30 41 1 10 38
M  V30 42 1 13 39
M  V30 43 1 18 40
M  V30 44 1 24 41
M  V30 45 1 26 42
M  V30 46 1 26 43
M  V30 47 1 26 44
M  V30 48 1 27 45
M  V30 49 1 27 46
M  V30 50 1 28 47
M  V30 51 1 29 48
M  V30 52 1 29 49
M  V30 53 1 30 50
M  V30 END BOND
M  V30 END CTAB
M  END
>  <Dataset>  (641) 
ChEMBL_Kinases

>  <Ligand_Instance>  (641) 
nan

>  <PDB_ID>  (641) 
nan

>  <Standardized_SMILES>  (641) 
Cc1ccc(C#N)cc1Nc1ncc(F)c(-c2cc(C#N)c3c(c2)[C@@](C)(CO)CN3)n1

>  <Name>  (641) 
nan

>  <Pocket>  (641) 
nan

>  <ATP_Site>  (641) 
nan

>  <Peripheral>  (641) 
nan

>  <Num_H_Atoms_ProtBoundConf>  (641) 
nan

>  <Num_Resolved_Atoms>  (641) 
nan

>  <Num_Not_Resolved_Atoms>  (641) 
nan

$$$$
CHEMBL4781702
     RDKit          3D

  0  0  0  0  0  0  0  0  0  0999 V3000
M  V30 BEGIN CTAB
M  V30 COUNTS 56 59 0 0 0
M  V30 BEGIN ATOM
M  V30 1 C 7.983998 -0.490574 3.600086 0
M  V30 2 C 7.739073 -1.704427 2.700971 0
M  V30 3 C 7.157965 -1.260399 1.443106 0
M  V30 4 O 7.264482 -0.083912 1.884503 0
M  V30 5 N 6.703409 -1.945045 0.298170 0
M  V30 6 C 6.142611 -1.218848 -0.835561 0
M  V30 7 C 6.901841 -0.710872 -1.941137 0
M  V30 8 C 5.885511 -0.222278 -2.553181 0
M  V30 9 C 4.638783 0.146711 -2.892992 0
M  V30 10 C 4.037165 -0.427518 -1.706745 0
M  V30 11 C 2.563761 -0.366093 -1.481750 0
M  V30 12 O 2.001794 -0.666681 -0.397705 0
M  V30 13 N 1.624705 0.039206 -2.473900 0
M  V30 14 C 0.327455 -0.063238 -1.853149 0
M  V30 15 C -0.354312 0.928438 -1.212988 0
M  V30 16 C -1.606958 0.723335 -0.615107 0
M  V30 17 C -2.143257 -0.577860 -0.705956 0
M  V30 18 N -3.382523 -0.657295 -0.077296 0
M  V30 19 C -4.068361 -1.875976 -0.093534 0
M  V30 20 O -3.813760 -2.978477 -0.566993 0
M  V30 21 C -5.395613 -2.000604 0.568273 0
M  V30 22 C -6.174506 -3.098709 0.712833 0
M  V30 23 C -7.362343 -3.119798 1.344730 0
M  V30 24 C -7.887622 -1.988690 1.908211 0
M  V30 25 C -7.088246 -0.811709 1.771667 0
M  V30 26 C -7.586156 0.426250 2.335039 0
M  V30 27 C -8.819484 0.480975 3.044077 0
M  V30 28 C -9.000403 1.810114 3.472197 0
M  V30 29 N -7.926885 2.534384 3.041858 0
M  V30 30 N -7.176937 1.666145 2.405262 0
M  V30 31 N -5.910415 -0.877312 1.124192 0
M  V30 32 C -1.396586 -1.459756 -1.350368 0
M  V30 33 C -0.147423 -1.403452 -1.987173 0
M  V30 34 C 4.737695 -1.100707 -0.682595 0
M  V30 35 H 7.062972 0.063843 3.814572 0
M  V30 36 H 8.702011 0.224330 3.126836 0
M  V30 37 H 8.475386 -0.805694 4.551440 0
M  V30 38 H 7.127295 -2.386314 3.291352 0
M  V30 39 H 8.737438 -2.192480 2.516785 0
M  V30 40 H 6.812600 -2.972509 0.389783 0
M  V30 41 H 7.937511 -0.849643 -1.958991 0
M  V30 42 H 6.426570 0.218657 -3.506978 0
M  V30 43 H 4.054549 0.632350 -3.623370 0
M  V30 44 H 1.965670 0.319816 -3.419146 0
M  V30 45 H 0.212970 1.831201 -1.249114 0
M  V30 46 H -1.912997 1.662003 -0.187969 0
M  V30 47 H -3.838341 0.120958 0.430361 0
M  V30 48 H -5.779510 -4.008521 0.268846 0
M  V30 49 H -7.945249 -4.042045 1.424023 0
M  V30 50 H -8.835972 -1.962297 2.423423 0
M  V30 51 H -9.572919 -0.267240 3.286284 0
M  V30 52 H -9.864150 2.175530 4.045432 0
M  V30 53 H -6.265019 1.975201 1.960132 0
M  V30 54 H -1.828900 -2.459623 -1.411979 0
M  V30 55 H 0.302827 -2.222144 -2.459793 0
M  V30 56 H 4.180304 -1.506572 0.183872 0
M  V30 END ATOM
M  V30 BEGIN BOND
M  V30 1 1 1 2
M  V30 2 1 2 3
M  V30 3 2 3 4
M  V30 4 1 3 5
M  V30 5 1 5 6
M  V30 6 2 6 7
M  V30 7 1 7 8
M  V30 8 2 8 9
M  V30 9 1 9 10
M  V30 10 1 10 11
M  V30 11 2 11 12
M  V30 12 1 11 13
M  V30 13 1 13 14
M  V30 14 2 14 15
M  V30 15 1 15 16
M  V30 16 2 16 17
M  V30 17 1 17 18
M  V30 18 1 18 19
M  V30 19 2 19 20
M  V30 20 1 19 21
M  V30 21 2 21 22
M  V30 22 1 22 23
M  V30 23 2 23 24
M  V30 24 1 24 25
M  V30 25 1 25 26
M  V30 26 2 26 27
M  V30 27 1 27 28
M  V30 28 2 28 29
M  V30 29 1 29 30
M  V30 30 2 25 31
M  V30 31 1 17 32
M  V30 32 2 32 33
M  V30 33 2 10 34
M  V30 34 1 34 6
M  V30 35 1 33 14
M  V30 36 1 31 21
M  V30 37 1 30 26
M  V30 38 1 1 35
M  V30 39 1 1 36
M  V30 40 1 1 37
M  V30 41 1 2 38
M  V30 42 1 2 39
M  V30 43 1 5 40
M  V30 44 1 7 41
M  V30 45 1 8 42
M  V30 46 1 9 43
M  V30 47 1 13 44
M  V30 48 1 15 45
M  V30 49 1 16 46
M  V30 50 1 18 47
M  V30 51 1 22 48
M  V30 52 1 23 49
M  V30 53 1 24 50
M  V30 54 1 27 51
M  V30 55 1 28 52
M  V30 56 1 30 53
M  V30 57 1 32 54
M  V30 58 1 33 55
M  V30 59 1 34 56
M  V30 END BOND
M  V30 END CTAB
M  END
>  <Dataset>  (642) 
ChEMBL_Kinases

>  <Ligand_Instance>  (642) 
nan

>  <PDB_ID>  (642) 
nan

>  <Standardized_SMILES>  (642) 
CCC(=O)Nc1cccc(C(=O)Nc2ccc(NC(=O)c3cccc(-c4ccn[nH]4)n3)cc2)c1

>  <Name>  (642) 
nan

>  <Pocket>  (642) 
nan

>  <ATP_Site>  (642) 
nan

>  <Peripheral>  (642) 
nan

>  <Num_H_Atoms_ProtBoundConf>  (642) 
nan

>  <Num_Resolved_Atoms>  (642) 
nan

>  <Num_Not_Resolved_Atoms>  (642) 
nan

$$$$
CHEMBL4211551
     RDKit          3D

  0  0  0  0  0  0  0  0  0  0999 V3000
M  V30 BEGIN CTAB
M  V30 COUNTS 45 48 0 0 0
M  V30 BEGIN ATOM
M  V30 1 C -0.112663 -4.760098 3.839085 0
M  V30 2 N 1.088568 -3.998419 4.164851 0
M  V30 3 C 2.289140 -4.127447 3.328367 0
M  V30 4 C 3.225000 -3.050494 3.852727 0
M  V30 5 C 2.381994 -2.144095 4.697043 0 CFG=1
M  V30 6 O 3.103219 -1.499885 5.691617 0
M  V30 7 C 1.757343 -1.072649 3.888934 0
M  V30 8 C 1.228796 -0.201540 3.233710 0
M  V30 9 C 0.578903 0.821965 2.452869 0
M  V30 10 C 0.159876 1.984947 3.050978 0
M  V30 11 C -0.446842 2.883423 2.197100 0
M  V30 12 N -0.634457 2.680584 0.880493 0
M  V30 13 C -0.217346 1.523899 0.287258 0
M  V30 14 N -0.444135 1.367195 -1.110543 0
M  V30 15 N 0.541481 1.143042 -1.965695 0
M  V30 16 C 0.062988 1.034231 -3.216718 0
M  V30 17 C 0.738975 0.790109 -4.495207 0
M  V30 18 N 2.167406 0.640073 -4.395966 0
M  V30 19 O 0.139720 0.714147 -5.600314 0
M  V30 20 C -1.322252 1.202483 -3.138618 0
M  V30 21 C -2.339607 1.196349 -4.074269 0
M  V30 22 C -3.606251 1.403894 -3.591771 0
M  V30 23 F -4.636541 1.404500 -4.487157 0
M  V30 24 C -3.967673 1.615398 -2.288212 0
M  V30 25 C -2.915612 1.615654 -1.367247 0
M  V30 26 C -1.604639 1.411556 -1.784647 0
M  V30 27 C 0.405707 0.574402 1.105377 0
M  V30 28 C 1.349064 -3.068690 5.233437 0
M  V30 29 O 0.662930 -3.278099 6.289295 0
M  V30 30 H -0.507872 -4.311720 2.884178 0
M  V30 31 H 0.195141 -5.786689 3.601196 0
M  V30 32 H -0.821320 -4.671885 4.670155 0
M  V30 33 H 2.668501 -5.152358 3.500173 0
M  V30 34 H 2.059205 -4.004044 2.252687 0
M  V30 35 H 3.750558 -2.543631 3.017017 0
M  V30 36 H 3.968215 -3.538963 4.502890 0
M  V30 37 H 4.059933 -1.489603 5.370008 0
M  V30 38 H 0.298575 2.172526 4.106700 0
M  V30 39 H -0.798325 3.827164 2.629223 0
M  V30 40 H 3.048399 1.210422 -4.520925 0
M  V30 41 H 2.815957 -0.163141 -4.144450 0
M  V30 42 H -2.127263 1.035216 -5.122387 0
M  V30 43 H -4.998940 1.771993 -1.990198 0
M  V30 44 H -3.130891 1.776968 -0.320267 0
M  V30 45 H 0.715869 -0.311694 0.607370 0
M  V30 END ATOM
M  V30 BEGIN BOND
M  V30 1 1 1 2
M  V30 2 1 2 3
M  V30 3 1 3 4
M  V30 4 1 4 5
M  V30 5 1 5 6
M  V30 6 1 5 7 CFG=3
M  V30 7 3 7 8
M  V30 8 1 8 9
M  V30 9 2 9 10
M  V30 10 1 10 11
M  V30 11 2 11 12
M  V30 12 1 12 13
M  V30 13 1 13 14
M  V30 14 1 14 15
M  V30 15 2 15 16
M  V30 16 1 16 17
M  V30 17 1 17 18
M  V30 18 2 17 19
M  V30 19 1 16 20
M  V30 20 2 20 21
M  V30 21 1 21 22
M  V30 22 1 22 23
M  V30 23 2 22 24
M  V30 24 1 24 25
M  V30 25 2 25 26
M  V30 26 2 13 27
M  V30 27 1 5 28
M  V30 28 2 28 29
M  V30 29 1 28 2
M  V30 30 1 27 9
M  V30 31 1 26 14
M  V30 32 1 26 20
M  V30 33 1 1 30
M  V30 34 1 1 31
M  V30 35 1 1 32
M  V30 36 1 3 33
M  V30 37 1 3 34
M  V30 38 1 4 35
M  V30 39 1 4 36
M  V30 40 1 6 37
M  V30 41 1 10 38
M  V30 42 1 11 39
M  V30 43 1 18 40
M  V30 44 1 18 41
M  V30 45 1 21 42
M  V30 46 1 24 43
M  V30 47 1 25 44
M  V30 48 1 27 45
M  V30 END BOND
M  V30 END CTAB
M  END
>  <Dataset>  (643) 
ChEMBL_Kinases

>  <Ligand_Instance>  (643) 
nan

>  <PDB_ID>  (643) 
nan

>  <Standardized_SMILES>  (643) 
CN1CC[C@@](O)(C#Cc2ccnc(-n3nc(C(N)=O)c4cc(F)ccc43)c2)C1=O

>  <Name>  (643) 
nan

>  <Pocket>  (643) 
nan

>  <ATP_Site>  (643) 
nan

>  <Peripheral>  (643) 
nan

>  <Num_H_Atoms_ProtBoundConf>  (643) 
nan

>  <Num_Resolved_Atoms>  (643) 
nan

>  <Num_Not_Resolved_Atoms>  (643) 
nan

$$$$
CHEMBL4781043
     RDKit          3D

  0  0  0  0  0  0  0  0  0  0999 V3000
M  V30 BEGIN CTAB
M  V30 COUNTS 54 58 0 0 0
M  V30 BEGIN ATOM
M  V30 1 C 4.865459 -6.614523 3.691739 0
M  V30 2 N 4.126051 -5.939152 2.645085 0
M  V30 3 C 4.120354 -4.625569 2.413311 0
M  V30 4 C 3.297935 -4.369311 1.333839 0
M  V30 5 C 3.010465 -3.042924 0.744568 0
M  V30 6 C 3.969343 -2.048787 0.762922 0
M  V30 7 C 3.643556 -0.830204 0.198810 0
M  V30 8 C 2.404534 -0.605272 -0.366036 0
M  V30 9 C 1.970804 0.647426 -0.984977 0
M  V30 10 C 2.816713 1.523763 -1.657195 0
M  V30 11 N 2.334461 2.658964 -2.198641 0
M  V30 12 C 1.029540 2.992999 -2.115232 0
M  V30 13 N 0.308135 4.044665 -2.561232 0
M  V30 14 C -0.993194 3.909385 -2.213934 0
M  V30 15 C -1.152443 2.717198 -1.505122 0
M  V30 16 C -2.378195 2.165071 -0.932521 0
M  V30 17 C -3.562786 2.106801 -1.635513 0
M  V30 18 C -4.676546 1.567073 -1.005999 0
M  V30 19 C -5.900770 1.516951 -1.759695 0
M  V30 20 N -6.900071 1.491202 -2.375487 0
M  V30 21 C -4.631004 1.095110 0.283067 0
M  V30 22 C -3.481805 1.129834 1.023615 0
M  V30 23 N -3.350146 0.670229 2.349790 0
M  V30 24 S -3.963987 -0.809717 2.941133 0
M  V30 25 C -5.725986 -0.934685 2.828133 0
M  V30 26 O -3.394880 -1.968945 2.138112 0
M  V30 27 O -3.510727 -1.040224 4.363057 0
M  V30 28 C -2.375950 1.677268 0.367698 0
M  V30 29 C 0.120503 2.185942 -1.468880 0
M  V30 30 C 0.642950 1.027171 -0.922531 0
M  V30 31 C 1.463870 -1.642494 -0.361983 0
M  V30 32 C 1.751637 -2.887735 0.196892 0
M  V30 33 C 2.804951 -5.590331 0.921932 0
M  V30 34 N 3.335202 -6.514868 1.747749 0
M  V30 35 H 4.821241 -6.091753 4.656922 0
M  V30 36 H 5.930408 -6.604810 3.388149 0
M  V30 37 H 4.562842 -7.674692 3.785050 0
M  V30 38 H 4.687324 -3.915943 3.006065 0
M  V30 39 H 4.946043 -2.201703 1.199436 0
M  V30 40 H 4.342595 0.000422 0.174523 0
M  V30 41 H 3.873325 1.245005 -1.719901 0
M  V30 42 H 0.682523 4.870363 -3.107153 0
M  V30 43 H -1.805018 4.594133 -2.433354 0
M  V30 44 H -3.601433 2.476431 -2.646667 0
M  V30 45 H -5.523338 0.683309 0.732105 0
M  V30 46 H -2.823998 1.322704 2.994978 0
M  V30 47 H -6.248457 0.021926 2.933892 0
M  V30 48 H -6.006682 -1.383309 1.857269 0
M  V30 49 H -6.116876 -1.614940 3.637713 0
M  V30 50 H -1.445592 1.713241 0.950879 0
M  V30 51 H -0.016887 0.357996 -0.407158 0
M  V30 52 H 0.445967 -1.590030 -0.779246 0
M  V30 53 H 1.039174 -3.697098 0.208572 0
M  V30 54 H 2.129824 -5.697014 0.090151 0
M  V30 END ATOM
M  V30 BEGIN BOND
M  V30 1 1 1 2
M  V30 2 1 2 3
M  V30 3 2 3 4
M  V30 4 1 4 5
M  V30 5 2 5 6
M  V30 6 1 6 7
M  V30 7 2 7 8
M  V30 8 1 8 9
M  V30 9 2 9 10
M  V30 10 1 10 11
M  V30 11 2 11 12
M  V30 12 1 12 13
M  V30 13 1 13 14
M  V30 14 2 14 15
M  V30 15 1 15 16
M  V30 16 2 16 17
M  V30 17 1 17 18
M  V30 18 1 18 19
M  V30 19 3 19 20
M  V30 20 2 18 21
M  V30 21 1 21 22
M  V30 22 1 22 23
M  V30 23 1 23 24
M  V30 24 1 24 25
M  V30 25 2 24 26
M  V30 26 2 24 27
M  V30 27 2 22 28
M  V30 28 1 15 29
M  V30 29 2 29 30
M  V30 30 1 8 31
M  V30 31 2 31 32
M  V30 32 1 4 33
M  V30 33 2 33 34
M  V30 34 1 34 2
M  V30 35 1 32 5
M  V30 36 1 30 9
M  V30 37 1 29 12
M  V30 38 1 28 16
M  V30 39 1 1 35
M  V30 40 1 1 36
M  V30 41 1 1 37
M  V30 42 1 3 38
M  V30 43 1 6 39
M  V30 44 1 7 40
M  V30 45 1 10 41
M  V30 46 1 13 42
M  V30 47 1 14 43
M  V30 48 1 17 44
M  V30 49 1 21 45
M  V30 50 1 23 46
M  V30 51 1 25 47
M  V30 52 1 25 48
M  V30 53 1 25 49
M  V30 54 1 28 50
M  V30 55 1 30 51
M  V30 56 1 31 52
M  V30 57 1 32 53
M  V30 58 1 33 54
M  V30 END BOND
M  V30 END CTAB
M  END
>  <Dataset>  (644) 
ChEMBL_Kinases

>  <Ligand_Instance>  (644) 
nan

>  <PDB_ID>  (644) 
nan

>  <Standardized_SMILES>  (644) 
Cn1cc(-c2ccc(-c3cnc4[nH]cc(-c5cc(C#N)cc(NS(C)(=O)=O)c5)c4c3)cc2)cn1

>  <Name>  (644) 
nan

>  <Pocket>  (644) 
nan

>  <ATP_Site>  (644) 
nan

>  <Peripheral>  (644) 
nan

>  <Num_H_Atoms_ProtBoundConf>  (644) 
nan

>  <Num_Resolved_Atoms>  (644) 
nan

>  <Num_Not_Resolved_Atoms>  (644) 
nan

$$$$
CHEMBL4781045
     RDKit          3D

  0  0  0  0  0  0  0  0  0  0999 V3000
M  V30 BEGIN CTAB
M  V30 COUNTS 45 47 0 0 0
M  V30 BEGIN ATOM
M  V30 1 C 3.365548 -3.599155 0.222034 0
M  V30 2 C 2.457331 -3.106245 -0.896630 0
M  V30 3 C 1.070612 -3.586138 -0.618206 0
M  V30 4 C 2.933343 -3.614949 -2.204381 0
M  V30 5 O 3.946021 -4.353127 -2.407087 0
M  V30 6 O 2.188713 -3.239496 -3.311228 0
M  V30 7 C 2.445033 -1.610432 -0.863988 0
M  V30 8 C 3.529648 -0.921460 -1.358079 0
M  V30 9 C 3.586959 0.469338 -1.359903 0
M  V30 10 C 2.489863 1.137538 -0.835614 0
M  V30 11 C 1.376344 0.493731 -0.327104 0
M  V30 12 C 0.236551 1.240065 0.217523 0
M  V30 13 C -0.011646 2.461321 -0.371542 0
M  V30 14 N -1.077254 3.133770 0.156013 0
M  V30 15 C -1.790537 2.601862 1.165927 0
M  V30 16 N -2.885202 3.360027 1.662750 0
M  V30 17 C -1.531259 1.378341 1.746455 0
M  V30 18 C -2.328808 0.832849 2.841975 0
M  V30 19 C -3.706445 0.808168 2.936607 0
M  V30 20 C -4.269927 0.242328 4.065578 0
M  V30 21 C -3.471412 -0.282725 5.068777 0
M  V30 22 Cl -4.236382 -0.994867 6.490791 0
M  V30 23 C -2.105662 -0.264474 4.987122 0
M  V30 24 C -1.541245 0.303396 3.854228 0
M  V30 25 C -0.462607 0.653360 1.251263 0
M  V30 26 C 1.371023 -0.893414 -0.349577 0
M  V30 27 H 3.683375 -4.648374 0.079463 0
M  V30 28 H 4.237925 -2.932564 0.365421 0
M  V30 29 H 2.792816 -3.568835 1.183000 0
M  V30 30 H 0.842569 -3.480271 0.475397 0
M  V30 31 H 0.379184 -3.014814 -1.262647 0
M  V30 32 H 1.011229 -4.691616 -0.818523 0
M  V30 33 H 2.457643 -3.469401 -4.255301 0
M  V30 34 H 4.419856 -1.408839 -1.782694 0
M  V30 35 H 4.419372 1.043097 -1.737973 0
M  V30 36 H 2.498334 2.220543 -0.819755 0
M  V30 37 H 0.589356 2.840089 -1.176138 0
M  V30 38 H -3.862739 3.722554 1.678489 0
M  V30 39 H -3.009871 4.012642 2.489357 0
M  V30 40 H -4.234846 1.246002 2.095592 0
M  V30 41 H -5.353225 0.237053 4.112477 0
M  V30 42 H -1.509492 -0.685216 5.792021 0
M  V30 43 H -0.444478 0.283890 3.855621 0
M  V30 44 H -0.196550 -0.305252 1.648711 0
M  V30 45 H 0.529772 -1.423308 0.033923 0
M  V30 END ATOM
M  V30 BEGIN BOND
M  V30 1 1 1 2
M  V30 2 1 2 3
M  V30 3 1 2 4
M  V30 4 2 4 5
M  V30 5 1 4 6
M  V30 6 1 2 7
M  V30 7 2 7 8
M  V30 8 1 8 9
M  V30 9 2 9 10
M  V30 10 1 10 11
M  V30 11 1 11 12
M  V30 12 2 12 13
M  V30 13 1 13 14
M  V30 14 2 14 15
M  V30 15 1 15 16
M  V30 16 1 15 17
M  V30 17 1 17 18
M  V30 18 2 18 19
M  V30 19 1 19 20
M  V30 20 2 20 21
M  V30 21 1 21 22
M  V30 22 1 21 23
M  V30 23 2 23 24
M  V30 24 2 17 25
M  V30 25 2 11 26
M  V30 26 1 26 7
M  V30 27 1 25 12
M  V30 28 1 24 18
M  V30 29 1 1 27
M  V30 30 1 1 28
M  V30 31 1 1 29
M  V30 32 1 3 30
M  V30 33 1 3 31
M  V30 34 1 3 32
M  V30 35 1 6 33
M  V30 36 1 8 34
M  V30 37 1 9 35
M  V30 38 1 10 36
M  V30 39 1 13 37
M  V30 40 1 16 38
M  V30 41 1 16 39
M  V30 42 1 19 40
M  V30 43 1 20 41
M  V30 44 1 23 42
M  V30 45 1 24 43
M  V30 46 1 25 44
M  V30 47 1 26 45
M  V30 END BOND
M  V30 END CTAB
M  END
>  <Dataset>  (645) 
ChEMBL_Kinases

>  <Ligand_Instance>  (645) 
nan

>  <PDB_ID>  (645) 
nan

>  <Standardized_SMILES>  (645) 
CC(C)(C(=O)O)c1cccc(-c2cnc(N)c(-c3ccc(Cl)cc3)c2)c1

>  <Name>  (645) 
nan

>  <Pocket>  (645) 
nan

>  <ATP_Site>  (645) 
nan

>  <Peripheral>  (645) 
nan

>  <Num_H_Atoms_ProtBoundConf>  (645) 
nan

>  <Num_Resolved_Atoms>  (645) 
nan

>  <Num_Not_Resolved_Atoms>  (645) 
nan

$$$$
CHEMBL4211430
     RDKit          3D

  0  0  0  0  0  0  0  0  0  0999 V3000
M  V30 BEGIN CTAB
M  V30 COUNTS 57 60 0 0 0
M  V30 BEGIN ATOM
M  V30 1 C 2.007617 -1.602696 4.221541 0
M  V30 2 C 3.041934 -0.612748 3.733804 0
M  V30 3 N 3.392528 -0.730870 2.366847 0
M  V30 4 C 4.148185 -1.958469 2.094898 0
M  V30 5 C 5.495872 -1.866292 2.744794 0
M  V30 6 C 2.404838 -0.514172 1.377782 0
M  V30 7 C 1.877398 0.868083 1.182150 0 CFG=2
M  V30 8 C 1.192931 1.441539 2.393345 0
M  V30 9 N 0.866581 0.762992 0.116376 0
M  V30 10 C 1.035726 1.553510 -1.037646 0
M  V30 11 O 2.042311 2.319529 -1.115200 0
M  V30 12 C 0.113094 1.549337 -2.169444 0
M  V30 13 C 0.381965 2.394948 -3.231266 0
M  V30 14 C -0.470688 2.412752 -4.316937 0
M  V30 15 N -1.550461 1.610829 -4.331826 0
M  V30 16 C -1.833933 0.774673 -3.304229 0
M  V30 17 C -3.033991 -0.043432 -3.442717 0
M  V30 18 C -3.888551 -0.036031 -4.496178 0
M  V30 19 N -4.853567 -0.928022 -4.234399 0
M  V30 20 N -4.666079 -1.516730 -3.056627 0
M  V30 21 C -5.410771 -2.460493 -2.443160 0
M  V30 22 C -4.981009 -2.902140 -1.207822 0
M  V30 23 C -3.817751 -2.355863 -0.670576 0
M  V30 24 C -3.237765 -2.733537 0.643710 0
M  V30 25 C -3.749934 -3.643360 1.485688 0
M  V30 26 C -3.136828 -3.909615 2.661851 0
M  V30 27 C -1.945034 -3.167432 2.918480 0
M  V30 28 S -1.781899 -2.088031 1.377371 0
M  V30 29 N -3.135986 -1.413688 -1.358208 0
M  V30 30 C -3.552727 -0.978000 -2.568151 0
M  V30 31 C -1.002708 0.740940 -2.218617 0
M  V30 32 H 1.175915 -1.086061 4.785276 0
M  V30 33 H 1.554505 -2.195855 3.416522 0
M  V30 34 H 2.440660 -2.316721 4.950545 0
M  V30 35 H 3.999899 -0.852032 4.308441 0
M  V30 36 H 2.837519 0.424430 4.003335 0
M  V30 37 H 3.630987 -2.864811 2.476891 0
M  V30 38 H 4.272715 -1.999096 1.000681 0
M  V30 39 H 5.399044 -2.241741 3.784682 0
M  V30 40 H 5.824886 -0.791236 2.821287 0
M  V30 41 H 6.285571 -2.423882 2.199249 0
M  V30 42 H 2.869297 -0.847339 0.395354 0
M  V30 43 H 1.521193 -1.201222 1.477419 0
M  V30 44 H 2.669699 1.592447 0.874064 0
M  V30 45 H 0.301423 2.075849 2.046761 0
M  V30 46 H 0.725241 0.707019 3.056812 0
M  V30 47 H 1.810065 2.216843 2.926923 0
M  V30 48 H 0.056439 0.133121 0.203808 0
M  V30 49 H 1.242305 3.049154 -3.244768 0
M  V30 50 H -0.315184 3.059966 -5.191684 0
M  V30 51 H -3.841343 0.565988 -5.409328 0
M  V30 52 H -6.310488 -2.896551 -2.837630 0
M  V30 53 H -5.457557 -3.646329 -0.589093 0
M  V30 54 H -4.674050 -4.202011 1.259218 0
M  V30 55 H -3.406145 -4.600551 3.446243 0
M  V30 56 H -1.274605 -3.223446 3.825643 0
M  V30 57 H -1.227273 0.082807 -1.411194 0
M  V30 END ATOM
M  V30 BEGIN BOND
M  V30 1 1 1 2
M  V30 2 1 2 3
M  V30 3 1 3 4
M  V30 4 1 4 5
M  V30 5 1 3 6
M  V30 6 1 6 7
M  V30 7 1 7 8
M  V30 8 1 7 9
M  V30 9 1 9 10
M  V30 10 2 10 11
M  V30 11 1 10 12
M  V30 12 2 12 13
M  V30 13 1 13 14
M  V30 14 2 14 15
M  V30 15 1 15 16
M  V30 16 1 16 17
M  V30 17 1 17 18
M  V30 18 2 18 19
M  V30 19 1 19 20
M  V30 20 1 20 21
M  V30 21 2 21 22
M  V30 22 1 22 23
M  V30 23 1 23 24
M  V30 24 2 24 25
M  V30 25 1 25 26
M  V30 26 2 26 27
M  V30 27 1 27 28
M  V30 28 2 23 29
M  V30 29 1 29 30
M  V30 30 2 16 31
M  V30 31 1 31 12
M  V30 32 2 30 17
M  V30 33 1 30 20
M  V30 34 1 28 24
M  V30 35 1 1 32
M  V30 36 1 1 33
M  V30 37 1 1 34
M  V30 38 1 2 35
M  V30 39 1 2 36
M  V30 40 1 4 37
M  V30 41 1 4 38
M  V30 42 1 5 39
M  V30 43 1 5 40
M  V30 44 1 5 41
M  V30 45 1 6 42
M  V30 46 1 6 43
M  V30 47 1 7 44 CFG=3
M  V30 48 1 8 45
M  V30 49 1 8 46
M  V30 50 1 8 47
M  V30 51 1 9 48
M  V30 52 1 13 49
M  V30 53 1 14 50
M  V30 54 1 18 51
M  V30 55 1 21 52
M  V30 56 1 22 53
M  V30 57 1 25 54
M  V30 58 1 26 55
M  V30 59 1 27 56
M  V30 60 1 31 57
M  V30 END BOND
M  V30 END CTAB
M  END
>  <Dataset>  (646) 
ChEMBL_Kinases

>  <Ligand_Instance>  (646) 
nan

>  <PDB_ID>  (646) 
nan

>  <Standardized_SMILES>  (646) 
CCN(CC)C[C@H](C)NC(=O)c1ccnc(-c2cnn3ccc(-c4cccs4)nc23)c1

>  <Name>  (646) 
nan

>  <Pocket>  (646) 
nan

>  <ATP_Site>  (646) 
nan

>  <Peripheral>  (646) 
nan

>  <Num_H_Atoms_ProtBoundConf>  (646) 
nan

>  <Num_Resolved_Atoms>  (646) 
nan

>  <Num_Not_Resolved_Atoms>  (646) 
nan

$$$$
CHEMBL4211395
     RDKit          3D

  0  0  0  0  0  0  0  0  0  0999 V3000
M  V30 BEGIN CTAB
M  V30 COUNTS 68 72 0 0 0
M  V30 BEGIN ATOM
M  V30 1 C 1.675862 -2.114337 4.532598 0
M  V30 2 C 2.218235 -0.914341 3.847498 0
M  V30 3 C 2.899018 0.109027 4.473796 0
M  V30 4 C 3.385313 1.199776 3.779347 0
M  V30 5 C 3.177463 1.257097 2.414753 0
M  V30 6 N 3.668419 2.378829 1.652826 0
M  V30 7 C 2.796455 3.501089 1.492198 0
M  V30 8 O 1.677617 3.357433 2.055484 0
M  V30 9 C 3.201867 4.704099 0.728901 0
M  V30 10 C 4.416231 4.884621 0.108561 0
M  V30 11 C 4.650121 6.073600 -0.573209 0
M  V30 12 C 3.667891 7.039598 -0.613184 0
M  V30 13 C 2.444852 6.888216 -0.003323 0
M  V30 14 C 1.412852 7.958796 -0.073288 0
M  V30 15 F 0.170848 7.356315 0.038308 0
M  V30 16 F 1.597001 8.748220 1.061079 0
M  V30 17 F 1.492156 8.693554 -1.229915 0
M  V30 18 C 2.235907 5.699488 0.667390 0
M  V30 19 C 2.490573 0.233985 1.753575 0
M  V30 20 C 2.009654 -0.858630 2.485226 0
M  V30 21 N 1.336624 -1.805099 1.657785 0
M  V30 22 C -0.090633 -1.608114 1.443507 0
M  V30 23 C -0.643079 -2.675436 0.564787 0
M  V30 24 C -1.996746 -2.509378 0.354191 0
M  V30 25 N -2.651913 -3.411298 -0.435539 0
M  V30 26 C -1.980517 -4.438017 -0.992405 0
M  V30 27 N -2.743285 -5.324736 -1.797322 0
M  V30 28 C -4.157824 -5.079182 -1.966773 0
M  V30 29 C -4.941905 -5.088702 -0.698719 0
M  V30 30 C -5.899636 -3.908032 -0.609018 0
M  V30 31 C -6.762558 -3.948808 -1.865651 0
M  V30 32 C -5.889137 -3.707352 -3.055501 0
M  V30 33 C -4.421264 -3.815519 -2.739563 0
M  V30 34 N -0.659297 -4.607052 -0.791638 0
M  V30 35 C 0.014730 -3.736962 -0.019591 0
M  V30 36 N 1.406249 -3.819976 0.260512 0
M  V30 37 C 2.169246 -4.896587 -0.308348 0
M  V30 38 C 2.088329 -2.876300 1.088583 0
M  V30 39 O 3.325194 -3.010521 1.294873 0
M  V30 40 H 0.642734 -2.314375 4.263114 0
M  V30 41 H 2.368218 -2.977663 4.468815 0
M  V30 42 H 1.682489 -1.843983 5.629586 0
M  V30 43 H 3.037286 0.016832 5.553714 0
M  V30 44 H 3.917712 1.987794 4.308066 0
M  V30 45 H 4.616071 2.395700 1.226512 0
M  V30 46 H 5.124699 4.078149 0.191224 0
M  V30 47 H 5.627526 6.162518 -1.044837 0
M  V30 48 H 3.876991 7.963792 -1.155263 0
M  V30 49 H 1.261782 5.595325 1.145493 0
M  V30 50 H 2.372656 0.363370 0.670211 0
M  V30 51 H -0.639027 -1.539128 2.404686 0
M  V30 52 H -0.279741 -0.642860 0.926264 0
M  V30 53 H -2.620826 -1.718544 0.756578 0
M  V30 54 H -2.235714 -6.141410 -2.246484 0
M  V30 55 H -4.542152 -5.910312 -2.619149 0
M  V30 56 H -5.620076 -5.990089 -0.637830 0
M  V30 57 H -4.314735 -5.169892 0.216451 0
M  V30 58 H -5.404190 -2.935784 -0.582381 0
M  V30 59 H -6.524308 -3.974813 0.290803 0
M  V30 60 H -7.256601 -4.961451 -1.901833 0
M  V30 61 H -7.577405 -3.201912 -1.737439 0
M  V30 62 H -6.061400 -2.642106 -3.382434 0
M  V30 63 H -6.199856 -4.334034 -3.904268 0
M  V30 64 H -3.886137 -3.900104 -3.719335 0
M  V30 65 H -4.094173 -2.897171 -2.257659 0
M  V30 66 H 1.502849 -5.691146 -0.684631 0
M  V30 67 H 2.793479 -5.379214 0.494273 0
M  V30 68 H 2.823712 -4.507716 -1.120267 0
M  V30 END ATOM
M  V30 BEGIN BOND
M  V30 1 1 1 2
M  V30 2 2 2 3
M  V30 3 1 3 4
M  V30 4 2 4 5
M  V30 5 1 5 6
M  V30 6 1 6 7
M  V30 7 2 7 8
M  V30 8 1 7 9
M  V30 9 2 9 10
M  V30 10 1 10 11
M  V30 11 2 11 12
M  V30 12 1 12 13
M  V30 13 1 13 14
M  V30 14 1 14 15
M  V30 15 1 14 16
M  V30 16 1 14 17
M  V30 17 2 13 18
M  V30 18 1 5 19
M  V30 19 2 19 20
M  V30 20 1 20 21
M  V30 21 1 21 22
M  V30 22 1 22 23
M  V30 23 2 23 24
M  V30 24 1 24 25
M  V30 25 2 25 26
M  V30 26 1 26 27
M  V30 27 1 27 28
M  V30 28 1 28 29
M  V30 29 1 29 30
M  V30 30 1 30 31
M  V30 31 1 31 32
M  V30 32 1 32 33
M  V30 33 1 26 34
M  V30 34 2 34 35
M  V30 35 1 35 36
M  V30 36 1 36 37
M  V30 37 1 36 38
M  V30 38 2 38 39
M  V30 39 1 20 2
M  V30 40 1 38 21
M  V30 41 1 18 9
M  V30 42 1 35 23
M  V30 43 1 33 28
M  V30 44 1 1 40
M  V30 45 1 1 41
M  V30 46 1 1 42
M  V30 47 1 3 43
M  V30 48 1 4 44
M  V30 49 1 6 45
M  V30 50 1 10 46
M  V30 51 1 11 47
M  V30 52 1 12 48
M  V30 53 1 18 49
M  V30 54 1 19 50
M  V30 55 1 22 51
M  V30 56 1 22 52
M  V30 57 1 24 53
M  V30 58 1 27 54
M  V30 59 1 28 55
M  V30 60 1 29 56
M  V30 61 1 29 57
M  V30 62 1 30 58
M  V30 63 1 30 59
M  V30 64 1 31 60
M  V30 65 1 31 61
M  V30 66 1 32 62
M  V30 67 1 32 63
M  V30 68 1 33 64
M  V30 69 1 33 65
M  V30 70 1 37 66
M  V30 71 1 37 67
M  V30 72 1 37 68
M  V30 END BOND
M  V30 END CTAB
M  END
>  <Dataset>  (647) 
ChEMBL_Kinases

>  <Ligand_Instance>  (647) 
nan

>  <PDB_ID>  (647) 
nan

>  <Standardized_SMILES>  (647) 
Cc1ccc(NC(=O)c2cccc(C(F)(F)F)c2)cc1N1Cc2cnc(NC3CCCCC3)nc2N(C)C1=O

>  <Name>  (647) 
nan

>  <Pocket>  (647) 
nan

>  <ATP_Site>  (647) 
nan

>  <Peripheral>  (647) 
nan

>  <Num_H_Atoms_ProtBoundConf>  (647) 
nan

>  <Num_Resolved_Atoms>  (647) 
nan

>  <Num_Not_Resolved_Atoms>  (647) 
nan

$$$$
CHEMBL4781049
     RDKit          3D

  0  0  0  0  0  0  0  0  0  0999 V3000
M  V30 BEGIN CTAB
M  V30 COUNTS 50 53 0 0 0
M  V30 BEGIN ATOM
M  V30 1 C -0.129311 -3.761691 -1.003082 0
M  V30 2 N 0.888091 -3.169578 -1.891404 0
M  V30 3 C 1.129687 -1.799112 -1.573592 0
M  V30 4 C 2.578024 -1.385422 -1.778607 0
M  V30 5 C 3.557859 -2.259082 -1.100749 0
M  V30 6 C 4.400040 -1.671285 -0.024494 0
M  V30 7 N 3.720188 -1.114205 1.095974 0
M  V30 8 C 2.967011 0.098590 1.113550 0
M  V30 9 N 3.514197 1.169454 0.657674 0
M  V30 10 C 2.766006 2.329290 0.691905 0
M  V30 11 O 3.228577 3.441584 0.258605 0
M  V30 12 C 1.420794 2.194036 1.253792 0
M  V30 13 C 0.557361 3.168102 1.405665 0
M  V30 14 C -0.749761 2.882609 1.979954 0
M  V30 15 C -1.482606 3.612534 2.884897 0
M  V30 16 C -2.657837 2.934988 3.120551 0
M  V30 17 C -2.574425 1.793567 2.321491 0
M  V30 18 C -3.636586 0.802035 2.280085 0
M  V30 19 C -3.447928 -0.289767 1.426952 0
M  V30 20 C -4.459406 -1.255951 1.357957 0
M  V30 21 C -5.616282 -1.116293 2.126619 0
M  V30 22 C -5.796458 -0.035857 2.967947 0
M  V30 23 Cl -7.222642 0.188775 3.948018 0
M  V30 24 C -4.781915 0.897586 3.012906 0
M  V30 25 O -1.430202 1.781754 1.651316 0
M  V30 26 S 1.305664 0.454507 1.669955 0
M  V30 27 C 2.857688 -3.514378 -0.600377 0
M  V30 28 C 2.037393 -4.039344 -1.756737 0
M  V30 29 H -0.095484 -3.210592 -0.046268 0
M  V30 30 H 0.056025 -4.867091 -0.878458 0
M  V30 31 H -1.087507 -3.608694 -1.524054 0
M  V30 32 H 0.515575 -1.131147 -2.240757 0
M  V30 33 H 0.837422 -1.536246 -0.537330 0
M  V30 34 H 2.705197 -1.421943 -2.906086 0
M  V30 35 H 2.656700 -0.309193 -1.506438 0
M  V30 36 H 4.272442 -2.625264 -1.900994 0
M  V30 37 H 5.047304 -2.511195 0.376915 0
M  V30 38 H 5.136675 -0.953422 -0.460460 0
M  V30 39 H 3.701067 -1.584625 2.053391 0
M  V30 40 H 0.731146 4.214180 1.131696 0
M  V30 41 H -1.140974 4.565412 3.315072 0
M  V30 42 H -3.377467 3.329692 3.795489 0
M  V30 43 H -2.567898 -0.453451 0.802294 0
M  V30 44 H -4.303157 -2.107017 0.683822 0
M  V30 45 H -6.403369 -1.878159 2.060338 0
M  V30 46 H -4.907203 1.750216 3.669736 0
M  V30 47 H 3.625745 -4.281239 -0.283089 0
M  V30 48 H 2.199714 -3.246814 0.262380 0
M  V30 49 H 1.700090 -5.081760 -1.518854 0
M  V30 50 H 2.656258 -4.030532 -2.675855 0
M  V30 END ATOM
M  V30 BEGIN BOND
M  V30 1 1 1 2
M  V30 2 1 2 3
M  V30 3 1 3 4
M  V30 4 1 4 5
M  V30 5 1 5 6
M  V30 6 1 6 7
M  V30 7 1 7 8
M  V30 8 2 8 9
M  V30 9 1 9 10
M  V30 10 2 10 11
M  V30 11 1 10 12
M  V30 12 2 12 13
M  V30 13 1 13 14
M  V30 14 2 14 15
M  V30 15 1 15 16
M  V30 16 2 16 17
M  V30 17 1 17 18
M  V30 18 2 18 19
M  V30 19 1 19 20
M  V30 20 2 20 21
M  V30 21 1 21 22
M  V30 22 1 22 23
M  V30 23 2 22 24
M  V30 24 1 17 25
M  V30 25 1 12 26
M  V30 26 1 5 27
M  V30 27 1 27 28
M  V30 28 1 28 2
M  V30 29 1 26 8
M  V30 30 1 25 14
M  V30 31 1 24 18
M  V30 32 1 1 29
M  V30 33 1 1 30
M  V30 34 1 1 31
M  V30 35 1 3 32
M  V30 36 1 3 33
M  V30 37 1 4 34
M  V30 38 1 4 35
M  V30 39 1 5 36
M  V30 40 1 6 37
M  V30 41 1 6 38
M  V30 42 1 7 39
M  V30 43 1 13 40
M  V30 44 1 15 41
M  V30 45 1 16 42
M  V30 46 1 19 43
M  V30 47 1 20 44
M  V30 48 1 21 45
M  V30 49 1 24 46
M  V30 50 1 27 47
M  V30 51 1 27 48
M  V30 52 1 28 49
M  V30 53 1 28 50
M  V30 END BOND
M  V30 END CTAB
M  END
>  <Dataset>  (648) 
ChEMBL_Kinases

>  <Ligand_Instance>  (648) 
nan

>  <PDB_ID>  (648) 
nan

>  <Standardized_SMILES>  (648) 
CN1CCC(CNC2=NC(=O)/C(=C/c3ccc(-c4cccc(Cl)c4)o3)S2)CC1

>  <Name>  (648) 
nan

>  <Pocket>  (648) 
nan

>  <ATP_Site>  (648) 
nan

>  <Peripheral>  (648) 
nan

>  <Num_H_Atoms_ProtBoundConf>  (648) 
nan

>  <Num_Resolved_Atoms>  (648) 
nan

>  <Num_Not_Resolved_Atoms>  (648) 
nan

$$$$
CHEMBL4781055
     RDKit          3D

  0  0  0  0  0  0  0  0  0  0999 V3000
M  V30 BEGIN CTAB
M  V30 COUNTS 45 48 0 0 0
M  V30 BEGIN ATOM
M  V30 1 C -1.026851 -7.820731 0.419775 0
M  V30 2 C -0.790644 -6.375099 0.614679 0
M  V30 3 C -1.119394 -5.674476 1.761360 0
M  V30 4 C -0.863470 -4.301913 1.871358 0
M  V30 5 C -0.272295 -3.643934 0.811948 0
M  V30 6 C -0.024829 -2.211697 0.973280 0
M  V30 7 O -0.360698 -1.680646 2.047921 0
M  V30 8 N 0.577021 -1.406183 -0.033958 0
M  V30 9 C 0.851525 -0.008614 0.045113 0
M  V30 10 C 0.056321 0.794518 -0.974630 0
M  V30 11 C 0.482684 2.234424 -0.948658 0
M  V30 12 N 1.316776 2.451871 0.175032 0
M  V30 13 C 0.985571 3.453101 1.121167 0
M  V30 14 N 1.937498 4.423799 1.239152 0
M  V30 15 C 1.777689 5.458332 2.100315 0
M  V30 16 N 0.658378 5.560472 2.876430 0
M  V30 17 C -0.295847 4.618909 2.781374 0
M  V30 18 N -1.496096 4.381956 3.359324 0
M  V30 19 N -2.038410 3.259018 2.873261 0
M  V30 20 C -1.195982 2.716284 1.946078 0
M  V30 21 C -0.139604 3.567952 1.910369 0
M  V30 22 C 2.535071 1.729832 0.477906 0
M  V30 23 C 2.326486 0.321587 -0.031607 0
M  V30 24 C 0.049825 -4.355864 -0.324908 0
M  V30 25 C -0.199761 -5.713091 -0.441939 0
M  V30 26 H -1.914832 -7.982528 -0.227673 0
M  V30 27 H -0.103137 -8.265584 -0.005097 0
M  V30 28 H -1.237982 -8.379403 1.353140 0
M  V30 29 H -1.579652 -6.253251 2.551404 0
M  V30 30 H -1.153788 -3.835904 2.804168 0
M  V30 31 H 0.863111 -1.841061 -0.940218 0
M  V30 32 H 0.510269 0.348135 1.039939 0
M  V30 33 H 0.151913 0.341567 -1.985721 0
M  V30 34 H -1.010721 0.689943 -0.695111 0
M  V30 35 H -0.323569 2.946973 -1.089668 0
M  V30 36 H 1.143668 2.360074 -1.858637 0
M  V30 37 H 2.560310 6.213725 2.165919 0
M  V30 38 H -1.902871 5.024166 4.086622 0
M  V30 39 H -1.359936 1.815259 1.386635 0
M  V30 40 H 2.809038 1.754445 1.545931 0
M  V30 41 H 3.399400 2.160972 -0.105664 0
M  V30 42 H 2.734373 0.167919 -1.057724 0
M  V30 43 H 2.926296 -0.348065 0.616228 0
M  V30 44 H 0.512941 -3.837761 -1.153433 0
M  V30 45 H 0.073038 -6.232429 -1.361039 0
M  V30 END ATOM
M  V30 BEGIN BOND
M  V30 1 1 1 2
M  V30 2 2 2 3
M  V30 3 1 3 4
M  V30 4 2 4 5
M  V30 5 1 5 6
M  V30 6 2 6 7
M  V30 7 1 6 8
M  V30 8 1 8 9
M  V30 9 1 9 10
M  V30 10 1 10 11
M  V30 11 1 11 12
M  V30 12 1 12 13
M  V30 13 2 13 14
M  V30 14 1 14 15
M  V30 15 2 15 16
M  V30 16 1 16 17
M  V30 17 1 17 18
M  V30 18 1 18 19
M  V30 19 2 19 20
M  V30 20 1 20 21
M  V30 21 1 12 22
M  V30 22 1 22 23
M  V30 23 1 5 24
M  V30 24 2 24 25
M  V30 25 1 25 2
M  V30 26 1 23 9
M  V30 27 1 21 13
M  V30 28 2 21 17
M  V30 29 1 1 26
M  V30 30 1 1 27
M  V30 31 1 1 28
M  V30 32 1 3 29
M  V30 33 1 4 30
M  V30 34 1 8 31
M  V30 35 1 9 32
M  V30 36 1 10 33
M  V30 37 1 10 34
M  V30 38 1 11 35
M  V30 39 1 11 36
M  V30 40 1 15 37
M  V30 41 1 18 38
M  V30 42 1 20 39
M  V30 43 1 22 40
M  V30 44 1 22 41
M  V30 45 1 23 42
M  V30 46 1 23 43
M  V30 47 1 24 44
M  V30 48 1 25 45
M  V30 END BOND
M  V30 END CTAB
M  END
>  <Dataset>  (649) 
ChEMBL_Kinases

>  <Ligand_Instance>  (649) 
nan

>  <PDB_ID>  (649) 
nan

>  <Standardized_SMILES>  (649) 
Cc1ccc(C(=O)NC2CCN(c3ncnc4[nH]ncc34)CC2)cc1

>  <Name>  (649) 
nan

>  <Pocket>  (649) 
nan

>  <ATP_Site>  (649) 
nan

>  <Peripheral>  (649) 
nan

>  <Num_H_Atoms_ProtBoundConf>  (649) 
nan

>  <Num_Resolved_Atoms>  (649) 
nan

>  <Num_Not_Resolved_Atoms>  (649) 
nan

$$$$
CHEMBL4781092
     RDKit          3D

  0  0  0  0  0  0  0  0  0  0999 V3000
M  V30 BEGIN CTAB
M  V30 COUNTS 61 65 0 0 0
M  V30 BEGIN ATOM
M  V30 1 O 2.173879 -4.015025 2.676779 0
M  V30 2 S 3.557494 -4.196517 2.050151 0
M  V30 3 O 3.929059 -5.639857 2.203371 0
M  V30 4 N 3.465353 -3.769769 0.373434 0
M  V30 5 C 3.032711 -2.615535 -0.315041 0
M  V30 6 C 1.736232 -2.297531 0.122113 0
M  V30 7 C 1.029453 -1.232043 -0.399019 0
M  V30 8 C 1.595614 -0.444070 -1.378086 0
M  V30 9 C 0.915390 0.682057 -2.006918 0
M  V30 10 N -0.359875 0.980993 -1.699522 0
M  V30 11 C -0.811693 2.042016 -2.379694 0
M  V30 12 C -2.175231 2.563536 -2.240805 0
M  V30 13 C -2.685538 3.385359 -3.235643 0
M  V30 14 C -4.000037 3.840374 -3.081388 0
M  V30 15 N -4.771563 3.510039 -2.013820 0
M  V30 16 C -4.267564 2.705256 -1.041954 0
M  V30 17 N -4.887095 2.206027 0.143118 0
M  V30 18 C -5.268883 0.814737 0.203413 0
M  V30 19 C -5.897974 0.235092 1.306451 0
M  V30 20 C -6.213608 -1.109721 1.302250 0
M  V30 21 C -5.919413 -1.913691 0.218187 0
M  V30 22 O -6.209276 -3.256526 0.167136 0
M  V30 23 C -5.374567 -4.302146 0.584977 0
M  V30 24 F -4.199787 -4.241842 -0.148132 0
M  V30 25 F -5.104555 -4.268679 1.937899 0
M  V30 26 F -6.055893 -5.484157 0.251773 0
M  V30 27 C -5.299562 -1.333017 -0.866364 0
M  V30 28 C -4.968884 0.003756 -0.901217 0
M  V30 29 C -2.959641 2.229906 -1.158460 0
M  V30 30 N 0.241160 2.397106 -3.128790 0
M  V30 31 O 1.237469 1.589536 -2.894972 0
M  V30 32 C 2.869424 -0.767007 -1.797096 0
M  V30 33 C 3.589299 -1.823839 -1.291049 0
M  V30 34 C 4.626168 -3.183120 2.959698 0
M  V30 35 C 5.704475 -3.799027 3.609376 0
M  V30 36 C 6.676396 -3.172568 4.386239 0
M  V30 37 C 6.549362 -1.802898 4.520614 0
M  V30 38 C 5.506922 -1.138692 3.903727 0
M  V30 39 C 4.573826 -1.825981 3.143394 0
M  V30 40 O 3.538707 -1.180209 2.528303 0
M  V30 41 C 3.403827 0.224113 2.656305 0
M  V30 42 F 2.283505 0.660449 1.949588 0
M  V30 43 F 4.570314 0.748789 2.079749 0
M  V30 44 F 3.251832 0.626999 3.962555 0
M  V30 45 H 3.744617 -4.366304 -0.444941 0
M  V30 46 H 1.131620 -2.809188 0.885292 0
M  V30 47 H 0.031613 -0.939340 -0.102863 0
M  V30 48 H -2.127660 3.687621 -4.111096 0
M  V30 49 H -4.497996 4.493485 -3.810202 0
M  V30 50 H -5.103326 2.768392 1.002095 0
M  V30 51 H -6.123673 0.880321 2.151857 0
M  V30 52 H -6.696259 -1.568332 2.141402 0
M  V30 53 H -5.063112 -1.965057 -1.729977 0
M  V30 54 H -4.481244 0.385412 -1.794253 0
M  V30 55 H -2.464382 1.575240 -0.425096 0
M  V30 56 H 3.391114 -0.205703 -2.557470 0
M  V30 57 H 4.571501 -2.164874 -1.538305 0
M  V30 58 H 5.817556 -4.888154 3.514234 0
M  V30 59 H 7.454665 -3.750645 4.832229 0
M  V30 60 H 7.322732 -1.346727 5.131582 0
M  V30 61 H 5.437188 -0.079438 4.028313 0
M  V30 END ATOM
M  V30 BEGIN BOND
M  V30 1 2 1 2
M  V30 2 2 2 3
M  V30 3 1 2 4
M  V30 4 1 4 5
M  V30 5 2 5 6
M  V30 6 1 6 7
M  V30 7 2 7 8
M  V30 8 1 8 9
M  V30 9 2 9 10
M  V30 10 1 10 11
M  V30 11 1 11 12
M  V30 12 2 12 13
M  V30 13 1 13 14
M  V30 14 2 14 15
M  V30 15 1 15 16
M  V30 16 1 16 17
M  V30 17 1 17 18
M  V30 18 2 18 19
M  V30 19 1 19 20
M  V30 20 2 20 21
M  V30 21 1 21 22
M  V30 22 1 22 23
M  V30 23 1 23 24
M  V30 24 1 23 25
M  V30 25 1 23 26
M  V30 26 1 21 27
M  V30 27 2 27 28
M  V30 28 2 16 29
M  V30 29 2 11 30
M  V30 30 1 30 31
M  V30 31 1 8 32
M  V30 32 2 32 33
M  V30 33 1 2 34
M  V30 34 2 34 35
M  V30 35 1 35 36
M  V30 36 2 36 37
M  V30 37 1 37 38
M  V30 38 2 38 39
M  V30 39 1 39 40
M  V30 40 1 40 41
M  V30 41 1 41 42
M  V30 42 1 41 43
M  V30 43 1 41 44
M  V30 44 1 33 5
M  V30 45 1 39 34
M  V30 46 1 31 9
M  V30 47 1 29 12
M  V30 48 1 28 18
M  V30 49 1 4 45
M  V30 50 1 6 46
M  V30 51 1 7 47
M  V30 52 1 13 48
M  V30 53 1 14 49
M  V30 54 1 17 50
M  V30 55 1 19 51
M  V30 56 1 20 52
M  V30 57 1 27 53
M  V30 58 1 28 54
M  V30 59 1 29 55
M  V30 60 1 32 56
M  V30 61 1 33 57
M  V30 62 1 35 58
M  V30 63 1 36 59
M  V30 64 1 37 60
M  V30 65 1 38 61
M  V30 END BOND
M  V30 END CTAB
M  END
>  <Dataset>  (650) 
ChEMBL_Kinases

>  <Ligand_Instance>  (650) 
nan

>  <PDB_ID>  (650) 
nan

>  <Standardized_SMILES>  (650) 
O=S(=O)(Nc1ccc(-c2nc(-c3ccnc(Nc4ccc(OC(F)(F)F)cc4)c3)no2)cc1)c1ccccc1OC(F)(F)F

>  <Name>  (650) 
nan

>  <Pocket>  (650) 
nan

>  <ATP_Site>  (650) 
nan

>  <Peripheral>  (650) 
nan

>  <Num_H_Atoms_ProtBoundConf>  (650) 
nan

>  <Num_Resolved_Atoms>  (650) 
nan

>  <Num_Not_Resolved_Atoms>  (650) 
nan

$$$$
CHEMBL4211112
     RDKit          3D

  0  0  0  0  0  0  0  0  0  0999 V3000
M  V30 BEGIN CTAB
M  V30 COUNTS 42 45 0 0 0
M  V30 BEGIN ATOM
M  V30 1 O 1.531025 -2.639607 1.425938 0
M  V30 2 C 1.560255 -2.925642 0.199893 0
M  V30 3 N 1.701507 -4.280966 -0.166506 0
M  V30 4 C 1.825689 -5.439971 0.695210 0
M  V30 5 C 3.076733 -5.246469 1.522980 0
M  V30 6 O 4.195252 -5.136532 0.701971 0
M  V30 7 C 1.447132 -1.846369 -0.773243 0
M  V30 8 C 1.461971 -1.996327 -2.145229 0
M  V30 9 C 1.350500 -0.933003 -3.018007 0
M  V30 10 C 1.216424 0.354540 -2.541288 0
M  V30 11 C 1.196232 0.555776 -1.176875 0
M  V30 12 C 1.054913 1.912134 -0.649939 0
M  V30 13 C 1.685343 3.079275 -1.030118 0
M  V30 14 N 1.248721 4.089857 -0.270081 0
M  V30 15 C 0.342628 3.556290 0.588731 0
M  V30 16 C -0.365742 4.248785 1.563309 0
M  V30 17 C -1.266342 3.541780 2.368835 0
M  V30 18 C -1.355611 2.200888 2.101629 0
M  V30 19 C -2.254905 1.403734 2.881364 0
M  V30 20 C -2.578001 0.094753 2.882012 0
M  V30 21 C -3.495805 -0.421175 3.759233 0
M  V30 22 C -4.074048 0.542464 4.664159 0
M  V30 23 S -3.256288 2.113673 4.186383 0
M  V30 24 N -0.652892 1.564015 1.148499 0
M  V30 25 N 0.216561 2.215447 0.362327 0
M  V30 26 C 1.311535 -0.544508 -0.354190 0
M  V30 27 H 1.718394 -4.469627 -1.182672 0
M  V30 28 H 1.902425 -6.373710 0.142838 0
M  V30 29 H 0.984594 -5.435654 1.427447 0
M  V30 30 H 2.977223 -4.300301 2.080679 0
M  V30 31 H 3.196953 -6.052054 2.280129 0
M  V30 32 H 4.938510 -4.635103 1.126180 0
M  V30 33 H 1.565481 -2.990646 -2.551299 0
M  V30 34 H 1.368944 -1.115631 -4.081082 0
M  V30 35 H 1.131922 1.160394 -3.242828 0
M  V30 36 H 2.414971 3.115121 -1.829223 0
M  V30 37 H -0.246010 5.296172 1.716574 0
M  V30 38 H -1.814942 4.067389 3.120670 0
M  V30 39 H -2.070061 -0.516617 2.151363 0
M  V30 40 H -3.783934 -1.461242 3.794593 0
M  V30 41 H -4.835914 0.222072 5.421778 0
M  V30 42 H 1.293549 -0.365953 0.729571 0
M  V30 END ATOM
M  V30 BEGIN BOND
M  V30 1 2 1 2
M  V30 2 1 2 3
M  V30 3 1 3 4
M  V30 4 1 4 5
M  V30 5 1 5 6
M  V30 6 1 2 7
M  V30 7 2 7 8
M  V30 8 1 8 9
M  V30 9 2 9 10
M  V30 10 1 10 11
M  V30 11 1 11 12
M  V30 12 2 12 13
M  V30 13 1 13 14
M  V30 14 2 14 15
M  V30 15 1 15 16
M  V30 16 2 16 17
M  V30 17 1 17 18
M  V30 18 1 18 19
M  V30 19 2 19 20
M  V30 20 1 20 21
M  V30 21 2 21 22
M  V30 22 1 22 23
M  V30 23 2 18 24
M  V30 24 1 24 25
M  V30 25 2 11 26
M  V30 26 1 26 7
M  V30 27 1 25 12
M  V30 28 1 25 15
M  V30 29 1 23 19
M  V30 30 1 3 27
M  V30 31 1 4 28
M  V30 32 1 4 29
M  V30 33 1 5 30
M  V30 34 1 5 31
M  V30 35 1 6 32
M  V30 36 1 8 33
M  V30 37 1 9 34
M  V30 38 1 10 35
M  V30 39 1 13 36
M  V30 40 1 16 37
M  V30 41 1 17 38
M  V30 42 1 20 39
M  V30 43 1 21 40
M  V30 44 1 22 41
M  V30 45 1 26 42
M  V30 END BOND
M  V30 END CTAB
M  END
>  <Dataset>  (651) 
ChEMBL_Kinases

>  <Ligand_Instance>  (651) 
nan

>  <PDB_ID>  (651) 
nan

>  <Standardized_SMILES>  (651) 
O=C(NCCO)c1cccc(-c2cnc3ccc(-c4cccs4)nn23)c1

>  <Name>  (651) 
nan

>  <Pocket>  (651) 
nan

>  <ATP_Site>  (651) 
nan

>  <Peripheral>  (651) 
nan

>  <Num_H_Atoms_ProtBoundConf>  (651) 
nan

>  <Num_Resolved_Atoms>  (651) 
nan

>  <Num_Not_Resolved_Atoms>  (651) 
nan

$$$$
CHEMBL4211057
     RDKit          3D

  0  0  0  0  0  0  0  0  0  0999 V3000
M  V30 BEGIN CTAB
M  V30 COUNTS 61 64 0 0 0
M  V30 BEGIN ATOM
M  V30 1 C 2.649944 -1.376757 5.518222 0
M  V30 2 C 3.598985 -0.219611 5.687108 0
M  V30 3 C 4.060699 -0.108620 7.122420 0
M  V30 4 O 4.752764 -0.340295 4.914400 0
M  V30 5 C 2.869351 1.040400 5.244194 0
M  V30 6 O 2.553979 0.896509 3.881635 0
M  V30 7 C 1.879068 1.857044 3.131238 0
M  V30 8 C 1.437319 3.073100 3.645564 0
M  V30 9 C 0.787106 3.924486 2.798463 0
M  V30 10 C 0.530828 3.678960 1.471430 0
M  V30 11 C -0.167305 4.640470 0.642586 0
M  V30 12 N -0.731403 5.388133 -0.017910 0
M  V30 13 C 0.977454 2.467034 0.981127 0
M  V30 14 C 1.646704 1.551270 1.785280 0
M  V30 15 N 2.091796 0.321312 1.240956 0
M  V30 16 C 1.840180 0.015821 -0.127344 0
M  V30 17 N 2.615458 0.330364 -1.179966 0
M  V30 18 C 2.228385 -0.040140 -2.433615 0
M  V30 19 C 1.038693 -0.740914 -2.636460 0
M  V30 20 C 0.254229 -1.056904 -1.551569 0
M  V30 21 C -1.012688 -1.791860 -1.643484 0
M  V30 22 C -1.673140 -2.029618 -0.453740 0
M  V30 23 C -2.883664 -2.720888 -0.438836 0
M  V30 24 C -3.555729 -2.958978 0.806787 0
M  V30 25 N -4.102866 -3.131492 1.810267 0
M  V30 26 C -3.383670 -3.150185 -1.652226 0
M  V30 27 C -2.733937 -2.921113 -2.864922 0
M  V30 28 C -1.529670 -2.227929 -2.832311 0
M  V30 29 C -3.586430 -3.532233 -3.919459 0 CFG=1
M  V30 30 C -4.508740 -2.497796 -4.565733 0
M  V30 31 C -2.715882 -4.214621 -4.948220 0
M  V30 32 O -1.847889 -3.348890 -5.562739 0
M  V30 33 C -4.466462 -4.481980 -3.179872 0
M  V30 34 N -4.594023 -3.869456 -1.866707 0
M  V30 35 N 0.700005 -0.659288 -0.350873 0
M  V30 36 H 1.673503 -1.050958 5.143005 0
M  V30 37 H 2.466126 -1.813671 6.519727 0
M  V30 38 H 3.048430 -2.152912 4.829852 0
M  V30 39 H 3.296769 0.364104 7.780706 0
M  V30 40 H 4.323385 -1.112264 7.466335 0
M  V30 41 H 4.995208 0.497331 7.117833 0
M  V30 42 H 5.147687 0.578716 4.871136 0
M  V30 43 H 3.385501 1.961728 5.509120 0
M  V30 44 H 1.900991 1.058096 5.819383 0
M  V30 45 H 1.631048 3.285054 4.693742 0
M  V30 46 H 0.443606 4.869886 3.198318 0
M  V30 47 H 0.805471 2.216277 -0.056770 0
M  V30 48 H 2.602469 -0.349347 1.855597 0
M  V30 49 H 2.843520 0.209580 -3.268715 0
M  V30 50 H 0.727269 -1.034400 -3.610794 0
M  V30 51 H -1.296109 -1.698018 0.525486 0
M  V30 52 H -1.030924 -2.050549 -3.750527 0
M  V30 53 H -5.516932 -2.888755 -4.732458 0
M  V30 54 H -4.134640 -2.104550 -5.508977 0
M  V30 55 H -4.543136 -1.652799 -3.822464 0
M  V30 56 H -2.237683 -5.078867 -4.465628 0
M  V30 57 H -3.399091 -4.616691 -5.736110 0
M  V30 58 H -2.199586 -2.906325 -6.359099 0
M  V30 59 H -5.501687 -4.498511 -3.625402 0
M  V30 60 H -4.041816 -5.486566 -3.171620 0
M  V30 61 H -5.436644 -3.971536 -1.241933 0
M  V30 END ATOM
M  V30 BEGIN BOND
M  V30 1 1 1 2
M  V30 2 1 2 3
M  V30 3 1 2 4
M  V30 4 1 2 5
M  V30 5 1 5 6
M  V30 6 1 6 7
M  V30 7 2 7 8
M  V30 8 1 8 9
M  V30 9 2 9 10
M  V30 10 1 10 11
M  V30 11 3 11 12
M  V30 12 1 10 13
M  V30 13 2 13 14
M  V30 14 1 14 15
M  V30 15 1 15 16
M  V30 16 2 16 17
M  V30 17 1 17 18
M  V30 18 2 18 19
M  V30 19 1 19 20
M  V30 20 1 20 21
M  V30 21 2 21 22
M  V30 22 1 22 23
M  V30 23 1 23 24
M  V30 24 3 24 25
M  V30 25 2 23 26
M  V30 26 1 26 27
M  V30 27 2 27 28
M  V30 28 1 27 29
M  V30 29 1 29 30 CFG=3
M  V30 30 1 29 31
M  V30 31 1 31 32
M  V30 32 1 29 33
M  V30 33 1 33 34
M  V30 34 2 20 35
M  V30 35 1 14 7
M  V30 36 1 35 16
M  V30 37 1 28 21
M  V30 38 1 34 26
M  V30 39 1 1 36
M  V30 40 1 1 37
M  V30 41 1 1 38
M  V30 42 1 3 39
M  V30 43 1 3 40
M  V30 44 1 3 41
M  V30 45 1 4 42
M  V30 46 1 5 43
M  V30 47 1 5 44
M  V30 48 1 8 45
M  V30 49 1 9 46
M  V30 50 1 13 47
M  V30 51 1 15 48
M  V30 52 1 18 49
M  V30 53 1 19 50
M  V30 54 1 22 51
M  V30 55 1 28 52
M  V30 56 1 30 53
M  V30 57 1 30 54
M  V30 58 1 30 55
M  V30 59 1 31 56
M  V30 60 1 31 57
M  V30 61 1 32 58
M  V30 62 1 33 59
M  V30 63 1 33 60
M  V30 64 1 34 61
M  V30 END BOND
M  V30 END CTAB
M  END
>  <Dataset>  (652) 
ChEMBL_Kinases

>  <Ligand_Instance>  (652) 
nan

>  <PDB_ID>  (652) 
nan

>  <Standardized_SMILES>  (652) 
CC(C)(O)COc1ccc(C#N)cc1Nc1nccc(-c2cc(C#N)c3c(c2)[C@@](C)(CO)CN3)n1

>  <Name>  (652) 
nan

>  <Pocket>  (652) 
nan

>  <ATP_Site>  (652) 
nan

>  <Peripheral>  (652) 
nan

>  <Num_H_Atoms_ProtBoundConf>  (652) 
nan

>  <Num_Resolved_Atoms>  (652) 
nan

>  <Num_Not_Resolved_Atoms>  (652) 
nan

$$$$
CHEMBL4211047
     RDKit          3D

  0  0  0  0  0  0  0  0  0  0999 V3000
M  V30 BEGIN CTAB
M  V30 COUNTS 47 50 0 0 0
M  V30 BEGIN ATOM
M  V30 1 C 2.798303 -5.556269 1.554800 0
M  V30 2 C 2.631865 -5.204817 0.111405 0
M  V30 3 C 2.388133 -3.723735 -0.079655 0
M  V30 4 C 3.547133 -2.911667 0.457407 0
M  V30 5 N 3.335117 -1.499348 0.284364 0
M  V30 6 C 2.259162 -0.751814 0.835314 0
M  V30 7 O 1.444424 -1.444864 1.533668 0
M  V30 8 C 2.071305 0.683413 0.640165 0
M  V30 9 C 2.884562 1.525977 -0.090616 0
M  V30 10 C 2.602964 2.871813 -0.203275 0
M  V30 11 C 1.503938 3.444604 0.402106 0
M  V30 12 C 0.684528 2.611109 1.134968 0
M  V30 13 C -0.517013 3.140603 1.818384 0
M  V30 14 C -0.696070 4.279841 2.589569 0
M  V30 15 N -1.989566 4.264760 2.955939 0
M  V30 16 C -2.614423 3.187105 2.457247 0
M  V30 17 C -3.941677 2.806736 2.602843 0
M  V30 18 C -4.341880 1.620743 1.970489 0
M  V30 19 C -3.357186 0.963725 1.269591 0
M  V30 20 C -3.779617 -0.254787 0.623195 0
M  V30 21 C -3.037622 -1.199711 -0.188881 0
M  V30 22 C -3.679273 -2.282804 -0.686077 0
M  V30 23 C -5.118346 -2.445690 -0.370691 0
M  V30 24 S -5.422349 -0.905836 0.689632 0
M  V30 25 N -2.081225 1.351093 1.143315 0
M  V30 26 N -1.705332 2.487615 1.751508 0
M  V30 27 C 0.974661 1.267778 1.241371 0
M  V30 28 H 3.845625 -5.801020 1.802642 0
M  V30 29 H 2.157368 -6.431372 1.806431 0
M  V30 30 H 2.490027 -4.669831 2.156855 0
M  V30 31 H 1.816872 -5.787401 -0.362749 0
M  V30 32 H 3.560200 -5.482231 -0.438613 0
M  V30 33 H 2.279533 -3.490754 -1.157543 0
M  V30 34 H 1.424017 -3.473372 0.391258 0
M  V30 35 H 3.675255 -3.098470 1.543793 0
M  V30 36 H 4.431371 -3.204831 -0.131700 0
M  V30 37 H 4.007106 -0.912886 -0.294152 0
M  V30 38 H 3.735419 1.082059 -0.559198 0
M  V30 39 H 3.285354 3.474840 -0.793249 0
M  V30 40 H 1.298155 4.502018 0.303271 0
M  V30 41 H 0.121645 4.964553 2.784168 0
M  V30 42 H -4.658773 3.381128 3.173823 0
M  V30 43 H -5.354526 1.327588 2.079709 0
M  V30 44 H -2.008797 -0.920819 -0.311819 0
M  V30 45 H -3.104526 -2.967742 -1.285443 0
M  V30 46 H -5.556346 -3.423177 -0.860409 0
M  V30 47 H 0.300593 0.661878 1.826434 0
M  V30 END ATOM
M  V30 BEGIN BOND
M  V30 1 1 1 2
M  V30 2 1 2 3
M  V30 3 1 3 4
M  V30 4 1 4 5
M  V30 5 1 5 6
M  V30 6 2 6 7
M  V30 7 1 6 8
M  V30 8 2 8 9
M  V30 9 1 9 10
M  V30 10 2 10 11
M  V30 11 1 11 12
M  V30 12 1 12 13
M  V30 13 2 13 14
M  V30 14 1 14 15
M  V30 15 2 15 16
M  V30 16 1 16 17
M  V30 17 2 17 18
M  V30 18 1 18 19
M  V30 19 1 19 20
M  V30 20 2 20 21
M  V30 21 1 21 22
M  V30 22 2 22 23
M  V30 23 1 23 24
M  V30 24 2 19 25
M  V30 25 1 25 26
M  V30 26 2 12 27
M  V30 27 1 27 8
M  V30 28 1 26 13
M  V30 29 1 26 16
M  V30 30 1 24 20
M  V30 31 1 1 28
M  V30 32 1 1 29
M  V30 33 1 1 30
M  V30 34 1 2 31
M  V30 35 1 2 32
M  V30 36 1 3 33
M  V30 37 1 3 34
M  V30 38 1 4 35
M  V30 39 1 4 36
M  V30 40 1 5 37
M  V30 41 1 9 38
M  V30 42 1 10 39
M  V30 43 1 11 40
M  V30 44 1 14 41
M  V30 45 1 17 42
M  V30 46 1 18 43
M  V30 47 1 21 44
M  V30 48 1 22 45
M  V30 49 1 23 46
M  V30 50 1 27 47
M  V30 END BOND
M  V30 END CTAB
M  END
>  <Dataset>  (653) 
ChEMBL_Kinases

>  <Ligand_Instance>  (653) 
nan

>  <PDB_ID>  (653) 
nan

>  <Standardized_SMILES>  (653) 
CCCCNC(=O)c1cccc(-c2cnc3ccc(-c4cccs4)nn23)c1

>  <Name>  (653) 
nan

>  <Pocket>  (653) 
nan

>  <ATP_Site>  (653) 
nan

>  <Peripheral>  (653) 
nan

>  <Num_H_Atoms_ProtBoundConf>  (653) 
nan

>  <Num_Resolved_Atoms>  (653) 
nan

>  <Num_Not_Resolved_Atoms>  (653) 
nan

$$$$
CHEMBL4211560
     RDKit          3D

  0  0  0  0  0  0  0  0  0  0999 V3000
M  V30 BEGIN CTAB
M  V30 COUNTS 42 44 0 0 0
M  V30 BEGIN ATOM
M  V30 1 C -0.194801 -6.710963 0.014830 0
M  V30 2 N 0.789524 -5.657191 0.002901 0
M  V30 3 C 2.139866 -5.794593 -0.540928 0
M  V30 4 C 2.693758 -4.381331 -0.523605 0
M  V30 5 C 1.970162 -3.770733 0.636109 0 CFG=1
M  V30 6 O 2.593533 -4.100184 1.821108 0
M  V30 7 C 1.962441 -2.318912 0.385926 0
M  V30 8 C 1.957969 -1.116321 0.199655 0
M  V30 9 C 1.940728 0.313193 -0.000806 0
M  V30 10 C 2.935067 0.891481 -0.777167 0
M  V30 11 C 2.879403 2.265143 -0.942644 0
M  V30 12 C 1.872255 3.014654 -0.354701 0
M  V30 13 C 0.895010 2.416251 0.412780 0
M  V30 14 C -0.201639 3.128697 1.068433 0
M  V30 15 C -0.376425 4.494321 0.986970 0
M  V30 16 C -1.397621 5.191004 1.592609 0
M  V30 17 C -2.323862 4.492950 2.339473 0
M  V30 18 C -2.143328 3.126871 2.417009 0
M  V30 19 C -3.096331 2.343543 3.195085 0
M  V30 20 N -2.977892 0.934385 3.322088 0
M  V30 21 O -4.064260 2.881505 3.787328 0
M  V30 22 N -1.134351 2.483498 1.811935 0
M  V30 23 C 0.950437 1.046501 0.577842 0
M  V30 24 C 0.602333 -4.335458 0.512338 0
M  V30 25 O -0.531846 -3.867481 0.761965 0
M  V30 26 H -1.208931 -6.355605 -0.244649 0
M  V30 27 H 0.049636 -7.508839 -0.713298 0
M  V30 28 H -0.292491 -7.193371 1.027206 0
M  V30 29 H 2.727589 -6.508458 0.044942 0
M  V30 30 H 2.014643 -6.166123 -1.570800 0
M  V30 31 H 2.500062 -3.877702 -1.476740 0
M  V30 32 H 3.764970 -4.440667 -0.265240 0
M  V30 33 H 2.335333 -3.493171 2.563114 0
M  V30 34 H 3.731192 0.334673 -1.247218 0
M  V30 35 H 3.635752 2.762889 -1.541779 0
M  V30 36 H 1.835676 4.085677 -0.488450 0
M  V30 37 H 0.319440 5.092118 0.414968 0
M  V30 38 H -1.499759 6.250363 1.506184 0
M  V30 39 H -3.154876 4.964994 2.846428 0
M  V30 40 H -3.544915 0.694224 2.466711 0
M  V30 41 H -3.287714 0.059884 2.828392 0
M  V30 42 H 0.199154 0.535736 1.175410 0
M  V30 END ATOM
M  V30 BEGIN BOND
M  V30 1 1 1 2
M  V30 2 1 2 3
M  V30 3 1 3 4
M  V30 4 1 4 5
M  V30 5 1 5 6
M  V30 6 1 5 7 CFG=3
M  V30 7 3 7 8
M  V30 8 1 8 9
M  V30 9 2 9 10
M  V30 10 1 10 11
M  V30 11 2 11 12
M  V30 12 1 12 13
M  V30 13 1 13 14
M  V30 14 2 14 15
M  V30 15 1 15 16
M  V30 16 2 16 17
M  V30 17 1 17 18
M  V30 18 1 18 19
M  V30 19 1 19 20
M  V30 20 2 19 21
M  V30 21 2 18 22
M  V30 22 2 13 23
M  V30 23 1 5 24
M  V30 24 2 24 25
M  V30 25 1 24 2
M  V30 26 1 23 9
M  V30 27 1 22 14
M  V30 28 1 1 26
M  V30 29 1 1 27
M  V30 30 1 1 28
M  V30 31 1 3 29
M  V30 32 1 3 30
M  V30 33 1 4 31
M  V30 34 1 4 32
M  V30 35 1 6 33
M  V30 36 1 10 34
M  V30 37 1 11 35
M  V30 38 1 12 36
M  V30 39 1 15 37
M  V30 40 1 16 38
M  V30 41 1 17 39
M  V30 42 1 20 40
M  V30 43 1 20 41
M  V30 44 1 23 42
M  V30 END BOND
M  V30 END CTAB
M  END
>  <Dataset>  (654) 
ChEMBL_Kinases

>  <Ligand_Instance>  (654) 
nan

>  <PDB_ID>  (654) 
nan

>  <Standardized_SMILES>  (654) 
CN1CC[C@@](O)(C#Cc2cccc(-c3cccc(C(N)=O)n3)c2)C1=O

>  <Name>  (654) 
nan

>  <Pocket>  (654) 
nan

>  <ATP_Site>  (654) 
nan

>  <Peripheral>  (654) 
nan

>  <Num_H_Atoms_ProtBoundConf>  (654) 
nan

>  <Num_Resolved_Atoms>  (654) 
nan

>  <Num_Not_Resolved_Atoms>  (654) 
nan

$$$$
CHEMBL4780723
     RDKit          3D

  0  0  0  0  0  0  0  0  0  0999 V3000
M  V30 BEGIN CTAB
M  V30 COUNTS 44 47 0 0 0
M  V30 BEGIN ATOM
M  V30 1 S -0.966952 -3.541671 0.025993 0
M  V30 2 C 0.355386 -2.648402 -0.211843 0
M  V30 3 N 1.551679 -3.090107 0.367514 0
M  V30 4 C 2.908303 -2.761873 0.495893 0
M  V30 5 C 3.337209 -1.948770 1.523682 0
M  V30 6 C 4.658974 -1.566268 1.737328 0
M  V30 7 C 5.549020 -2.075193 0.815125 0
M  V30 8 C 5.239715 -2.894403 -0.249796 0
M  V30 9 C 3.895137 -3.222905 -0.382911 0
M  V30 10 Cl 3.400478 -4.259584 -1.705719 0
M  V30 11 N 0.262508 -1.470792 -0.983969 0
M  V30 12 C -0.990604 -1.047921 -1.566019 0
M  V30 13 C -1.372515 0.305263 -1.017717 0
M  V30 14 C -0.357606 0.897469 -0.084033 0
M  V30 15 N -0.586977 0.601833 1.307178 0
M  V30 16 C -1.477609 0.840930 2.375803 0
M  V30 17 N -1.252019 0.273691 3.597234 0
M  V30 18 C -2.058505 0.476318 4.632634 0
M  V30 19 N -3.139802 1.258465 4.510348 0
M  V30 20 C -3.464085 1.868944 3.361723 0
M  V30 21 N -4.461497 2.683979 2.984430 0
M  V30 22 N -4.260597 2.979606 1.711260 0
M  V30 23 C -3.146559 2.355804 1.291584 0
M  V30 24 C -2.604532 1.633529 2.315653 0
M  V30 25 C 1.069201 0.729292 -0.528084 0
M  V30 26 C 1.292530 -0.533610 -1.321189 0
M  V30 27 H 1.635623 -3.956722 0.940259 0
M  V30 28 H 2.601507 -1.568791 2.229532 0
M  V30 29 H 4.959957 -0.928250 2.552318 0
M  V30 30 H 6.595999 -1.782349 0.969920 0
M  V30 31 H 5.985639 -3.257895 -0.935048 0
M  V30 32 H -0.835546 -0.949054 -2.656903 0
M  V30 33 H -1.790717 -1.802705 -1.438913 0
M  V30 34 H -2.341704 0.236664 -0.480180 0
M  V30 35 H -1.535961 0.998373 -1.855111 0
M  V30 36 H -0.527097 2.025975 -0.156359 0
M  V30 37 H 0.228464 -0.027549 1.575447 0
M  V30 38 H -1.748358 -0.040167 5.532006 0
M  V30 39 H -5.226008 2.980601 3.658468 0
M  V30 40 H -2.776757 2.445363 0.285534 0
M  V30 41 H 1.440690 1.581956 -1.161753 0
M  V30 42 H 1.770845 0.721243 0.339598 0
M  V30 43 H 1.266839 -0.276867 -2.417326 0
M  V30 44 H 2.314189 -0.914272 -1.105999 0
M  V30 END ATOM
M  V30 BEGIN BOND
M  V30 1 2 1 2
M  V30 2 1 2 3
M  V30 3 1 3 4
M  V30 4 2 4 5
M  V30 5 1 5 6
M  V30 6 2 6 7
M  V30 7 1 7 8
M  V30 8 2 8 9
M  V30 9 1 9 10
M  V30 10 1 2 11
M  V30 11 1 11 12
M  V30 12 1 12 13
M  V30 13 1 13 14
M  V30 14 1 14 15
M  V30 15 1 15 16
M  V30 16 2 16 17
M  V30 17 1 17 18
M  V30 18 2 18 19
M  V30 19 1 19 20
M  V30 20 1 20 21
M  V30 21 1 21 22
M  V30 22 2 22 23
M  V30 23 1 23 24
M  V30 24 1 14 25
M  V30 25 1 25 26
M  V30 26 1 9 4
M  V30 27 1 26 11
M  V30 28 1 24 16
M  V30 29 2 24 20
M  V30 30 1 3 27
M  V30 31 1 5 28
M  V30 32 1 6 29
M  V30 33 1 7 30
M  V30 34 1 8 31
M  V30 35 1 12 32
M  V30 36 1 12 33
M  V30 37 1 13 34
M  V30 38 1 13 35
M  V30 39 1 14 36
M  V30 40 1 15 37
M  V30 41 1 18 38
M  V30 42 1 21 39
M  V30 43 1 23 40
M  V30 44 1 25 41
M  V30 45 1 25 42
M  V30 46 1 26 43
M  V30 47 1 26 44
M  V30 END BOND
M  V30 END CTAB
M  END
>  <Dataset>  (655) 
ChEMBL_Kinases

>  <Ligand_Instance>  (655) 
nan

>  <PDB_ID>  (655) 
nan

>  <Standardized_SMILES>  (655) 
S=C(Nc1ccccc1Cl)N1CCC(Nc2ncnc3[nH]ncc23)CC1

>  <Name>  (655) 
nan

>  <Pocket>  (655) 
nan

>  <ATP_Site>  (655) 
nan

>  <Peripheral>  (655) 
nan

>  <Num_H_Atoms_ProtBoundConf>  (655) 
nan

>  <Num_Resolved_Atoms>  (655) 
nan

>  <Num_Not_Resolved_Atoms>  (655) 
nan

$$$$
CHEMBL4212691
     RDKit          3D

  0  0  0  0  0  0  0  0  0  0999 V3000
M  V30 BEGIN CTAB
M  V30 COUNTS 21 22 0 0 0
M  V30 BEGIN ATOM
M  V30 1 N 0.074798 1.127869 3.889774 0
M  V30 2 C 0.551362 -0.196905 3.595174 0
M  V30 3 S 0.552837 -1.377286 4.721626 0
M  V30 4 C 0.958516 -0.126957 2.191699 0
M  V30 5 C 2.218530 0.211685 1.751077 0
M  V30 6 C 2.499502 0.248047 0.402280 0
M  V30 7 C 1.527178 -0.053610 -0.546116 0
M  V30 8 C 0.261334 -0.392216 -0.052297 0
M  V30 9 C -0.054805 -0.438649 1.289069 0
M  V30 10 C -0.606413 -0.672280 -1.245041 0
M  V30 11 C 0.091206 0.255901 -2.234634 0
M  V30 12 O 1.448068 -0.119630 -1.948135 0
M  V30 13 H -0.964877 1.258229 3.856987 0
M  V30 14 H 0.358021 2.080894 4.140667 0
M  V30 15 H 2.959301 0.441824 2.484026 0
M  V30 16 H 3.486684 0.512510 0.030404 0
M  V30 17 H -1.059026 -0.710173 1.588483 0
M  V30 18 H -0.365217 -1.712894 -1.543558 0
M  V30 19 H -1.658311 -0.453540 -1.088330 0
M  V30 20 H -0.034754 1.293628 -1.845253 0
M  V30 21 H -0.196094 0.108719 -3.269344 0
M  V30 END ATOM
M  V30 BEGIN BOND
M  V30 1 1 1 2
M  V30 2 2 2 3
M  V30 3 1 2 4
M  V30 4 2 4 5
M  V30 5 1 5 6
M  V30 6 2 6 7
M  V30 7 1 7 8
M  V30 8 2 8 9
M  V30 9 1 8 10
M  V30 10 1 10 11
M  V30 11 1 11 12
M  V30 12 1 9 4
M  V30 13 1 12 7
M  V30 14 1 1 13
M  V30 15 1 1 14
M  V30 16 1 5 15
M  V30 17 1 6 16
M  V30 18 1 9 17
M  V30 19 1 10 18
M  V30 20 1 10 19
M  V30 21 1 11 20
M  V30 22 1 11 21
M  V30 END BOND
M  V30 END CTAB
M  END
>  <Dataset>  (656) 
ChEMBL_Kinases

>  <Ligand_Instance>  (656) 
nan

>  <PDB_ID>  (656) 
nan

>  <Standardized_SMILES>  (656) 
NC(=S)c1ccc2c(c1)CCO2

>  <Name>  (656) 
nan

>  <Pocket>  (656) 
nan

>  <ATP_Site>  (656) 
nan

>  <Peripheral>  (656) 
nan

>  <Num_H_Atoms_ProtBoundConf>  (656) 
nan

>  <Num_Resolved_Atoms>  (656) 
nan

>  <Num_Not_Resolved_Atoms>  (656) 
nan

$$$$
CHEMBL4780791
     RDKit          3D

  0  0  0  0  0  0  0  0  0  0999 V3000
M  V30 BEGIN CTAB
M  V30 COUNTS 53 56 0 0 0
M  V30 BEGIN ATOM
M  V30 1 C 4.769819 -1.416250 3.982642 0
M  V30 2 C 4.236858 0.007267 3.799617 0
M  V30 3 C 3.174491 -0.065503 2.726009 0
M  V30 4 S 3.854390 -0.670324 1.190801 0
M  V30 5 O 4.916774 0.245982 0.672969 0
M  V30 6 O 4.442987 -2.030574 1.408088 0
M  V30 7 N 2.576170 -0.719417 0.032357 0
M  V30 8 C 1.916055 0.473678 -0.330718 0
M  V30 9 C 2.351894 1.255103 -1.378562 0
M  V30 10 F 3.437401 0.908555 -2.108009 0
M  V30 11 C 1.703423 2.413024 -1.722638 0
M  V30 12 C 0.597808 2.786880 -0.996972 0
M  V30 13 C 0.067691 2.082321 0.075434 0
M  V30 14 C -1.102852 2.480249 0.812788 0
M  V30 15 O -0.902064 3.712383 1.094784 0
M  V30 16 C -2.320077 1.873661 1.259580 0
M  V30 17 N -3.123032 2.538973 2.103506 0
M  V30 18 N -4.165323 1.772463 2.347348 0
M  V30 19 C -4.130121 0.594140 1.709356 0
M  V30 20 N -4.910770 -0.491966 1.618384 0
M  V30 21 C -4.538551 -1.526461 0.840090 0
M  V30 22 C -3.339848 -1.486577 0.117910 0
M  V30 23 C -3.016186 -2.649572 -0.699110 0
M  V30 24 C -4.007945 -3.211367 -1.492188 0
M  V30 25 C -3.830939 -4.309723 -2.308714 0
M  V30 26 C -2.569164 -4.899708 -2.342601 0
M  V30 27 F -2.233767 -5.985221 -3.093921 0
M  V30 28 C -1.550010 -4.365250 -1.561862 0
M  V30 29 C -1.782889 -3.264497 -0.762795 0
M  V30 30 C -0.697254 -2.709451 0.057762 0
M  V30 31 C -2.546853 -0.372614 0.216216 0
M  V30 32 C -2.940641 0.677140 1.016934 0
M  V30 33 C 0.802974 0.929682 0.334510 0
M  V30 34 F 0.390304 0.139963 1.373268 0
M  V30 35 H 5.673325 -1.518396 3.339598 0
M  V30 36 H 5.054213 -1.481793 5.058699 0
M  V30 37 H 3.987491 -2.172612 3.714422 0
M  V30 38 H 3.736681 0.367465 4.716391 0
M  V30 39 H 5.076699 0.649002 3.531785 0
M  V30 40 H 2.680872 0.910492 2.573651 0
M  V30 41 H 2.396539 -0.784729 3.053959 0
M  V30 42 H 2.320832 -1.649746 -0.376750 0
M  V30 43 H 2.053394 3.028686 -2.554227 0
M  V30 44 H 0.101443 3.720501 -1.298864 0
M  V30 45 H -4.953679 2.075653 2.993620 0
M  V30 46 H -5.207581 -2.390500 0.797676 0
M  V30 47 H -5.005051 -2.763132 -1.479810 0
M  V30 48 H -4.587014 -4.741369 -2.916008 0
M  V30 49 H -0.552654 -4.799429 -1.562926 0
M  V30 50 H -0.024326 -3.552541 0.393122 0
M  V30 51 H -1.021098 -2.223209 0.996174 0
M  V30 52 H -0.033440 -2.084529 -0.576906 0
M  V30 53 H -1.641330 -0.320788 -0.328265 0
M  V30 END ATOM
M  V30 BEGIN BOND
M  V30 1 1 1 2
M  V30 2 1 2 3
M  V30 3 1 3 4
M  V30 4 2 4 5
M  V30 5 2 4 6
M  V30 6 1 4 7
M  V30 7 1 7 8
M  V30 8 2 8 9
M  V30 9 1 9 10
M  V30 10 1 9 11
M  V30 11 2 11 12
M  V30 12 1 12 13
M  V30 13 1 13 14
M  V30 14 2 14 15
M  V30 15 1 14 16
M  V30 16 2 16 17
M  V30 17 1 17 18
M  V30 18 1 18 19
M  V30 19 2 19 20
M  V30 20 1 20 21
M  V30 21 2 21 22
M  V30 22 1 22 23
M  V30 23 2 23 24
M  V30 24 1 24 25
M  V30 25 2 25 26
M  V30 26 1 26 27
M  V30 27 1 26 28
M  V30 28 2 28 29
M  V30 29 1 29 30
M  V30 30 1 22 31
M  V30 31 2 31 32
M  V30 32 2 13 33
M  V30 33 1 33 34
M  V30 34 1 33 8
M  V30 35 1 32 16
M  V30 36 1 32 19
M  V30 37 1 29 23
M  V30 38 1 1 35
M  V30 39 1 1 36
M  V30 40 1 1 37
M  V30 41 1 2 38
M  V30 42 1 2 39
M  V30 43 1 3 40
M  V30 44 1 3 41
M  V30 45 1 7 42
M  V30 46 1 11 43
M  V30 47 1 12 44
M  V30 48 1 18 45
M  V30 49 1 21 46
M  V30 50 1 24 47
M  V30 51 1 25 48
M  V30 52 1 28 49
M  V30 53 1 30 50
M  V30 54 1 30 51
M  V30 55 1 30 52
M  V30 56 1 31 53
M  V30 END BOND
M  V30 END CTAB
M  END
>  <Dataset>  (657) 
ChEMBL_Kinases

>  <Ligand_Instance>  (657) 
nan

>  <PDB_ID>  (657) 
nan

>  <Standardized_SMILES>  (657) 
CCCS(=O)(=O)Nc1c(F)ccc(C(=O)c2n[nH]c3ncc(-c4ccc(F)cc4C)cc23)c1F

>  <Name>  (657) 
nan

>  <Pocket>  (657) 
nan

>  <ATP_Site>  (657) 
nan

>  <Peripheral>  (657) 
nan

>  <Num_H_Atoms_ProtBoundConf>  (657) 
nan

>  <Num_Resolved_Atoms>  (657) 
nan

>  <Num_Not_Resolved_Atoms>  (657) 
nan

$$$$
CHEMBL4212663
     RDKit          3D

  0  0  0  0  0  0  0  0  0  0999 V3000
M  V30 BEGIN CTAB
M  V30 COUNTS 88 93 0 0 0
M  V30 BEGIN ATOM
M  V30 1 C 8.994963 1.529169 -4.261869 0
M  V30 2 C 7.733259 1.737308 -4.979319 0
M  V30 3 C 6.470705 2.115374 -4.552586 0
M  V30 4 C 5.640878 2.158359 -5.646549 0
M  V30 5 N 4.275600 2.496615 -5.641734 0
M  V30 6 C 3.546068 2.856229 -4.482045 0
M  V30 7 N 4.052890 2.956651 -3.259196 0
M  V30 8 C 3.341187 3.291021 -2.173580 0
M  V30 9 C 1.997068 3.550192 -2.314089 0
M  V30 10 C 1.434734 3.454532 -3.565453 0
M  V30 11 N 2.228112 3.116243 -4.582997 0
M  V30 12 N 0.065465 3.633130 -3.856778 0
M  V30 13 C -0.439387 3.523167 -5.197435 0
M  V30 14 C -0.808392 3.927735 -2.777508 0
M  V30 15 O -2.019730 4.093119 -3.014458 0
M  V30 16 N -0.230527 4.016030 -1.468617 0
M  V30 17 C -1.217420 4.142254 -0.437397 0
M  V30 18 C -1.560118 2.879284 0.034158 0
M  V30 19 C -2.513065 2.682264 1.043589 0
M  V30 20 N -2.830009 1.350231 1.506630 0
M  V30 21 C -2.147692 0.791092 2.615509 0
M  V30 22 O -1.264114 1.461662 3.204699 0
M  V30 23 C -2.443680 -0.553271 3.099469 0
M  V30 24 C -1.823852 -0.988912 4.266590 0
M  V30 25 C -2.100019 -2.263841 4.706901 0
M  V30 26 C -2.967104 -3.152021 4.052843 0
M  V30 27 C -3.001540 -4.464109 4.662497 0
M  V30 28 N -1.970348 -5.381942 4.369283 0
M  V30 29 C -1.564587 -5.652025 3.055144 0
M  V30 30 C -2.136580 -7.047705 2.721193 0
M  V30 31 C -1.816792 -7.723745 4.040123 0
M  V30 32 N -2.419707 -8.987112 4.240954 0
M  V30 33 C -3.840339 -9.049932 4.238165 0
M  V30 34 C -1.886530 -9.944218 3.307701 0
M  V30 35 C -2.141837 -6.662802 5.046753 0
M  V30 36 C -3.577842 -2.717432 2.905722 0
M  V30 37 C -4.570670 -3.543660 2.195526 0
M  V30 38 F -5.608085 -3.798728 3.118520 0
M  V30 39 F -5.200948 -2.731127 1.237446 0
M  V30 40 F -4.152599 -4.668710 1.592437 0
M  V30 41 C -3.298691 -1.419031 2.451538 0
M  V30 42 C -3.113972 3.819950 1.565727 0
M  V30 43 C -2.771451 5.069553 1.095968 0
M  V30 44 C -1.833353 5.248000 0.103128 0
M  V30 45 C -1.380944 6.515450 -0.487758 0
M  V30 46 C 1.177236 3.963367 -1.151686 0
M  V30 47 N 6.393206 1.813079 -6.704219 0
M  V30 48 C 5.886136 1.738651 -8.041271 0
M  V30 49 N 7.649378 1.559410 -6.309352 0
M  V30 50 H 9.504191 0.604897 -4.662106 0
M  V30 51 H 9.677381 2.389131 -4.398292 0
M  V30 52 H 8.816371 1.289343 -3.185987 0
M  V30 53 H 6.309908 2.309303 -3.521319 0
M  V30 54 H 3.762829 2.479586 -6.572079 0
M  V30 55 H 3.775663 3.369130 -1.170160 0
M  V30 56 H 0.388705 3.386013 -5.928809 0
M  V30 57 H -1.140103 2.686377 -5.344956 0
M  V30 58 H -0.928001 4.494755 -5.482917 0
M  V30 59 H -1.136520 1.922256 -0.318978 0
M  V30 60 H -3.573763 0.832568 0.990190 0
M  V30 61 H -1.152905 -0.316553 4.780738 0
M  V30 62 H -1.559928 -2.509387 5.636249 0
M  V30 63 H -2.994507 -4.328146 5.787896 0
M  V30 64 H -4.027218 -4.960499 4.520542 0
M  V30 65 H -0.438758 -5.845949 3.083753 0
M  V30 66 H -1.703294 -4.924374 2.278264 0
M  V30 67 H -3.198711 -7.010939 2.493499 0
M  V30 68 H -1.566678 -7.484685 1.877214 0
M  V30 69 H -0.699021 -7.880091 4.012877 0
M  V30 70 H -4.347855 -8.319180 3.558478 0
M  V30 71 H -4.297598 -9.006109 5.260935 0
M  V30 72 H -4.136843 -10.064722 3.837165 0
M  V30 73 H -2.384685 -10.948028 3.432479 0
M  V30 74 H -1.995991 -9.571482 2.274743 0
M  V30 75 H -0.787329 -10.036499 3.511810 0
M  V30 76 H -1.346877 -6.701747 5.845546 0
M  V30 77 H -3.103336 -6.775806 5.552226 0
M  V30 78 H -3.789935 -1.110863 1.550540 0
M  V30 79 H -3.847891 3.703163 2.340371 0
M  V30 80 H -3.218796 5.970600 1.479293 0
M  V30 81 H -1.677462 7.358690 0.178938 0
M  V30 82 H -0.288368 6.602843 -0.624590 0
M  V30 83 H -1.928627 6.722019 -1.452867 0
M  V30 84 H 1.325232 3.297308 -0.280611 0
M  V30 85 H 1.482224 5.016869 -0.916900 0
M  V30 86 H 5.118824 2.537756 -8.207463 0
M  V30 87 H 6.677799 1.761841 -8.798178 0
M  V30 88 H 5.321446 0.779951 -8.145202 0
M  V30 END ATOM
M  V30 BEGIN BOND
M  V30 1 1 1 2
M  V30 2 1 2 3
M  V30 3 2 3 4
M  V30 4 1 4 5
M  V30 5 1 5 6
M  V30 6 2 6 7
M  V30 7 1 7 8
M  V30 8 2 8 9
M  V30 9 1 9 10
M  V30 10 2 10 11
M  V30 11 1 10 12
M  V30 12 1 12 13
M  V30 13 1 12 14
M  V30 14 2 14 15
M  V30 15 1 14 16
M  V30 16 1 16 17
M  V30 17 2 17 18
M  V30 18 1 18 19
M  V30 19 1 19 20
M  V30 20 1 20 21
M  V30 21 2 21 22
M  V30 22 1 21 23
M  V30 23 2 23 24
M  V30 24 1 24 25
M  V30 25 2 25 26
M  V30 26 1 26 27
M  V30 27 1 27 28
M  V30 28 1 28 29
M  V30 29 1 29 30
M  V30 30 1 30 31
M  V30 31 1 31 32
M  V30 32 1 32 33
M  V30 33 1 32 34
M  V30 34 1 31 35
M  V30 35 1 26 36
M  V30 36 1 36 37
M  V30 37 1 37 38
M  V30 38 1 37 39
M  V30 39 1 37 40
M  V30 40 2 36 41
M  V30 41 2 19 42
M  V30 42 1 42 43
M  V30 43 2 43 44
M  V30 44 1 44 45
M  V30 45 1 16 46
M  V30 46 1 4 47
M  V30 47 1 47 48
M  V30 48 1 47 49
M  V30 49 2 49 2
M  V30 50 1 11 6
M  V30 51 1 44 17
M  V30 52 1 46 9
M  V30 53 1 41 23
M  V30 54 1 35 28
M  V30 55 1 1 50
M  V30 56 1 1 51
M  V30 57 1 1 52
M  V30 58 1 3 53
M  V30 59 1 5 54
M  V30 60 1 8 55
M  V30 61 1 13 56
M  V30 62 1 13 57
M  V30 63 1 13 58
M  V30 64 1 18 59
M  V30 65 1 20 60
M  V30 66 1 24 61
M  V30 67 1 25 62
M  V30 68 1 27 63
M  V30 69 1 27 64
M  V30 70 1 29 65
M  V30 71 1 29 66
M  V30 72 1 30 67
M  V30 73 1 30 68
M  V30 74 1 31 69
M  V30 75 1 33 70
M  V30 76 1 33 71
M  V30 77 1 33 72
M  V30 78 1 34 73
M  V30 79 1 34 74
M  V30 80 1 34 75
M  V30 81 1 35 76
M  V30 82 1 35 77
M  V30 83 1 41 78
M  V30 84 1 42 79
M  V30 85 1 43 80
M  V30 86 1 45 81
M  V30 87 1 45 82
M  V30 88 1 45 83
M  V30 89 1 46 84
M  V30 90 1 46 85
M  V30 91 1 48 86
M  V30 92 1 48 87
M  V30 93 1 48 88
M  V30 END BOND
M  V30 END CTAB
M  END
>  <Dataset>  (658) 
ChEMBL_Kinases

>  <Ligand_Instance>  (658) 
nan

>  <PDB_ID>  (658) 
nan

>  <Standardized_SMILES>  (658) 
Cc1cc(Nc2ncc3c(n2)N(C)C(=O)N(c2cc(NC(=O)c4ccc(CN5CCC(N(C)C)C5)c(C(F)(F)F)c4)ccc2C)C3)n(C)n1

>  <Name>  (658) 
nan

>  <Pocket>  (658) 
nan

>  <ATP_Site>  (658) 
nan

>  <Peripheral>  (658) 
nan

>  <Num_H_Atoms_ProtBoundConf>  (658) 
nan

>  <Num_Resolved_Atoms>  (658) 
nan

>  <Num_Not_Resolved_Atoms>  (658) 
nan

$$$$
CHEMBL4212569
     RDKit          3D

  0  0  0  0  0  0  0  0  0  0999 V3000
M  V30 BEGIN CTAB
M  V30 COUNTS 55 59 0 0 0
M  V30 BEGIN ATOM
M  V30 1 O 0.168660 -3.557741 1.687918 0
M  V30 2 C -0.206195 -2.715659 0.799708 0
M  V30 3 N 0.589251 -1.548317 0.555365 0
M  V30 4 C 0.429122 -0.435163 -0.366954 0
M  V30 5 C 0.534921 0.819246 0.476079 0
M  V30 6 N 1.953015 1.001270 0.714866 0
M  V30 7 C 2.828581 2.116644 0.601187 0
M  V30 8 N 3.855074 1.964052 -0.281125 0
M  V30 9 C 4.760089 2.932006 -0.495594 0
M  V30 10 N 4.695771 4.109464 0.156902 0
M  V30 11 C 3.693625 4.315656 1.047687 0
M  V30 12 N 3.318446 5.324918 1.857836 0
M  V30 13 C 2.211069 4.994972 2.556737 0
M  V30 14 C 1.835009 3.701144 2.189709 0
M  V30 15 C 2.764887 3.317924 1.265184 0
M  V30 16 C 2.593369 -0.192373 1.153803 0
M  V30 17 C 1.772825 -1.401062 1.332036 0
M  V30 18 C -1.450453 -2.994880 0.066191 0
M  V30 19 C -2.409419 -1.917755 0.308287 0
M  V30 20 C -3.244038 -1.237840 -0.552181 0
M  V30 21 C -4.086463 -0.238032 -0.113958 0
M  V30 22 C -4.125073 0.124229 1.223491 0
M  V30 23 Cl -5.249483 1.409570 1.603025 0
M  V30 24 C -3.300824 -0.539982 2.103387 0
M  V30 25 C -2.461425 -1.539773 1.652560 0
M  V30 26 C -2.077346 -4.254928 0.642618 0
M  V30 27 C -1.487121 -5.508988 0.045842 0
M  V30 28 N -1.862662 -5.578167 -1.352774 0
M  V30 29 C -2.244483 -4.282760 -1.871508 0
M  V30 30 C -1.207311 -3.283251 -1.396098 0
M  V30 31 H 1.306275 -0.405478 -1.076884 0
M  V30 32 H -0.516405 -0.408901 -0.893746 0
M  V30 33 H 0.107528 1.651511 -0.117403 0
M  V30 34 H -0.030862 0.638219 1.418371 0
M  V30 35 H 5.566417 2.759575 -1.214767 0
M  V30 36 H 3.840321 6.246414 1.919867 0
M  V30 37 H 1.697800 5.637847 3.288345 0
M  V30 38 H 0.985715 3.146121 2.570575 0
M  V30 39 H 3.134890 0.089842 2.105409 0
M  V30 40 H 3.451458 -0.470829 0.472467 0
M  V30 41 H 1.506932 -1.466019 2.426023 0
M  V30 42 H 2.364547 -2.349650 1.164222 0
M  V30 43 H -3.143578 -1.591222 -1.583143 0
M  V30 44 H -4.703719 0.235881 -0.865762 0
M  V30 45 H -3.381520 -0.210488 3.118193 0
M  V30 46 H -1.868004 -1.978359 2.450605 0
M  V30 47 H -2.004149 -4.255791 1.750992 0
M  V30 48 H -3.164025 -4.263836 0.427052 0
M  V30 49 H -2.003120 -6.351973 0.564083 0
M  V30 50 H -0.392433 -5.565712 0.212209 0
M  V30 51 H -2.537755 -6.332968 -1.553366 0
M  V30 52 H -2.224553 -4.359186 -2.999783 0
M  V30 53 H -3.278008 -3.998089 -1.588096 0
M  V30 54 H -0.232018 -3.830199 -1.458350 0
M  V30 55 H -1.128068 -2.412071 -2.040092 0
M  V30 END ATOM
M  V30 BEGIN BOND
M  V30 1 2 1 2
M  V30 2 1 2 3
M  V30 3 1 3 4
M  V30 4 1 4 5
M  V30 5 1 5 6
M  V30 6 1 6 7
M  V30 7 2 7 8
M  V30 8 1 8 9
M  V30 9 2 9 10
M  V30 10 1 10 11
M  V30 11 1 11 12
M  V30 12 1 12 13
M  V30 13 2 13 14
M  V30 14 1 14 15
M  V30 15 1 6 16
M  V30 16 1 16 17
M  V30 17 1 2 18
M  V30 18 1 18 19
M  V30 19 2 19 20
M  V30 20 1 20 21
M  V30 21 2 21 22
M  V30 22 1 22 23
M  V30 23 1 22 24
M  V30 24 2 24 25
M  V30 25 1 18 26
M  V30 26 1 26 27
M  V30 27 1 27 28
M  V30 28 1 28 29
M  V30 29 1 29 30
M  V30 30 1 17 3
M  V30 31 1 30 18
M  V30 32 1 15 7
M  V30 33 1 25 19
M  V30 34 2 15 11
M  V30 35 1 4 31
M  V30 36 1 4 32
M  V30 37 1 5 33
M  V30 38 1 5 34
M  V30 39 1 9 35
M  V30 40 1 12 36
M  V30 41 1 13 37
M  V30 42 1 14 38
M  V30 43 1 16 39
M  V30 44 1 16 40
M  V30 45 1 17 41
M  V30 46 1 17 42
M  V30 47 1 20 43
M  V30 48 1 21 44
M  V30 49 1 24 45
M  V30 50 1 25 46
M  V30 51 1 26 47
M  V30 52 1 26 48
M  V30 53 1 27 49
M  V30 54 1 27 50
M  V30 55 1 28 51
M  V30 56 1 29 52
M  V30 57 1 29 53
M  V30 58 1 30 54
M  V30 59 1 30 55
M  V30 END BOND
M  V30 END CTAB
M  END
>  <Dataset>  (659) 
ChEMBL_Kinases

>  <Ligand_Instance>  (659) 
nan

>  <PDB_ID>  (659) 
nan

>  <Standardized_SMILES>  (659) 
O=C(N1CCN(c2ncnc3[nH]ccc23)CC1)C1(c2ccc(Cl)cc2)CCNCC1

>  <Name>  (659) 
nan

>  <Pocket>  (659) 
nan

>  <ATP_Site>  (659) 
nan

>  <Peripheral>  (659) 
nan

>  <Num_H_Atoms_ProtBoundConf>  (659) 
nan

>  <Num_Resolved_Atoms>  (659) 
nan

>  <Num_Not_Resolved_Atoms>  (659) 
nan

$$$$
CHEMBL4212531
     RDKit          3D

  0  0  0  0  0  0  0  0  0  0999 V3000
M  V30 BEGIN CTAB
M  V30 COUNTS 56 59 0 0 0
M  V30 BEGIN ATOM
M  V30 1 C 3.640362 -3.138597 0.329546 0
M  V30 2 C 3.187076 -1.812163 0.855480 0
M  V30 3 C 1.946163 -2.085007 1.725262 0
M  V30 4 C 4.211780 -1.259093 1.822648 0
M  V30 5 O 3.822787 -0.021254 2.338051 0
M  V30 6 N 2.829629 -0.886095 -0.193781 0
M  V30 7 C 2.246869 0.304818 0.040031 0
M  V30 8 C 2.018168 0.961110 -1.173826 0
M  V30 9 C 1.379554 2.294217 -1.262082 0
M  V30 10 O 1.777485 3.217764 -1.987647 0
M  V30 11 C 0.194324 2.429571 -0.383147 0
M  V30 12 C -0.190536 3.695409 0.055034 0
M  V30 13 N -1.275452 3.815237 0.869610 0
M  V30 14 C -1.990345 2.751181 1.266871 0
M  V30 15 C -1.644457 1.482672 0.856971 0
M  V30 16 N -2.247849 0.230152 1.160974 0
M  V30 17 C -3.296676 -0.543983 0.614792 0
M  V30 18 O -4.001288 -0.216638 -0.391216 0
M  V30 19 C -3.624818 -1.836742 1.236890 0
M  V30 20 C -4.970472 -1.907472 1.847267 0
M  V30 21 C -5.054619 -1.608351 3.214238 0
M  V30 22 C -6.240635 -1.626273 3.918212 0
M  V30 23 C -7.414105 -1.956747 3.241405 0
M  V30 24 Cl -8.922402 -1.984325 4.116485 0
M  V30 25 C -7.312184 -2.250065 1.885779 0
M  V30 26 N -6.133740 -2.224305 1.222582 0
M  V30 27 C -0.543137 1.339942 0.027409 0
M  V30 28 C 2.501470 0.089643 -2.156197 0
M  V30 29 C 2.511200 0.267360 -3.520049 0
M  V30 30 N 3.035461 -0.726838 -4.249500 0
M  V30 31 C 3.525751 -1.842927 -3.655824 0
M  V30 32 N 4.072747 -2.869586 -4.477130 0
M  V30 33 N 3.507045 -2.001305 -2.298893 0
M  V30 34 C 2.987687 -1.025158 -1.513255 0
M  V30 35 H 4.558365 -3.098196 -0.271526 0
M  V30 36 H 2.812174 -3.711402 -0.168985 0
M  V30 37 H 3.879854 -3.759081 1.236598 0
M  V30 38 H 1.447100 -1.093919 1.794055 0
M  V30 39 H 2.218808 -2.403290 2.734601 0
M  V30 40 H 1.345106 -2.829677 1.165352 0
M  V30 41 H 5.235632 -1.255537 1.446144 0
M  V30 42 H 4.198761 -1.972593 2.690705 0
M  V30 43 H 3.132949 -0.127131 3.010666 0
M  V30 44 H 1.989964 0.706384 1.009486 0
M  V30 45 H 0.377828 4.561656 -0.255098 0
M  V30 46 H -2.857926 2.762390 1.910128 0
M  V30 47 H -1.694468 -0.077535 1.998824 0
M  V30 48 H -3.645805 -2.617461 0.415628 0
M  V30 49 H -2.888848 -2.194628 1.970955 0
M  V30 50 H -4.186483 -1.347613 3.790367 0
M  V30 51 H -6.278836 -1.389904 4.979622 0
M  V30 52 H -8.219919 -2.510593 1.338096 0
M  V30 53 H -0.175440 0.394879 -0.361130 0
M  V30 54 H 2.119431 1.156847 -3.982765 0
M  V30 55 H 3.459976 -3.589093 -4.914767 0
M  V30 56 H 3.262443 -3.466519 -4.797102 0
M  V30 END ATOM
M  V30 BEGIN BOND
M  V30 1 1 1 2
M  V30 2 1 2 3
M  V30 3 1 2 4
M  V30 4 1 4 5
M  V30 5 1 2 6
M  V30 6 1 6 7
M  V30 7 2 7 8
M  V30 8 1 8 9
M  V30 9 2 9 10
M  V30 10 1 9 11
M  V30 11 2 11 12
M  V30 12 1 12 13
M  V30 13 2 13 14
M  V30 14 1 14 15
M  V30 15 1 15 16
M  V30 16 1 16 17
M  V30 17 2 17 18
M  V30 18 1 17 19
M  V30 19 1 19 20
M  V30 20 2 20 21
M  V30 21 1 21 22
M  V30 22 2 22 23
M  V30 23 1 23 24
M  V30 24 1 23 25
M  V30 25 2 25 26
M  V30 26 2 15 27
M  V30 27 1 8 28
M  V30 28 2 28 29
M  V30 29 1 29 30
M  V30 30 2 30 31
M  V30 31 1 31 32
M  V30 32 1 31 33
M  V30 33 2 33 34
M  V30 34 1 34 6
M  V30 35 1 27 11
M  V30 36 1 34 28
M  V30 37 1 26 20
M  V30 38 1 1 35
M  V30 39 1 1 36
M  V30 40 1 1 37
M  V30 41 1 3 38
M  V30 42 1 3 39
M  V30 43 1 3 40
M  V30 44 1 4 41
M  V30 45 1 4 42
M  V30 46 1 5 43
M  V30 47 1 7 44
M  V30 48 1 12 45
M  V30 49 1 14 46
M  V30 50 1 16 47
M  V30 51 1 19 48
M  V30 52 1 19 49
M  V30 53 1 21 50
M  V30 54 1 22 51
M  V30 55 1 25 52
M  V30 56 1 27 53
M  V30 57 1 29 54
M  V30 58 1 32 55
M  V30 59 1 32 56
M  V30 END BOND
M  V30 END CTAB
M  END
>  <Dataset>  (660) 
ChEMBL_Kinases

>  <Ligand_Instance>  (660) 
nan

>  <PDB_ID>  (660) 
nan

>  <Standardized_SMILES>  (660) 
CC(C)(CO)n1cc(C(=O)c2cncc(NC(=O)Cc3ccc(Cl)cn3)c2)c2cnc(N)nc21

>  <Name>  (660) 
PF-06273340

>  <Pocket>  (660) 
nan

>  <ATP_Site>  (660) 
nan

>  <Peripheral>  (660) 
nan

>  <Num_H_Atoms_ProtBoundConf>  (660) 
nan

>  <Num_Resolved_Atoms>  (660) 
nan

>  <Num_Not_Resolved_Atoms>  (660) 
nan

$$$$
CHEMBL4212346
     RDKit          3D

  0  0  0  0  0  0  0  0  0  0999 V3000
M  V30 BEGIN CTAB
M  V30 COUNTS 68 72 0 0 0
M  V30 BEGIN ATOM
M  V30 1 C 2.400491 -2.636139 7.727312 0
M  V30 2 O 2.173817 -1.815274 6.597693 0
M  V30 3 C 2.085260 -2.411947 5.348456 0
M  V30 4 O 2.205545 -3.656514 5.235655 0
M  V30 5 C 1.854647 -1.628829 4.153042 0
M  V30 6 C 1.778947 -2.291599 2.948728 0
M  V30 7 C 1.563995 -1.664552 1.743028 0
M  V30 8 C 1.426487 -0.301840 1.820305 0
M  V30 9 N 1.204087 0.432263 0.637885 0
M  V30 10 C 1.127751 -0.283862 -0.611263 0
M  V30 11 N 2.242253 -0.515853 -1.350104 0
M  V30 12 C 2.175063 -1.195188 -2.516235 0
M  V30 13 C 0.942255 -1.646058 -2.934703 0
M  V30 14 C -0.212018 -1.430538 -2.213300 0
M  V30 15 N -0.060479 -0.737428 -1.048192 0
M  V30 16 N -1.532123 -1.873224 -2.592914 0
M  V30 17 C -2.536278 -2.039412 -1.561198 0
M  V30 18 C -3.756534 -1.192249 -1.714351 0
M  V30 19 C -4.930933 -2.023123 -1.236816 0
M  V30 20 C -4.453630 -3.440579 -1.099131 0
M  V30 21 C -2.966559 -3.464868 -1.363740 0
M  V30 22 C -1.728458 -2.108371 -3.973035 0 CFG=2
M  V30 23 C -2.904858 -2.824262 -4.454137 0
M  V30 24 C -0.506468 -2.800918 -4.511562 0
M  V30 25 O -0.596989 -3.785412 -5.298089 0
M  V30 26 N 0.804452 -2.368504 -4.151567 0
M  V30 27 C 1.955035 -2.657471 -4.999491 0
M  V30 28 C 1.479565 0.481298 2.945905 0
M  V30 29 O 1.375897 1.763741 3.229615 0
M  V30 30 C 1.178142 2.981359 2.691672 0
M  V30 31 C -0.110761 3.572706 3.311512 0
M  V30 32 C 0.032500 5.068501 3.040527 0
M  V30 33 C 1.483164 5.299911 2.676344 0
M  V30 34 C 2.154246 4.054041 3.223629 0
M  V30 35 C 1.702490 -0.237742 4.135457 0
M  V30 36 H 1.788423 -3.561655 7.683729 0
M  V30 37 H 3.482477 -2.844177 7.887819 0
M  V30 38 H 2.052581 -2.066058 8.617007 0
M  V30 39 H 1.889083 -3.374759 2.894329 0
M  V30 40 H 1.500638 -2.156325 0.790758 0
M  V30 41 H 1.050063 1.330784 0.159127 0
M  V30 42 H 3.014666 -1.410137 -3.142734 0
M  V30 43 H -2.097047 -1.734543 -0.571893 0
M  V30 44 H -3.755231 -0.291701 -1.028420 0
M  V30 45 H -3.913779 -0.747109 -2.705999 0
M  V30 46 H -5.314207 -1.714785 -0.241977 0
M  V30 47 H -5.791463 -1.910385 -1.929479 0
M  V30 48 H -4.923556 -3.999850 -1.952188 0
M  V30 49 H -4.769834 -3.959999 -0.195813 0
M  V30 50 H -2.520054 -3.938818 -0.440857 0
M  V30 51 H -2.655251 -4.113137 -2.184827 0
M  V30 52 H -1.704010 -1.097694 -4.478752 0
M  V30 53 H -3.810138 -2.842557 -3.857415 0
M  V30 54 H -2.634263 -3.915713 -4.574403 0
M  V30 55 H -3.100340 -2.526237 -5.527266 0
M  V30 56 H 1.672620 -3.412652 -5.730432 0
M  V30 57 H 2.380308 -1.749526 -5.448764 0
M  V30 58 H 2.746635 -3.127495 -4.358593 0
M  V30 59 H 1.030997 3.105480 1.618394 0
M  V30 60 H -0.969471 3.125854 2.800716 0
M  V30 61 H -0.076681 3.404811 4.407488 0
M  V30 62 H -0.174750 5.675960 3.955903 0
M  V30 63 H -0.660540 5.353056 2.219629 0
M  V30 64 H 1.526807 5.328457 1.559517 0
M  V30 65 H 1.885160 6.227020 3.130036 0
M  V30 66 H 3.170610 3.896408 2.866461 0
M  V30 67 H 2.026884 4.086958 4.313813 0
M  V30 68 H 1.785438 0.157597 5.162914 0
M  V30 END ATOM
M  V30 BEGIN BOND
M  V30 1 1 1 2
M  V30 2 1 2 3
M  V30 3 2 3 4
M  V30 4 1 3 5
M  V30 5 2 5 6
M  V30 6 1 6 7
M  V30 7 2 7 8
M  V30 8 1 8 9
M  V30 9 1 9 10
M  V30 10 2 10 11
M  V30 11 1 11 12
M  V30 12 2 12 13
M  V30 13 1 13 14
M  V30 14 2 14 15
M  V30 15 1 14 16
M  V30 16 1 16 17
M  V30 17 1 17 18
M  V30 18 1 18 19
M  V30 19 1 19 20
M  V30 20 1 20 21
M  V30 21 1 16 22
M  V30 22 1 22 23
M  V30 23 1 22 24
M  V30 24 2 24 25
M  V30 25 1 24 26
M  V30 26 1 26 27
M  V30 27 1 8 28
M  V30 28 1 28 29
M  V30 29 1 29 30
M  V30 30 1 30 31
M  V30 31 1 31 32
M  V30 32 1 32 33
M  V30 33 1 33 34
M  V30 34 2 28 35
M  V30 35 1 35 5
M  V30 36 1 15 10
M  V30 37 1 21 17
M  V30 38 1 34 30
M  V30 39 1 26 13
M  V30 40 1 1 36
M  V30 41 1 1 37
M  V30 42 1 1 38
M  V30 43 1 6 39
M  V30 44 1 7 40
M  V30 45 1 9 41
M  V30 46 1 12 42
M  V30 47 1 17 43
M  V30 48 1 18 44
M  V30 49 1 18 45
M  V30 50 1 19 46
M  V30 51 1 19 47
M  V30 52 1 20 48
M  V30 53 1 20 49
M  V30 54 1 21 50
M  V30 55 1 21 51
M  V30 56 1 22 52 CFG=3
M  V30 57 1 23 53
M  V30 58 1 23 54
M  V30 59 1 23 55
M  V30 60 1 27 56
M  V30 61 1 27 57
M  V30 62 1 27 58
M  V30 63 1 30 59
M  V30 64 1 31 60
M  V30 65 1 31 61
M  V30 66 1 32 62
M  V30 67 1 32 63
M  V30 68 1 33 64
M  V30 69 1 33 65
M  V30 70 1 34 66
M  V30 71 1 34 67
M  V30 72 1 35 68
M  V30 END BOND
M  V30 END CTAB
M  END
>  <Dataset>  (661) 
ChEMBL_Kinases

>  <Ligand_Instance>  (661) 
nan

>  <PDB_ID>  (661) 
nan

>  <Standardized_SMILES>  (661) 
COC(=O)c1ccc(Nc2ncc3c(n2)N(C2CCCC2)[C@H](C)C(=O)N3C)c(OC2CCCC2)c1

>  <Name>  (661) 
nan

>  <Pocket>  (661) 
nan

>  <ATP_Site>  (661) 
nan

>  <Peripheral>  (661) 
nan

>  <Num_H_Atoms_ProtBoundConf>  (661) 
nan

>  <Num_Resolved_Atoms>  (661) 
nan

>  <Num_Not_Resolved_Atoms>  (661) 
nan

$$$$
CHEMBL4212255
     RDKit          3D

  0  0  0  0  0  0  0  0  0  0999 V3000
M  V30 BEGIN CTAB
M  V30 COUNTS 50 54 0 0 0
M  V30 BEGIN ATOM
M  V30 1 F 3.769878 -6.345499 1.839113 0
M  V30 2 C 3.483875 -5.481940 0.840415 0
M  V30 3 C 3.463262 -5.965260 -0.431691 0
M  V30 4 C 3.181519 -5.157633 -1.513970 0
M  V30 5 C 2.917029 -3.819428 -1.254001 0
M  V30 6 C 2.945484 -3.362038 0.040547 0
M  V30 7 N 2.662096 -1.988992 0.180573 0
M  V30 8 C 3.542759 -0.998756 0.410712 0
M  V30 9 N 2.905325 0.181662 0.484376 0
M  V30 10 C 1.560213 0.014895 0.303271 0
M  V30 11 C 0.365632 0.752325 0.254712 0
M  V30 12 N 0.726131 2.105508 0.467255 0
M  V30 13 C 1.080088 3.436473 0.676235 0
M  V30 14 C 0.479936 4.137438 1.844938 0
M  V30 15 C -0.709389 4.817262 1.741670 0
M  V30 16 C -1.338469 5.492367 2.763180 0
M  V30 17 C -0.678280 5.457164 3.987568 0
M  V30 18 N 0.497886 4.794318 4.122118 0
M  V30 19 C 1.086280 4.143421 3.100122 0
M  V30 20 N -0.783847 0.117529 0.037702 0
M  V30 21 C -0.869007 -1.199053 -0.139147 0
M  V30 22 N -2.172521 -1.705093 -0.357538 0
M  V30 23 C -2.255688 -3.131596 -0.574826 0
M  V30 24 C -3.444381 -3.611827 0.243424 0
M  V30 25 O -4.574770 -2.980082 -0.255852 0
M  V30 26 C -4.567812 -1.660486 0.155045 0
M  V30 27 C -3.360020 -0.896312 -0.370635 0
M  V30 28 N 0.266424 -1.887534 -0.091415 0
M  V30 29 C 1.470277 -1.370758 0.117095 0
M  V30 30 C 3.225495 -4.158695 1.129823 0
M  V30 31 H 3.669560 -7.015697 -0.651027 0
M  V30 32 H 3.164562 -5.533545 -2.513886 0
M  V30 33 H 2.698521 -3.202917 -2.115398 0
M  V30 34 H 4.622558 -1.059323 0.531505 0
M  V30 35 H -0.283702 2.469770 0.397536 0
M  V30 36 H 0.979742 4.071267 -0.249375 0
M  V30 37 H 2.199001 3.526354 0.876856 0
M  V30 38 H -1.200308 4.822071 0.759939 0
M  V30 39 H -2.270270 6.017992 2.658717 0
M  V30 40 H -1.140149 5.980357 4.832547 0
M  V30 41 H 2.016976 3.609058 3.173234 0
M  V30 42 H -2.524421 -3.364662 -1.643675 0
M  V30 43 H -1.356268 -3.672273 -0.271840 0
M  V30 44 H -3.304185 -3.199780 1.282528 0
M  V30 45 H -3.531251 -4.694949 0.311983 0
M  V30 46 H -4.666616 -1.615510 1.244290 0
M  V30 47 H -5.484141 -1.171362 -0.281681 0
M  V30 48 H -3.197016 -0.048920 0.330721 0
M  V30 49 H -3.607316 -0.518363 -1.393556 0
M  V30 50 H 3.240841 -3.770385 2.139027 0
M  V30 END ATOM
M  V30 BEGIN BOND
M  V30 1 1 1 2
M  V30 2 2 2 3
M  V30 3 1 3 4
M  V30 4 2 4 5
M  V30 5 1 5 6
M  V30 6 1 6 7
M  V30 7 1 7 8
M  V30 8 2 8 9
M  V30 9 1 9 10
M  V30 10 2 10 11
M  V30 11 1 11 12
M  V30 12 1 12 13
M  V30 13 1 13 14
M  V30 14 2 14 15
M  V30 15 1 15 16
M  V30 16 2 16 17
M  V30 17 1 17 18
M  V30 18 2 18 19
M  V30 19 1 11 20
M  V30 20 2 20 21
M  V30 21 1 21 22
M  V30 22 1 22 23
M  V30 23 1 23 24
M  V30 24 1 24 25
M  V30 25 1 25 26
M  V30 26 1 26 27
M  V30 27 1 21 28
M  V30 28 2 28 29
M  V30 29 2 6 30
M  V30 30 1 30 2
M  V30 31 1 29 7
M  V30 32 1 29 10
M  V30 33 1 19 14
M  V30 34 1 27 22
M  V30 35 1 3 31
M  V30 36 1 4 32
M  V30 37 1 5 33
M  V30 38 1 8 34
M  V30 39 1 12 35
M  V30 40 1 13 36
M  V30 41 1 13 37
M  V30 42 1 15 38
M  V30 43 1 16 39
M  V30 44 1 17 40
M  V30 45 1 19 41
M  V30 46 1 23 42
M  V30 47 1 23 43
M  V30 48 1 24 44
M  V30 49 1 24 45
M  V30 50 1 26 46
M  V30 51 1 26 47
M  V30 52 1 27 48
M  V30 53 1 27 49
M  V30 54 1 30 50
M  V30 END BOND
M  V30 END CTAB
M  END
>  <Dataset>  (662) 
ChEMBL_Kinases

>  <Ligand_Instance>  (662) 
nan

>  <PDB_ID>  (662) 
nan

>  <Standardized_SMILES>  (662) 
Fc1cccc(-n2cnc3c(NCc4cccnc4)nc(N4CCOCC4)nc32)c1

>  <Name>  (662) 
nan

>  <Pocket>  (662) 
nan

>  <ATP_Site>  (662) 
nan

>  <Peripheral>  (662) 
nan

>  <Num_H_Atoms_ProtBoundConf>  (662) 
nan

>  <Num_Resolved_Atoms>  (662) 
nan

>  <Num_Not_Resolved_Atoms>  (662) 
nan

$$$$
CHEMBL4212237
     RDKit          3D

  0  0  0  0  0  0  0  0  0  0999 V3000
M  V30 BEGIN CTAB
M  V30 COUNTS 79 82 0 0 0
M  V30 BEGIN ATOM
M  V30 1 C 2.479021 -2.756897 6.337667 0
M  V30 2 O 2.097214 -2.805359 4.999427 0
M  V30 3 C 1.837430 -1.745172 4.157197 0
M  V30 4 C 1.924051 -0.417409 4.534368 0
M  V30 5 C 1.648717 0.586467 3.637616 0
M  V30 6 C 1.802108 1.960475 4.078080 0
M  V30 7 O 2.337184 2.195119 5.219578 0
M  V30 8 N 1.399099 3.086709 3.324396 0
M  V30 9 C 1.389005 4.500822 3.386370 0
M  V30 10 C 1.881703 5.135940 2.131664 0
M  V30 11 C 0.892297 4.956505 1.024157 0
M  V30 12 N -0.379593 5.548809 1.345703 0
M  V30 13 C -0.800485 6.501978 0.363873 0
M  V30 14 C -0.469282 6.017885 2.692635 0
M  V30 15 C -0.047295 4.947242 3.687470 0
M  V30 16 C 1.277253 0.301661 2.339459 0
M  V30 17 C 1.204876 -1.045826 2.010057 0
M  V30 18 C 1.471351 -2.099058 2.865627 0
M  V30 19 N 1.400411 -3.453421 2.367980 0
M  V30 20 C 1.002739 -3.798961 1.057227 0
M  V30 21 N 1.722967 -4.799318 0.527332 0
M  V30 22 C 1.489478 -5.259945 -0.723202 0
M  V30 23 C 0.484129 -4.691753 -1.482977 0
M  V30 24 C -0.273884 -3.642912 -0.923414 0
M  V30 25 N 0.000313 -3.210067 0.347049 0
M  V30 26 N -1.347051 -3.100434 -1.723777 0
M  V30 27 C -2.553069 -2.737044 -1.047788 0
M  V30 28 C -3.668918 -3.684276 -1.519590 0
M  V30 29 C -2.506519 -2.901715 0.453381 0
M  V30 30 C -1.006468 -3.050924 -3.165889 0 CFG=2
M  V30 31 C -2.000611 -2.220790 -3.855352 0
M  V30 32 C -1.898242 -1.949322 -5.301801 0
M  V30 33 C -1.930621 -3.090213 -6.254241 0
M  V30 34 C -0.812814 -0.936740 -5.643410 0
M  V30 35 C -0.839679 -4.451667 -3.632830 0
M  V30 36 O -1.240265 -5.353752 -4.460995 0
M  V30 37 N 0.195122 -5.098985 -2.848994 0
M  V30 38 C 1.053798 -6.212143 -3.307526 0
M  V30 39 H 1.928834 -3.488602 6.977520 0
M  V30 40 H 2.490857 -1.746004 6.777906 0
M  V30 41 H 3.552977 -3.102182 6.410497 0
M  V30 42 H 2.205774 -0.163840 5.535550 0
M  V30 43 H 0.952939 2.846535 2.427799 0
M  V30 44 H 1.981107 4.905656 4.246509 0
M  V30 45 H 2.876918 4.738025 1.855190 0
M  V30 46 H 2.030706 6.243732 2.241919 0
M  V30 47 H 0.686090 3.904123 0.756767 0
M  V30 48 H 1.281225 5.522962 0.123191 0
M  V30 49 H 0.018930 7.262387 0.228158 0
M  V30 50 H -0.962294 5.996067 -0.609641 0
M  V30 51 H -1.678052 7.049768 0.741971 0
M  V30 52 H -1.543593 6.238037 2.911323 0
M  V30 53 H 0.088635 6.967328 2.845324 0
M  V30 54 H -0.752716 4.112009 3.645580 0
M  V30 55 H -0.125607 5.388889 4.691935 0
M  V30 56 H 1.050514 1.068846 1.595414 0
M  V30 57 H 0.909433 -1.186778 0.975872 0
M  V30 58 H 1.676317 -4.159032 3.088478 0
M  V30 59 H 2.067612 -6.060395 -1.148155 0
M  V30 60 H -2.929967 -1.719751 -1.255383 0
M  V30 61 H -3.268067 -4.424299 -2.236189 0
M  V30 62 H -4.055162 -4.295213 -0.647611 0
M  V30 63 H -4.537433 -3.152758 -1.925150 0
M  V30 64 H -3.575878 -2.931953 0.842631 0
M  V30 65 H -2.141701 -3.929155 0.750008 0
M  V30 66 H -2.046783 -2.084608 0.998777 0
M  V30 67 H -0.032710 -2.529741 -3.233503 0
M  V30 68 H -3.055221 -2.543154 -3.658291 0
M  V30 69 H -1.957925 -1.192128 -3.370220 0
M  V30 70 H -2.854013 -1.369689 -5.542349 0
M  V30 71 H -2.780936 -3.751844 -6.011037 0
M  V30 72 H -2.202580 -2.718295 -7.303712 0
M  V30 73 H -0.968487 -3.600644 -6.437135 0
M  V30 74 H -0.576975 -0.302416 -4.765919 0
M  V30 75 H 0.089693 -1.423468 -6.094017 0
M  V30 76 H -1.159320 -0.212277 -6.443841 0
M  V30 77 H 0.793956 -6.536961 -4.312964 0
M  V30 78 H 0.939831 -7.010896 -2.546295 0
M  V30 79 H 2.088054 -5.810073 -3.219630 0
M  V30 END ATOM
M  V30 BEGIN BOND
M  V30 1 1 1 2
M  V30 2 1 2 3
M  V30 3 2 3 4
M  V30 4 1 4 5
M  V30 5 1 5 6
M  V30 6 2 6 7
M  V30 7 1 6 8
M  V30 8 1 8 9
M  V30 9 1 9 10
M  V30 10 1 10 11
M  V30 11 1 11 12
M  V30 12 1 12 13
M  V30 13 1 12 14
M  V30 14 1 14 15
M  V30 15 2 5 16
M  V30 16 1 16 17
M  V30 17 2 17 18
M  V30 18 1 18 19
M  V30 19 1 19 20
M  V30 20 2 20 21
M  V30 21 1 21 22
M  V30 22 2 22 23
M  V30 23 1 23 24
M  V30 24 2 24 25
M  V30 25 1 24 26
M  V30 26 1 26 27
M  V30 27 1 27 28
M  V30 28 1 27 29
M  V30 29 1 26 30
M  V30 30 1 30 31
M  V30 31 1 31 32
M  V30 32 1 32 33
M  V30 33 1 32 34
M  V30 34 1 30 35
M  V30 35 2 35 36
M  V30 36 1 35 37
M  V30 37 1 37 38
M  V30 38 1 18 3
M  V30 39 1 25 20
M  V30 40 1 15 9
M  V30 41 1 37 23
M  V30 42 1 1 39
M  V30 43 1 1 40
M  V30 44 1 1 41
M  V30 45 1 4 42
M  V30 46 1 8 43
M  V30 47 1 9 44
M  V30 48 1 10 45
M  V30 49 1 10 46
M  V30 50 1 11 47
M  V30 51 1 11 48
M  V30 52 1 13 49
M  V30 53 1 13 50
M  V30 54 1 13 51
M  V30 55 1 14 52
M  V30 56 1 14 53
M  V30 57 1 15 54
M  V30 58 1 15 55
M  V30 59 1 16 56
M  V30 60 1 17 57
M  V30 61 1 19 58
M  V30 62 1 22 59
M  V30 63 1 27 60
M  V30 64 1 28 61
M  V30 65 1 28 62
M  V30 66 1 28 63
M  V30 67 1 29 64
M  V30 68 1 29 65
M  V30 69 1 29 66
M  V30 70 1 30 67 CFG=1
M  V30 71 1 31 68
M  V30 72 1 31 69
M  V30 73 1 32 70
M  V30 74 1 33 71
M  V30 75 1 33 72
M  V30 76 1 33 73
M  V30 77 1 34 74
M  V30 78 1 34 75
M  V30 79 1 34 76
M  V30 80 1 38 77
M  V30 81 1 38 78
M  V30 82 1 38 79
M  V30 END BOND
M  V30 END CTAB
M  END
>  <Dataset>  (663) 
ChEMBL_Kinases

>  <Ligand_Instance>  (663) 
nan

>  <PDB_ID>  (663) 
nan

>  <Standardized_SMILES>  (663) 
COc1cc(C(=O)NC2CCN(C)CC2)ccc1Nc1ncc2c(n1)N(C(C)C)[C@H](CC(C)C)C(=O)N2C

>  <Name>  (663) 
nan

>  <Pocket>  (663) 
nan

>  <ATP_Site>  (663) 
nan

>  <Peripheral>  (663) 
nan

>  <Num_H_Atoms_ProtBoundConf>  (663) 
nan

>  <Num_Resolved_Atoms>  (663) 
nan

>  <Num_Not_Resolved_Atoms>  (663) 
nan

$$$$
CHEMBL4212211
     RDKit          3D

  0  0  0  0  0  0  0  0  0  0999 V3000
M  V30 BEGIN CTAB
M  V30 COUNTS 71 75 0 0 0
M  V30 BEGIN ATOM
M  V30 1 C 6.184533 -4.812708 0.273708 0
M  V30 2 C 4.939056 -3.979533 0.205231 0
M  V30 3 C 3.844647 -4.301969 0.990627 0
M  V30 4 C 2.718221 -3.507742 0.895999 0
M  V30 5 C 2.737548 -2.435112 0.026522 0
M  V30 6 C 3.847747 -2.117052 -0.762801 0
M  V30 7 C 3.752536 -0.924844 -1.675065 0 CFG=1
M  V30 8 C 2.913523 -1.397655 -2.851088 0
M  V30 9 O 2.746838 -0.430236 -3.819245 0
M  V30 10 N 3.167902 0.201713 -1.017362 0
M  V30 11 C 3.777311 1.467922 -0.823485 0
M  V30 12 O 4.943670 1.596729 -1.275861 0
M  V30 13 C 3.191474 2.660363 -0.144234 0 CFG=1
M  V30 14 C 3.313015 3.827542 -1.071577 0
M  V30 15 N 1.810799 2.334128 0.196155 0
M  V30 16 C 1.205881 2.230460 1.512550 0
M  V30 17 C -0.199208 1.859601 1.201825 0
M  V30 18 C -1.279947 1.608772 2.053604 0
M  V30 19 C -2.539818 1.273108 1.582088 0
M  V30 20 C -2.748077 1.179110 0.200629 0
M  V30 21 C -4.056603 0.828050 -0.310752 0
M  V30 22 N -4.651761 -0.196419 0.311325 0
M  V30 23 C -5.866589 -0.665321 -0.020778 0
M  V30 24 N -6.466415 -1.753377 0.662441 0
M  V30 25 C -5.809325 -2.413268 1.750405 0
M  V30 26 C -4.480016 -3.020050 1.349046 0
M  V30 27 C -3.948223 -3.820758 2.516424 0
M  V30 28 O -4.402847 -3.353322 3.729184 0
M  V30 29 C -4.430608 -1.954511 3.783768 0
M  V30 30 C -5.555231 -1.476355 2.925834 0
M  V30 31 N -6.484076 -0.042440 -1.040290 0
M  V30 32 C -5.994033 0.984314 -1.733471 0
M  V30 33 C -4.741494 1.428510 -1.352408 0
M  V30 34 Cl -3.920872 2.765911 -2.134433 0
M  V30 35 C -1.689582 1.424347 -0.649229 0
M  V30 36 C -0.448271 1.756142 -0.148427 0
M  V30 37 C 0.815928 2.054072 -0.814853 0
M  V30 38 O 0.945452 2.049230 -2.068043 0
M  V30 39 C 4.973285 -2.910085 -0.668728 0
M  V30 40 H 6.992387 -4.340473 0.839309 0
M  V30 41 H 5.989107 -5.821355 0.700436 0
M  V30 42 H 6.524572 -4.971146 -0.778932 0
M  V30 43 H 3.884557 -5.151338 1.651833 0
M  V30 44 H 1.869821 -3.757687 1.504975 0
M  V30 45 H 1.805353 -1.855415 0.009962 0
M  V30 46 H 4.764740 -0.715023 -2.042938 0
M  V30 47 H 1.902962 -1.730994 -2.515616 0
M  V30 48 H 3.417983 -2.279032 -3.302668 0
M  V30 49 H 1.879086 -0.549494 -4.248838 0
M  V30 50 H 2.219709 0.074683 -0.649477 0
M  V30 51 H 3.786686 2.854349 0.779888 0
M  V30 52 H 3.459470 3.516887 -2.139044 0
M  V30 53 H 2.290427 4.308297 -1.087034 0
M  V30 54 H 4.005546 4.612185 -0.763340 0
M  V30 55 H 1.224942 3.246833 1.994903 0
M  V30 56 H 1.700723 1.492327 2.163439 0
M  V30 57 H -1.112437 1.682022 3.103112 0
M  V30 58 H -3.338187 1.090219 2.298025 0
M  V30 59 H -7.422728 -2.062780 0.338082 0
M  V30 60 H -6.465942 -3.257780 2.109661 0
M  V30 61 H -4.568434 -3.704346 0.497863 0
M  V30 62 H -3.747894 -2.221575 1.159281 0
M  V30 63 H -4.244411 -4.882114 2.397393 0
M  V30 64 H -2.841321 -3.760247 2.535101 0
M  V30 65 H -3.454715 -1.491780 3.515214 0
M  V30 66 H -4.644865 -1.694775 4.829853 0
M  V30 67 H -5.362390 -0.455415 2.561436 0
M  V30 68 H -6.492392 -1.478631 3.557813 0
M  V30 69 H -6.494913 1.472025 -2.542072 0
M  V30 70 H -1.841093 1.354456 -1.719313 0
M  V30 71 H 5.834553 -2.669577 -1.273945 0
M  V30 END ATOM
M  V30 BEGIN BOND
M  V30 1 1 1 2
M  V30 2 2 2 3
M  V30 3 1 3 4
M  V30 4 2 4 5
M  V30 5 1 5 6
M  V30 6 1 6 7
M  V30 7 1 7 8
M  V30 8 1 8 9
M  V30 9 1 7 10
M  V30 10 1 10 11
M  V30 11 2 11 12
M  V30 12 1 11 13
M  V30 13 1 13 14
M  V30 14 1 13 15
M  V30 15 1 15 16
M  V30 16 1 16 17
M  V30 17 2 17 18
M  V30 18 1 18 19
M  V30 19 2 19 20
M  V30 20 1 20 21
M  V30 21 2 21 22
M  V30 22 1 22 23
M  V30 23 1 23 24
M  V30 24 1 24 25
M  V30 25 1 25 26
M  V30 26 1 26 27
M  V30 27 1 27 28
M  V30 28 1 28 29
M  V30 29 1 29 30
M  V30 30 2 23 31
M  V30 31 1 31 32
M  V30 32 2 32 33
M  V30 33 1 33 34
M  V30 34 1 20 35
M  V30 35 2 35 36
M  V30 36 1 36 37
M  V30 37 2 37 38
M  V30 38 2 6 39
M  V30 39 1 39 2
M  V30 40 1 37 15
M  V30 41 1 36 17
M  V30 42 1 33 21
M  V30 43 1 30 25
M  V30 44 1 1 40
M  V30 45 1 1 41
M  V30 46 1 1 42
M  V30 47 1 3 43
M  V30 48 1 4 44
M  V30 49 1 5 45
M  V30 50 1 7 46 CFG=3
M  V30 51 1 8 47
M  V30 52 1 8 48
M  V30 53 1 9 49
M  V30 54 1 10 50
M  V30 55 1 13 51 CFG=1
M  V30 56 1 14 52
M  V30 57 1 14 53
M  V30 58 1 14 54
M  V30 59 1 16 55
M  V30 60 1 16 56
M  V30 61 1 18 57
M  V30 62 1 19 58
M  V30 63 1 24 59
M  V30 64 1 25 60
M  V30 65 1 26 61
M  V30 66 1 26 62
M  V30 67 1 27 63
M  V30 68 1 27 64
M  V30 69 1 29 65
M  V30 70 1 29 66
M  V30 71 1 30 67
M  V30 72 1 30 68
M  V30 73 1 32 69
M  V30 74 1 35 70
M  V30 75 1 39 71
M  V30 END BOND
M  V30 END CTAB
M  END
>  <Dataset>  (664) 
ChEMBL_Kinases

>  <Ligand_Instance>  (664) 
nan

>  <PDB_ID>  (664) 
nan

>  <Standardized_SMILES>  (664) 
Cc1cccc([C@@H](CO)NC(=O)[C@@H](C)N2Cc3ccc(-c4nc(NC5CCOCC5)ncc4Cl)cc3C2=O)c1

>  <Name>  (664) 
nan

>  <Pocket>  (664) 
nan

>  <ATP_Site>  (664) 
nan

>  <Peripheral>  (664) 
nan

>  <Num_H_Atoms_ProtBoundConf>  (664) 
nan

>  <Num_Resolved_Atoms>  (664) 
nan

>  <Num_Not_Resolved_Atoms>  (664) 
nan

$$$$
CHEMBL4212150
     RDKit          3D

  0  0  0  0  0  0  0  0  0  0999 V3000
M  V30 BEGIN CTAB
M  V30 COUNTS 72 77 0 0 0
M  V30 BEGIN ATOM
M  V30 1 C 8.105283 -2.442648 1.125082 0
M  V30 2 C 7.579660 -2.278340 -0.249023 0
M  V30 3 C 8.275300 -2.029597 -1.413827 0
M  V30 4 C 7.611504 -1.905071 -2.615758 0
M  V30 5 C 6.240187 -2.025759 -2.682948 0
M  V30 6 N 5.526684 -1.898108 -3.921693 0
M  V30 7 C 4.112426 -2.043055 -3.880655 0
M  V30 8 N 3.465289 -3.226356 -4.050470 0
M  V30 9 C 2.102486 -3.298637 -3.997301 0
M  V30 10 C 1.406150 -2.106717 -3.761815 0
M  V30 11 C 2.062507 -0.912037 -3.586159 0
M  V30 12 N 3.417861 -0.887114 -3.649198 0
M  V30 13 N 1.244713 0.179564 -3.234878 0
M  V30 14 C 1.980667 1.418427 -3.087815 0
M  V30 15 C -0.167441 0.009590 -3.057480 0
M  V30 16 O -0.647819 1.154625 -2.767367 0
M  V30 17 N -0.831066 -1.238064 -3.201146 0
M  V30 18 C -2.113681 -1.337743 -2.602992 0
M  V30 19 C -2.518612 -0.441497 -1.639507 0
M  V30 20 C -3.746603 -0.447923 -1.017131 0
M  V30 21 N -4.149781 0.501104 -0.006545 0
M  V30 22 C -3.752602 -0.072302 1.236055 0
M  V30 23 O -3.191212 -1.202862 1.031324 0
M  V30 24 C -3.969789 0.567433 2.552226 0
M  V30 25 C -4.572275 1.785936 2.795170 0
M  V30 26 C -4.673881 2.205303 4.106721 0
M  V30 27 C -4.182813 1.418776 5.135096 0
M  V30 28 N -4.299915 1.876794 6.477227 0
M  V30 29 C -3.343053 2.762502 6.875845 0
M  V30 30 C -3.547566 3.133841 8.167976 0
M  V30 31 C -4.673324 2.453457 8.587514 0
M  V30 32 C -5.136611 1.674612 7.534118 0
M  V30 33 C -3.574950 0.194086 4.920116 0
M  V30 34 C -3.056106 -0.635022 6.035591 0
M  V30 35 F -4.118451 -0.929386 6.868703 0
M  V30 36 F -2.011078 -0.017912 6.694395 0
M  V30 37 F -2.567523 -1.807912 5.505829 0
M  V30 38 C -3.482817 -0.207865 3.602286 0
M  V30 39 C -4.673762 -1.379507 -1.328417 0
M  V30 40 C -4.321913 -2.302023 -2.286413 0
M  V30 41 C -3.066941 -2.285651 -2.915265 0
M  V30 42 C -2.835239 -3.329631 -3.931209 0
M  V30 43 C -0.094468 -2.273297 -3.870537 0
M  V30 44 C 5.570515 -2.277069 -1.486622 0
M  V30 45 N 6.241092 -2.394960 -0.322239 0
M  V30 46 H 9.206714 -2.522273 1.179097 0
M  V30 47 H 7.775947 -1.550684 1.707505 0
M  V30 48 H 7.609901 -3.309972 1.650301 0
M  V30 49 H 9.344161 -1.949117 -1.277255 0
M  V30 50 H 8.197278 -1.710736 -3.502769 0
M  V30 51 H 6.094789 -1.706631 -4.774133 0
M  V30 52 H 1.620533 -4.264110 -4.137856 0
M  V30 53 H 2.346504 1.487735 -2.029433 0
M  V30 54 H 2.787074 1.507679 -3.837524 0
M  V30 55 H 1.237427 2.244637 -3.186055 0
M  V30 56 H -1.929481 0.367350 -1.229797 0
M  V30 57 H -4.634382 1.449546 0.020639 0
M  V30 58 H -4.910947 2.298297 1.908931 0
M  V30 59 H -5.150934 3.162649 4.253110 0
M  V30 60 H -2.474719 3.212841 6.371321 0
M  V30 61 H -3.068012 3.787850 8.883043 0
M  V30 62 H -5.287317 2.355639 9.486130 0
M  V30 63 H -5.962922 0.977764 7.356561 0
M  V30 64 H -2.995583 -1.182717 3.469834 0
M  V30 65 H -5.658426 -1.461972 -0.894740 0
M  V30 66 H -5.053416 -3.068546 -2.556653 0
M  V30 67 H -3.875348 -3.636921 -4.310735 0
M  V30 68 H -2.338180 -2.990868 -4.834575 0
M  V30 69 H -2.463245 -4.292006 -3.505798 0
M  V30 70 H -0.384596 -3.262963 -3.478932 0
M  V30 71 H -0.249624 -2.190609 -4.996913 0
M  V30 72 H 4.478044 -2.371978 -1.549537 0
M  V30 END ATOM
M  V30 BEGIN BOND
M  V30 1 1 1 2
M  V30 2 2 2 3
M  V30 3 1 3 4
M  V30 4 2 4 5
M  V30 5 1 5 6
M  V30 6 1 6 7
M  V30 7 2 7 8
M  V30 8 1 8 9
M  V30 9 2 9 10
M  V30 10 1 10 11
M  V30 11 2 11 12
M  V30 12 1 11 13
M  V30 13 1 13 14
M  V30 14 1 13 15
M  V30 15 2 15 16
M  V30 16 1 15 17
M  V30 17 1 17 18
M  V30 18 2 18 19
M  V30 19 1 19 20
M  V30 20 1 20 21
M  V30 21 1 21 22
M  V30 22 2 22 23
M  V30 23 1 22 24
M  V30 24 2 24 25
M  V30 25 1 25 26
M  V30 26 2 26 27
M  V30 27 1 27 28
M  V30 28 1 28 29
M  V30 29 2 29 30
M  V30 30 1 30 31
M  V30 31 2 31 32
M  V30 32 1 27 33
M  V30 33 1 33 34
M  V30 34 1 34 35
M  V30 35 1 34 36
M  V30 36 1 34 37
M  V30 37 2 33 38
M  V30 38 2 20 39
M  V30 39 1 39 40
M  V30 40 2 40 41
M  V30 41 1 41 42
M  V30 42 1 17 43
M  V30 43 1 5 44
M  V30 44 2 44 45
M  V30 45 1 45 2
M  V30 46 1 12 7
M  V30 47 1 41 18
M  V30 48 1 43 10
M  V30 49 1 38 24
M  V30 50 1 32 28
M  V30 51 1 1 46
M  V30 52 1 1 47
M  V30 53 1 1 48
M  V30 54 1 3 49
M  V30 55 1 4 50
M  V30 56 1 6 51
M  V30 57 1 9 52
M  V30 58 1 14 53
M  V30 59 1 14 54
M  V30 60 1 14 55
M  V30 61 1 19 56
M  V30 62 1 21 57
M  V30 63 1 25 58
M  V30 64 1 26 59
M  V30 65 1 29 60
M  V30 66 1 30 61
M  V30 67 1 31 62
M  V30 68 1 32 63
M  V30 69 1 38 64
M  V30 70 1 39 65
M  V30 71 1 40 66
M  V30 72 1 42 67
M  V30 73 1 42 68
M  V30 74 1 42 69
M  V30 75 1 43 70
M  V30 76 1 43 71
M  V30 77 1 44 72
M  V30 END BOND
M  V30 END CTAB
M  END
>  <Dataset>  (665) 
ChEMBL_Kinases

>  <Ligand_Instance>  (665) 
nan

>  <PDB_ID>  (665) 
nan

>  <Standardized_SMILES>  (665) 
Cc1ccc(Nc2ncc3c(n2)N(C)C(=O)N(c2cc(NC(=O)c4ccc(-n5cccc5)c(C(F)(F)F)c4)ccc2C)C3)cn1

>  <Name>  (665) 
nan

>  <Pocket>  (665) 
nan

>  <ATP_Site>  (665) 
nan

>  <Peripheral>  (665) 
nan

>  <Num_H_Atoms_ProtBoundConf>  (665) 
nan

>  <Num_Resolved_Atoms>  (665) 
nan

>  <Num_Not_Resolved_Atoms>  (665) 
nan

$$$$
CHEMBL4211840
     RDKit          3D

  0  0  0  0  0  0  0  0  0  0999 V3000
M  V30 BEGIN CTAB
M  V30 COUNTS 46 48 0 0 0
M  V30 BEGIN ATOM
M  V30 1 C 3.620791 -5.478674 -1.352874 0
M  V30 2 O 2.849560 -4.364805 -1.009985 0
M  V30 3 C 3.365042 -3.278411 -0.283582 0
M  V30 4 C 4.669887 -3.209744 0.155712 0
M  V30 5 C 5.095177 -2.119660 0.856150 0
M  V30 6 C 6.470651 -2.025863 1.330369 0
M  V30 7 N 6.903122 -0.878537 2.062808 0
M  V30 8 O 7.352657 -2.903475 1.145087 0
M  V30 9 N 4.232828 -1.110154 1.116400 0
M  V30 10 C 2.957185 -1.129410 0.711927 0
M  V30 11 C 2.108634 0.009283 1.043884 0
M  V30 12 C 2.672592 1.044308 1.758469 0
M  V30 13 C 1.942737 2.161760 2.116055 0
M  V30 14 C 0.609916 2.287520 1.769615 0
M  V30 15 C 0.086448 1.246763 1.064562 0
M  V30 16 C -1.297564 1.324041 0.677049 0
M  V30 17 C -2.466090 1.373701 0.364477 0
M  V30 18 C -3.879674 1.409455 -0.006826 0 CFG=2
M  V30 19 O -4.069900 1.696684 -1.348611 0
M  V30 20 C -4.535379 2.405400 0.887041 0
M  V30 21 C -5.903118 1.796621 1.120117 0
M  V30 22 N -5.676272 0.365581 1.193659 0
M  V30 23 C -6.269117 -0.760210 1.903275 0
M  V30 24 C -4.582868 0.158088 0.308187 0
M  V30 25 O -4.083778 -0.842268 -0.262401 0
M  V30 26 C 0.784231 0.107635 0.685743 0
M  V30 27 C 2.525213 -2.227524 0.005230 0
M  V30 28 H 4.654497 -5.137794 -1.623336 0
M  V30 29 H 3.154841 -5.993268 -2.229044 0
M  V30 30 H 3.623738 -6.211603 -0.523755 0
M  V30 31 H 5.336331 -4.011043 -0.056443 0
M  V30 32 H 7.894696 -0.547874 2.080274 0
M  V30 33 H 6.263808 -0.272770 2.643313 0
M  V30 34 H 3.710480 1.025691 2.069640 0
M  V30 35 H 2.421835 2.961265 2.681481 0
M  V30 36 H 0.012031 3.145513 2.032585 0
M  V30 37 H -4.694581 1.084006 -1.792031 0
M  V30 38 H -4.649520 3.395396 0.390688 0
M  V30 39 H -4.033070 2.475981 1.863569 0
M  V30 40 H -6.380490 2.187508 2.040552 0
M  V30 41 H -6.551276 1.967097 0.218804 0
M  V30 42 H -5.489498 -1.157114 2.616294 0
M  V30 43 H -7.178145 -0.449253 2.433983 0
M  V30 44 H -6.532374 -1.603904 1.232266 0
M  V30 45 H 0.325569 -0.687316 0.129019 0
M  V30 46 H 1.516509 -2.275091 -0.331494 0
M  V30 END ATOM
M  V30 BEGIN BOND
M  V30 1 1 1 2
M  V30 2 1 2 3
M  V30 3 2 3 4
M  V30 4 1 4 5
M  V30 5 1 5 6
M  V30 6 1 6 7
M  V30 7 2 6 8
M  V30 8 2 5 9
M  V30 9 1 9 10
M  V30 10 1 10 11
M  V30 11 2 11 12
M  V30 12 1 12 13
M  V30 13 2 13 14
M  V30 14 1 14 15
M  V30 15 1 15 16
M  V30 16 3 16 17
M  V30 17 1 18 17 CFG=3
M  V30 18 1 18 19
M  V30 19 1 18 20
M  V30 20 1 20 21
M  V30 21 1 21 22
M  V30 22 1 22 23
M  V30 23 1 22 24
M  V30 24 2 24 25
M  V30 25 2 15 26
M  V30 26 2 10 27
M  V30 27 1 27 3
M  V30 28 1 26 11
M  V30 29 1 24 18
M  V30 30 1 1 28
M  V30 31 1 1 29
M  V30 32 1 1 30
M  V30 33 1 4 31
M  V30 34 1 7 32
M  V30 35 1 7 33
M  V30 36 1 12 34
M  V30 37 1 13 35
M  V30 38 1 14 36
M  V30 39 1 19 37
M  V30 40 1 20 38
M  V30 41 1 20 39
M  V30 42 1 21 40
M  V30 43 1 21 41
M  V30 44 1 23 42
M  V30 45 1 23 43
M  V30 46 1 23 44
M  V30 47 1 26 45
M  V30 48 1 27 46
M  V30 END BOND
M  V30 END CTAB
M  END
>  <Dataset>  (666) 
ChEMBL_Kinases

>  <Ligand_Instance>  (666) 
nan

>  <PDB_ID>  (666) 
nan

>  <Standardized_SMILES>  (666) 
COc1cc(C(N)=O)nc(-c2cccc(C#C[C@]3(O)CCN(C)C3=O)c2)c1

>  <Name>  (666) 
nan

>  <Pocket>  (666) 
nan

>  <ATP_Site>  (666) 
nan

>  <Peripheral>  (666) 
nan

>  <Num_H_Atoms_ProtBoundConf>  (666) 
nan

>  <Num_Resolved_Atoms>  (666) 
nan

>  <Num_Not_Resolved_Atoms>  (666) 
nan

$$$$
CHEMBL4212128
     RDKit          3D

  0  0  0  0  0  0  0  0  0  0999 V3000
M  V30 BEGIN CTAB
M  V30 COUNTS 94 96 0 0 0
M  V30 BEGIN ATOM
M  V30 1 C 2.331877 -5.421296 4.847611 0
M  V30 2 C 2.769801 -5.851641 3.478834 0
M  V30 3 C 1.841414 -5.352025 2.406845 0
M  V30 4 C 1.775829 -3.843134 2.408231 0
M  V30 5 C 3.109433 -3.218888 2.166195 0
M  V30 6 C 3.089975 -1.706832 2.154375 0
M  V30 7 C 2.185904 -1.183882 1.076475 0
M  V30 8 C 2.162583 0.313222 1.058950 0
M  V30 9 O 2.827918 0.970963 1.878138 0
M  V30 10 O 1.332151 0.772795 0.045080 0
M  V30 11 C 1.130976 2.163810 -0.192571 0 CFG=1
M  V30 12 C 1.853168 2.321297 -1.534276 0
M  V30 13 C 2.896588 3.074729 -1.676212 0
M  V30 14 C 3.596648 3.238275 -2.939922 0
M  V30 15 O 3.648197 2.923138 -4.148854 0
M  V30 16 O 4.710281 4.042661 -3.094189 0
M  V30 17 C 5.336536 4.151037 -4.354948 0
M  V30 18 C 1.270024 1.538198 -2.697313 0
M  V30 19 C -0.230955 1.778273 -2.689491 0 CFG=1
M  V30 20 C -0.994837 1.004307 -3.690279 0
M  V30 21 C -1.025686 -0.478748 -3.619909 0 CFG=2
M  V30 22 C -1.867391 -0.907450 -4.831285 0
M  V30 23 O -1.856642 -2.261959 -5.050844 0
M  V30 24 C -0.645840 -2.825644 -5.323215 0
M  V30 25 O -1.481470 -1.065195 -2.452639 0
M  V30 26 C -0.914468 -2.030394 -1.675074 0
M  V30 27 O 0.189255 -2.660631 -1.824061 0
M  V30 28 C -1.560547 -2.517892 -0.433845 0
M  V30 29 C -2.970392 -1.958650 -0.247624 0
M  V30 30 O -3.411922 -2.156872 1.052678 0
M  V30 31 C -4.585921 -1.699793 1.606842 0
M  V30 32 C -5.441427 -2.666246 2.090952 0
M  V30 33 C -6.643827 -2.329048 2.675294 0
M  V30 34 C -7.033270 -1.013229 2.795992 0
M  V30 35 C -6.187352 -0.035241 2.314741 0
M  V30 36 C -4.982107 -0.327767 1.725776 0
M  V30 37 C -3.863704 0.396384 1.084416 0
M  V30 38 O -4.627003 0.905911 0.249001 0
M  V30 39 O -2.578063 0.304122 1.492895 0
M  V30 40 C -1.515111 0.896845 0.857584 0
M  V30 41 C -1.270831 2.328326 0.689681 0
M  V30 42 C -2.489529 3.026986 0.112408 0
M  V30 43 C -0.864473 3.028154 1.927820 0
M  V30 44 C -0.256567 2.523631 -0.477721 0 CFG=1
M  V30 45 O -0.346844 3.859570 -0.835796 0
M  V30 46 O -0.771392 1.652112 -1.449237 0
M  V30 47 H 2.598538 -6.223354 5.558361 0
M  V30 48 H 2.804676 -4.488254 5.174494 0
M  V30 49 H 1.225204 -5.303948 4.892934 0
M  V30 50 H 2.813845 -6.969630 3.423265 0
M  V30 51 H 3.799217 -5.511566 3.295315 0
M  V30 52 H 0.814116 -5.746548 2.654954 0
M  V30 53 H 2.135891 -5.753263 1.419062 0
M  V30 54 H 1.082602 -3.564913 1.566274 0
M  V30 55 H 1.342582 -3.546625 3.387981 0
M  V30 56 H 3.801400 -3.501443 3.010184 0
M  V30 57 H 3.544613 -3.613351 1.229919 0
M  V30 58 H 4.120919 -1.377102 1.938581 0
M  V30 59 H 2.740521 -1.332725 3.129147 0
M  V30 60 H 1.168284 -1.566731 1.121496 0
M  V30 61 H 2.615650 -1.481987 0.096113 0
M  V30 62 H 1.678020 2.776730 0.557885 0
M  V30 63 H 3.301162 3.622117 -0.860061 0
M  V30 64 H 4.579230 4.628499 -5.043803 0
M  V30 65 H 5.671353 3.204207 -4.779425 0
M  V30 66 H 6.213580 4.840526 -4.256315 0
M  V30 67 H 1.538585 0.483919 -2.497160 0
M  V30 68 H 1.676549 1.832241 -3.655028 0
M  V30 69 H -0.303725 2.870340 -3.049031 0
M  V30 70 H -0.673704 1.266963 -4.739897 0
M  V30 71 H -2.084114 1.340516 -3.591240 0
M  V30 72 H -0.019808 -0.874687 -3.851861 0
M  V30 73 H -2.853086 -0.445150 -4.856642 0
M  V30 74 H -1.313352 -0.460168 -5.707416 0
M  V30 75 H 0.121159 -2.732861 -4.553679 0
M  V30 76 H -0.723714 -3.911321 -5.575380 0
M  V30 77 H -0.246554 -2.283748 -6.232324 0
M  V30 78 H -1.669316 -3.616983 -0.521990 0
M  V30 79 H -1.016174 -2.326235 0.487233 0
M  V30 80 H -3.110254 -1.013346 -0.718573 0
M  V30 81 H -3.657658 -2.666351 -0.866900 0
M  V30 82 H -5.224173 -3.728443 2.041680 0
M  V30 83 H -7.385118 -3.020485 3.086392 0
M  V30 84 H -7.913542 -0.558436 3.212642 0
M  V30 85 H -6.220292 1.065544 2.265409 0
M  V30 86 H -0.630636 0.401717 1.426294 0
M  V30 87 H -1.322322 0.409183 -0.165443 0
M  V30 88 H -2.778151 2.473996 -0.797964 0
M  V30 89 H -3.319742 3.123800 0.804835 0
M  V30 90 H -2.182450 4.041749 -0.296274 0
M  V30 91 H -1.785069 3.401165 2.426723 0
M  V30 92 H -0.259674 3.938421 1.712172 0
M  V30 93 H -0.360852 2.378669 2.676551 0
M  V30 94 H 0.543048 4.308132 -0.775986 0
M  V30 END ATOM
M  V30 BEGIN BOND
M  V30 1 1 1 2
M  V30 2 1 2 3
M  V30 3 1 3 4
M  V30 4 1 4 5
M  V30 5 1 5 6
M  V30 6 1 6 7
M  V30 7 1 7 8
M  V30 8 2 8 9
M  V30 9 1 8 10
M  V30 10 1 10 11
M  V30 11 1 11 12
M  V30 12 2 12 13
M  V30 13 1 13 14
M  V30 14 2 14 15
M  V30 15 1 14 16
M  V30 16 1 16 17
M  V30 17 1 12 18
M  V30 18 1 18 19
M  V30 19 1 19 20
M  V30 20 1 20 21
M  V30 21 1 21 22
M  V30 22 1 22 23
M  V30 23 1 23 24
M  V30 24 1 21 25
M  V30 25 1 25 26
M  V30 26 2 26 27
M  V30 27 1 26 28
M  V30 28 1 28 29
M  V30 29 1 29 30
M  V30 30 1 30 31
M  V30 31 2 31 32
M  V30 32 1 32 33
M  V30 33 2 33 34
M  V30 34 1 34 35
M  V30 35 2 35 36
M  V30 36 1 36 37
M  V30 37 2 37 38
M  V30 38 1 37 39
M  V30 39 1 39 40
M  V30 40 1 40 41
M  V30 41 1 41 42
M  V30 42 1 41 43
M  V30 43 1 41 44
M  V30 44 1 44 45 CFG=3
M  V30 45 1 44 46
M  V30 46 1 44 11
M  V30 47 1 46 19
M  V30 48 1 36 31
M  V30 49 1 1 47
M  V30 50 1 1 48
M  V30 51 1 1 49
M  V30 52 1 2 50
M  V30 53 1 2 51
M  V30 54 1 3 52
M  V30 55 1 3 53
M  V30 56 1 4 54
M  V30 57 1 4 55
M  V30 58 1 5 56
M  V30 59 1 5 57
M  V30 60 1 6 58
M  V30 61 1 6 59
M  V30 62 1 7 60
M  V30 63 1 7 61
M  V30 64 1 11 62 CFG=1
M  V30 65 1 13 63
M  V30 66 1 17 64
M  V30 67 1 17 65
M  V30 68 1 17 66
M  V30 69 1 18 67
M  V30 70 1 18 68
M  V30 71 1 19 69 CFG=3
M  V30 72 1 20 70
M  V30 73 1 20 71
M  V30 74 1 21 72 CFG=3
M  V30 75 1 22 73
M  V30 76 1 22 74
M  V30 77 1 24 75
M  V30 78 1 24 76
M  V30 79 1 24 77
M  V30 80 1 28 78
M  V30 81 1 28 79
M  V30 82 1 29 80
M  V30 83 1 29 81
M  V30 84 1 32 82
M  V30 85 1 33 83
M  V30 86 1 34 84
M  V30 87 1 35 85
M  V30 88 1 40 86
M  V30 89 1 40 87
M  V30 90 1 42 88
M  V30 91 1 42 89
M  V30 92 1 42 90
M  V30 93 1 43 91
M  V30 94 1 43 92
M  V30 95 1 43 93
M  V30 96 1 45 94
M  V30 END BOND
M  V30 END CTAB
M  END
>  <Dataset>  (667) 
ChEMBL_Kinases

>  <Ligand_Instance>  (667) 
nan

>  <PDB_ID>  (667) 
nan

>  <Standardized_SMILES>  (667) 
CCCCCCCC(=O)O[C@H]1/C(=C/C(=O)OC)C[C@H]2C[C@H](COC)OC(=O)CCOc3ccccc3C(=O)OCC(C)(C)[C@]1(O)O2

>  <Name>  (667) 
nan

>  <Pocket>  (667) 
nan

>  <ATP_Site>  (667) 
nan

>  <Peripheral>  (667) 
nan

>  <Num_H_Atoms_ProtBoundConf>  (667) 
nan

>  <Num_Resolved_Atoms>  (667) 
nan

>  <Num_Not_Resolved_Atoms>  (667) 
nan

$$$$
CHEMBL4212119
     RDKit          3D

  0  0  0  0  0  0  0  0  0  0999 V3000
M  V30 BEGIN CTAB
M  V30 COUNTS 53 56 0 0 0
M  V30 BEGIN ATOM
M  V30 1 C -2.783148 -1.787041 6.616695 0
M  V30 2 C -1.480843 -2.264163 6.077254 0
M  V30 3 C -0.925640 -2.119859 4.830818 0
M  V30 4 C 0.309894 -2.720929 4.743101 0
M  V30 5 N 1.180095 -2.786399 3.593621 0
M  V30 6 C 0.649290 -2.111261 2.431125 0
M  V30 7 C 1.164059 -0.936697 1.928041 0
M  V30 8 C 0.636576 -0.312574 0.837592 0
M  V30 9 N 1.142320 0.896851 0.232846 0
M  V30 10 C 2.529097 1.227485 0.285010 0
M  V30 11 C 2.743579 2.704107 0.313458 0
M  V30 12 N 1.940386 3.348920 -0.669489 0
M  V30 13 C 2.365454 3.162019 -2.019175 0
M  V30 14 C 0.520188 3.173822 -0.453031 0
M  V30 15 C 0.133042 1.718440 -0.405786 0
M  V30 16 N -0.423943 -0.912526 0.275895 0
M  V30 17 C -0.980089 -2.053818 0.706471 0
M  V30 18 S -2.352860 -2.983406 0.074534 0
M  V30 19 C -3.111546 -2.304577 -1.389275 0
M  V30 20 C -2.094910 -2.393044 -2.499296 0
M  V30 21 C -1.244250 -1.378050 -2.863330 0
M  V30 22 C -0.315585 -1.535546 -3.880252 0
M  V30 23 C -0.266537 -2.747864 -4.522494 0
M  V30 24 F 0.644764 -2.894437 -5.516931 0
M  V30 25 C -1.132971 -3.771580 -4.146858 0
M  V30 26 C -2.063718 -3.623839 -3.133269 0
M  V30 27 N -0.431465 -2.641560 1.786159 0
M  V30 28 N 0.479242 -3.236115 5.995961 0
M  V30 29 N -0.549750 -2.974101 6.763501 0
M  V30 30 H -2.687234 -1.004337 7.393484 0
M  V30 31 H -3.415378 -1.348766 5.813507 0
M  V30 32 H -3.408448 -2.646034 7.000968 0
M  V30 33 H -1.440052 -1.581991 4.026748 0
M  V30 34 H 2.063220 -3.306231 3.756707 0
M  V30 35 H 2.014223 -0.495681 2.418891 0
M  V30 36 H 3.008480 0.860201 -0.669841 0
M  V30 37 H 3.009417 0.713665 1.162721 0
M  V30 38 H 2.548221 3.126697 1.322476 0
M  V30 39 H 3.818131 2.933204 0.039976 0
M  V30 40 H 2.219464 4.124199 -2.589576 0
M  V30 41 H 1.753504 2.339963 -2.475938 0
M  V30 42 H 3.451405 2.928622 -2.020516 0
M  V30 43 H 0.192581 3.726377 0.446501 0
M  V30 44 H -0.010667 3.622005 -1.324494 0
M  V30 45 H -0.812456 1.641116 0.180187 0
M  V30 46 H -0.076173 1.295587 -1.407221 0
M  V30 47 H -4.029783 -2.856239 -1.632019 0
M  V30 48 H -3.375835 -1.234381 -1.221903 0
M  V30 49 H -1.376292 -0.476512 -2.297861 0
M  V30 50 H 0.302449 -0.672961 -4.085274 0
M  V30 51 H -1.066675 -4.731582 -4.685076 0
M  V30 52 H -2.734624 -4.441992 -2.853610 0
M  V30 53 H -0.642141 -3.271169 7.775869 0
M  V30 END ATOM
M  V30 BEGIN BOND
M  V30 1 1 1 2
M  V30 2 2 2 3
M  V30 3 1 3 4
M  V30 4 1 4 5
M  V30 5 1 5 6
M  V30 6 2 6 7
M  V30 7 1 7 8
M  V30 8 1 8 9
M  V30 9 1 9 10
M  V30 10 1 10 11
M  V30 11 1 11 12
M  V30 12 1 12 13
M  V30 13 1 12 14
M  V30 14 1 14 15
M  V30 15 2 8 16
M  V30 16 1 16 17
M  V30 17 1 17 18
M  V30 18 1 18 19
M  V30 19 1 19 20
M  V30 20 2 20 21
M  V30 21 1 21 22
M  V30 22 2 22 23
M  V30 23 1 23 24
M  V30 24 1 23 25
M  V30 25 2 25 26
M  V30 26 2 17 27
M  V30 27 2 4 28
M  V30 28 1 28 29
M  V30 29 1 29 2
M  V30 30 1 27 6
M  V30 31 1 15 9
M  V30 32 1 26 20
M  V30 33 1 1 30
M  V30 34 1 1 31
M  V30 35 1 1 32
M  V30 36 1 3 33
M  V30 37 1 5 34
M  V30 38 1 7 35
M  V30 39 1 10 36
M  V30 40 1 10 37
M  V30 41 1 11 38
M  V30 42 1 11 39
M  V30 43 1 13 40
M  V30 44 1 13 41
M  V30 45 1 13 42
M  V30 46 1 14 43
M  V30 47 1 14 44
M  V30 48 1 15 45
M  V30 49 1 15 46
M  V30 50 1 19 47
M  V30 51 1 19 48
M  V30 52 1 21 49
M  V30 53 1 22 50
M  V30 54 1 25 51
M  V30 55 1 26 52
M  V30 56 1 29 53
M  V30 END BOND
M  V30 END CTAB
M  END
>  <Dataset>  (668) 
ChEMBL_Kinases

>  <Ligand_Instance>  (668) 
nan

>  <PDB_ID>  (668) 
nan

>  <Standardized_SMILES>  (668) 
Cc1cc(Nc2cc(N3CCN(C)CC3)nc(SCc3ccc(F)cc3)n2)n[nH]1

>  <Name>  (668) 
nan

>  <Pocket>  (668) 
nan

>  <ATP_Site>  (668) 
nan

>  <Peripheral>  (668) 
nan

>  <Num_H_Atoms_ProtBoundConf>  (668) 
nan

>  <Num_Resolved_Atoms>  (668) 
nan

>  <Num_Not_Resolved_Atoms>  (668) 
nan

$$$$
CHEMBL4212059
     RDKit          3D

  0  0  0  0  0  0  0  0  0  0999 V3000
M  V30 BEGIN CTAB
M  V30 COUNTS 35 38 0 0 0
M  V30 BEGIN ATOM
M  V30 1 N 2.863216 -1.075128 3.721807 0
M  V30 2 C 1.716403 -1.837160 3.389480 0
M  V30 3 N 1.299997 -3.066915 3.782669 0
M  V30 4 N 0.137869 -3.360083 3.184982 0
M  V30 5 C -0.231731 -2.352729 2.401353 0
M  V30 6 N -1.383064 -2.174259 1.549891 0
M  V30 7 C -1.126493 -2.277572 0.169972 0
M  V30 8 C 0.094428 -2.660842 -0.337129 0
M  V30 9 C 0.269619 -2.710411 -1.693793 0
M  V30 10 C -0.708933 -2.397942 -2.608263 0
M  V30 11 C -1.937165 -2.012899 -2.055796 0
M  V30 12 C -2.163854 -1.947485 -0.684544 0
M  V30 13 C 0.743664 -1.438060 2.542189 0
M  V30 14 C 0.673524 -0.127974 1.801371 0
M  V30 15 N 0.165702 0.522193 1.121556 0
M  V30 16 C 0.003297 1.589713 0.456813 0
M  V30 17 C -0.872623 2.204283 -0.448430 0
M  V30 18 C -0.510523 3.469080 -0.854478 0
M  V30 19 C 0.585014 4.216317 -0.502697 0
M  V30 20 C 1.447994 3.612488 0.387143 0
M  V30 21 C 1.124701 2.308946 0.840045 0
M  V30 22 S 1.981180 1.230647 1.977174 0
M  V30 23 H 3.701615 -1.005358 3.076208 0
M  V30 24 H 3.062676 -0.498563 4.589105 0
M  V30 25 H -0.438668 -4.234802 3.281246 0
M  V30 26 H -2.317612 -1.982071 1.953034 0
M  V30 27 H 0.889516 -2.912119 0.349296 0
M  V30 28 H 1.240159 -3.016234 -2.113300 0
M  V30 29 H -0.624476 -2.419465 -3.691295 0
M  V30 30 H -2.753611 -1.750553 -2.720476 0
M  V30 31 H -3.152813 -1.637783 -0.349489 0
M  V30 32 H -1.749248 1.672189 -0.768926 0
M  V30 33 H -1.244487 3.889978 -1.565330 0
M  V30 34 H 0.764631 5.204549 -0.890140 0
M  V30 35 H 2.344257 4.104565 0.738041 0
M  V30 END ATOM
M  V30 BEGIN BOND
M  V30 1 1 1 2
M  V30 2 2 2 3
M  V30 3 1 3 4
M  V30 4 1 4 5
M  V30 5 1 5 6
M  V30 6 1 6 7
M  V30 7 2 7 8
M  V30 8 1 8 9
M  V30 9 2 9 10
M  V30 10 1 10 11
M  V30 11 2 11 12
M  V30 12 2 5 13
M  V30 13 1 13 14
M  V30 14 2 14 15
M  V30 15 1 15 16
M  V30 16 2 16 17
M  V30 17 1 17 18
M  V30 18 2 18 19
M  V30 19 1 19 20
M  V30 20 2 20 21
M  V30 21 1 21 22
M  V30 22 1 13 2
M  V30 23 1 22 14
M  V30 24 1 12 7
M  V30 25 1 21 16
M  V30 26 1 1 23
M  V30 27 1 1 24
M  V30 28 1 4 25
M  V30 29 1 6 26
M  V30 30 1 8 27
M  V30 31 1 9 28
M  V30 32 1 10 29
M  V30 33 1 11 30
M  V30 34 1 12 31
M  V30 35 1 17 32
M  V30 36 1 18 33
M  V30 37 1 19 34
M  V30 38 1 20 35
M  V30 END BOND
M  V30 END CTAB
M  END
>  <Dataset>  (669) 
ChEMBL_Kinases

>  <Ligand_Instance>  (669) 
nan

>  <PDB_ID>  (669) 
nan

>  <Standardized_SMILES>  (669) 
Nc1n[nH]c(Nc2ccccc2)c1-c1nc2ccccc2s1

>  <Name>  (669) 
nan

>  <Pocket>  (669) 
nan

>  <ATP_Site>  (669) 
nan

>  <Peripheral>  (669) 
nan

>  <Num_H_Atoms_ProtBoundConf>  (669) 
nan

>  <Num_Resolved_Atoms>  (669) 
nan

>  <Num_Not_Resolved_Atoms>  (669) 
nan

$$$$
CHEMBL4212052
     RDKit          3D

  0  0  0  0  0  0  0  0  0  0999 V3000
M  V30 BEGIN CTAB
M  V30 COUNTS 46 49 0 0 0
M  V30 BEGIN ATOM
M  V30 1 C 2.003559 -4.849524 0.710417 0
M  V30 2 N 2.804197 -4.185345 -0.306145 0
M  V30 3 C 2.191671 -4.255006 -1.628531 0
M  V30 4 C 3.167765 -3.484346 -2.471331 0
M  V30 5 C 3.910832 -2.576437 -1.517980 0 CFG=1
M  V30 6 O 5.121418 -2.140452 -2.017525 0
M  V30 7 C 3.132571 -1.379366 -1.189609 0
M  V30 8 C 2.476414 -0.396924 -0.906378 0
M  V30 9 C 1.682285 0.752217 -0.559507 0
M  V30 10 C 1.865612 1.986905 -1.140605 0
M  V30 11 C 1.053460 3.030275 -0.741816 0
M  V30 12 C 0.083008 2.817450 0.222227 0
M  V30 13 C -0.117599 1.575660 0.821597 0
M  V30 14 N -1.134730 1.411860 1.812216 0
M  V30 15 N -0.919948 1.251381 3.121804 0
M  V30 16 C -2.064293 1.125157 3.784265 0
M  V30 17 C -2.326964 0.932733 5.208941 0
M  V30 18 N -1.284713 0.846234 6.174040 0
M  V30 19 O -3.473570 0.828288 5.701294 0
M  V30 20 C -3.076544 1.208736 2.850189 0
M  V30 21 C -4.453087 1.151464 2.910789 0
M  V30 22 C -5.214024 1.271058 1.766626 0
M  V30 23 C -4.574932 1.449825 0.553652 0
M  V30 24 C -3.195660 1.513297 0.445546 0
M  V30 25 C -2.477191 1.388356 1.619451 0
M  V30 26 C 0.710414 0.540563 0.405450 0
M  V30 27 C 4.053056 -3.474373 -0.334996 0
M  V30 28 O 4.854766 -3.791553 0.583950 0
M  V30 29 H 2.449380 -4.815073 1.718617 0
M  V30 30 H 1.883443 -5.921604 0.445377 0
M  V30 31 H 0.960444 -4.427711 0.747106 0
M  V30 32 H 1.209320 -3.739652 -1.624066 0
M  V30 33 H 2.128958 -5.287197 -2.009988 0
M  V30 34 H 2.589962 -2.849573 -3.169188 0
M  V30 35 H 3.846347 -4.105797 -3.078016 0
M  V30 36 H 5.841737 -2.643278 -1.578195 0
M  V30 37 H 2.643576 2.100197 -1.894286 0
M  V30 38 H 1.175629 4.002564 -1.178994 0
M  V30 39 H -0.579061 3.613679 0.565464 0
M  V30 40 H -0.654679 1.455745 6.737913 0
M  V30 41 H -0.819654 0.004860 6.628358 0
M  V30 42 H -4.932284 1.009278 3.883719 0
M  V30 43 H -6.291432 1.223453 1.835690 0
M  V30 44 H -5.160274 1.544794 -0.349596 0
M  V30 45 H -2.760239 1.654675 -0.533327 0
M  V30 46 H 0.559349 -0.413965 0.863283 0
M  V30 END ATOM
M  V30 BEGIN BOND
M  V30 1 1 1 2
M  V30 2 1 2 3
M  V30 3 1 3 4
M  V30 4 1 4 5
M  V30 5 1 5 6
M  V30 6 1 5 7 CFG=1
M  V30 7 3 7 8
M  V30 8 1 8 9
M  V30 9 2 9 10
M  V30 10 1 10 11
M  V30 11 2 11 12
M  V30 12 1 12 13
M  V30 13 1 13 14
M  V30 14 1 14 15
M  V30 15 2 15 16
M  V30 16 1 16 17
M  V30 17 1 17 18
M  V30 18 2 17 19
M  V30 19 1 16 20
M  V30 20 2 20 21
M  V30 21 1 21 22
M  V30 22 2 22 23
M  V30 23 1 23 24
M  V30 24 2 24 25
M  V30 25 2 13 26
M  V30 26 1 5 27
M  V30 27 2 27 28
M  V30 28 1 27 2
M  V30 29 1 26 9
M  V30 30 1 25 14
M  V30 31 1 25 20
M  V30 32 1 1 29
M  V30 33 1 1 30
M  V30 34 1 1 31
M  V30 35 1 3 32
M  V30 36 1 3 33
M  V30 37 1 4 34
M  V30 38 1 4 35
M  V30 39 1 6 36
M  V30 40 1 10 37
M  V30 41 1 11 38
M  V30 42 1 12 39
M  V30 43 1 18 40
M  V30 44 1 18 41
M  V30 45 1 21 42
M  V30 46 1 22 43
M  V30 47 1 23 44
M  V30 48 1 24 45
M  V30 49 1 26 46
M  V30 END BOND
M  V30 END CTAB
M  END
>  <Dataset>  (670) 
ChEMBL_Kinases

>  <Ligand_Instance>  (670) 
nan

>  <PDB_ID>  (670) 
nan

>  <Standardized_SMILES>  (670) 
CN1CC[C@@](O)(C#Cc2cccc(-n3nc(C(N)=O)c4ccccc43)c2)C1=O

>  <Name>  (670) 
nan

>  <Pocket>  (670) 
nan

>  <ATP_Site>  (670) 
nan

>  <Peripheral>  (670) 
nan

>  <Num_H_Atoms_ProtBoundConf>  (670) 
nan

>  <Num_Resolved_Atoms>  (670) 
nan

>  <Num_Not_Resolved_Atoms>  (670) 
nan

$$$$
CHEMBL4212000
     RDKit          3D

  0  0  0  0  0  0  0  0  0  0999 V3000
M  V30 BEGIN CTAB
M  V30 COUNTS 55 59 0 0 0
M  V30 BEGIN ATOM
M  V30 1 O 0.702129 -2.950857 0.700568 0
M  V30 2 C -0.124493 -2.013027 1.003574 0
M  V30 3 N 0.405980 -1.045260 1.944996 0
M  V30 4 C 0.006923 0.172556 2.619980 0
M  V30 5 C 0.942882 1.329804 2.442124 0
M  V30 6 N 1.953632 0.922781 1.479202 0
M  V30 7 C 2.379340 1.229690 0.158830 0
M  V30 8 N 2.196346 0.153541 -0.635231 0
M  V30 9 C 2.522340 0.220494 -1.944857 0
M  V30 10 N 3.029191 1.344952 -2.478223 0
M  V30 11 C 3.231691 2.442000 -1.736065 0
M  V30 12 N 3.692495 3.683959 -1.883369 0
M  V30 13 C 3.662127 4.381803 -0.713137 0
M  V30 14 C 3.144639 3.535193 0.267841 0
M  V30 15 Br 2.878996 3.970876 2.101183 0
M  V30 16 C 2.895456 2.360056 -0.403964 0
M  V30 17 C 2.702122 -0.133416 2.189774 0
M  V30 18 C 1.745701 -1.240867 2.449928 0
M  V30 19 C -1.435741 -2.124155 0.322744 0
M  V30 20 C -2.515941 -2.625865 1.198889 0
M  V30 21 C -2.843149 -2.223886 2.463364 0
M  V30 22 C -3.848014 -2.718431 3.258786 0
M  V30 23 C -4.633972 -3.721057 2.780952 0
M  V30 24 C -4.378068 -4.200112 1.498016 0
M  V30 25 Br -5.524876 -5.601992 0.909367 0
M  V30 26 C -3.349815 -3.657548 0.749668 0
M  V30 27 C -1.284982 -3.023655 -0.874344 0
M  V30 28 C -0.331448 -2.360284 -1.860339 0
M  V30 29 N -1.077662 -1.317986 -2.534545 0
M  V30 30 C -2.169476 -0.834239 -1.725441 0
M  V30 31 C -1.849900 -0.764037 -0.248366 0
M  V30 32 H -0.969482 0.451512 2.179477 0
M  V30 33 H -0.130230 0.002024 3.718563 0
M  V30 34 H 1.390484 1.652052 3.411863 0
M  V30 35 H 0.356624 2.198501 2.082775 0
M  V30 36 H 2.407080 -0.603421 -2.660415 0
M  V30 37 H 4.035836 4.057579 -2.814435 0
M  V30 38 H 3.975351 5.408081 -0.541887 0
M  V30 39 H 3.586920 -0.449966 1.578715 0
M  V30 40 H 3.139108 0.278054 3.123332 0
M  V30 41 H 1.678116 -1.446243 3.534745 0
M  V30 42 H 2.208848 -2.171039 2.003495 0
M  V30 43 H -2.263345 -1.434051 2.900803 0
M  V30 44 H -4.024816 -2.329036 4.249675 0
M  V30 45 H -5.420230 -4.111411 3.396982 0
M  V30 46 H -3.296801 -4.142532 -0.191399 0
M  V30 47 H -1.006032 -4.051964 -0.630020 0
M  V30 48 H -2.265535 -3.048863 -1.438634 0
M  V30 49 H -0.024955 -3.097156 -2.626557 0
M  V30 50 H 0.576757 -1.993038 -1.387809 0
M  V30 51 H -1.514437 -1.743789 -3.381665 0
M  V30 52 H -2.299116 0.246521 -2.034264 0
M  V30 53 H -3.148062 -1.293312 -1.951208 0
M  V30 54 H -0.986955 -0.106527 -0.147753 0
M  V30 55 H -2.784500 -0.403945 0.230964 0
M  V30 END ATOM
M  V30 BEGIN BOND
M  V30 1 2 1 2
M  V30 2 1 2 3
M  V30 3 1 3 4
M  V30 4 1 4 5
M  V30 5 1 5 6
M  V30 6 1 6 7
M  V30 7 2 7 8
M  V30 8 1 8 9
M  V30 9 2 9 10
M  V30 10 1 10 11
M  V30 11 1 11 12
M  V30 12 1 12 13
M  V30 13 2 13 14
M  V30 14 1 14 15
M  V30 15 1 14 16
M  V30 16 1 6 17
M  V30 17 1 17 18
M  V30 18 1 2 19
M  V30 19 1 19 20
M  V30 20 2 20 21
M  V30 21 1 21 22
M  V30 22 2 22 23
M  V30 23 1 23 24
M  V30 24 1 24 25
M  V30 25 2 24 26
M  V30 26 1 19 27
M  V30 27 1 27 28
M  V30 28 1 28 29
M  V30 29 1 29 30
M  V30 30 1 30 31
M  V30 31 1 18 3
M  V30 32 1 31 19
M  V30 33 1 16 7
M  V30 34 1 26 20
M  V30 35 2 16 11
M  V30 36 1 4 32
M  V30 37 1 4 33
M  V30 38 1 5 34
M  V30 39 1 5 35
M  V30 40 1 9 36
M  V30 41 1 12 37
M  V30 42 1 13 38
M  V30 43 1 17 39
M  V30 44 1 17 40
M  V30 45 1 18 41
M  V30 46 1 18 42
M  V30 47 1 21 43
M  V30 48 1 22 44
M  V30 49 1 23 45
M  V30 50 1 26 46
M  V30 51 1 27 47
M  V30 52 1 27 48
M  V30 53 1 28 49
M  V30 54 1 28 50
M  V30 55 1 29 51
M  V30 56 1 30 52
M  V30 57 1 30 53
M  V30 58 1 31 54
M  V30 59 1 31 55
M  V30 END BOND
M  V30 END CTAB
M  END
>  <Dataset>  (671) 
ChEMBL_Kinases

>  <Ligand_Instance>  (671) 
nan

>  <PDB_ID>  (671) 
nan

>  <Standardized_SMILES>  (671) 
O=C(N1CCN(c2ncnc3[nH]cc(Br)c23)CC1)C1(c2cccc(Br)c2)CCNCC1

>  <Name>  (671) 
nan

>  <Pocket>  (671) 
nan

>  <ATP_Site>  (671) 
nan

>  <Peripheral>  (671) 
nan

>  <Num_H_Atoms_ProtBoundConf>  (671) 
nan

>  <Num_Resolved_Atoms>  (671) 
nan

>  <Num_Not_Resolved_Atoms>  (671) 
nan

$$$$
CHEMBL4211990
     RDKit          3D

  0  0  0  0  0  0  0  0  0  0999 V3000
M  V30 BEGIN CTAB
M  V30 COUNTS 63 67 0 0 0
M  V30 BEGIN ATOM
M  V30 1 C 2.716664 0.113394 3.958790 0
M  V30 2 N 4.025433 0.725866 3.910949 0
M  V30 3 C 4.054840 1.924649 4.760678 0
M  V30 4 C 3.286239 2.970091 4.008976 0
M  V30 5 F 2.058742 3.226217 4.545430 0
M  V30 6 C 3.224596 2.487646 2.566970 0
M  V30 7 O 1.937691 2.128453 2.179128 0
M  V30 8 C 1.241993 2.714615 1.136611 0
M  V30 9 C 1.560108 3.720773 0.253412 0
M  V30 10 C 0.655003 4.110568 -0.705219 0
M  V30 11 C -0.589214 3.550666 -0.853427 0
M  V30 12 C -1.484299 4.006100 -1.876138 0
M  V30 13 N -2.201993 4.389199 -2.699668 0
M  V30 14 C -0.908039 2.542484 0.031582 0
M  V30 15 C -0.018230 2.116511 1.019628 0
M  V30 16 N -0.541001 1.052859 1.842655 0
M  V30 17 C -1.835009 0.461713 1.695441 0
M  V30 18 N -2.951699 0.906319 2.319299 0
M  V30 19 C -4.143648 0.293697 2.129941 0
M  V30 20 C -4.151401 -0.785549 1.282825 0
M  V30 21 C -3.047044 -1.281444 0.621672 0
M  V30 22 C -3.087733 -2.431995 -0.273292 0
M  V30 23 C -4.203601 -3.146786 -0.561811 0
M  V30 24 C -4.149535 -4.224762 -1.422920 0
M  V30 25 C -5.337904 -4.980073 -1.725688 0
M  V30 26 N -6.284856 -5.602011 -1.961329 0
M  V30 27 C -2.974816 -4.625800 -2.026454 0
M  V30 28 C -1.838673 -3.900557 -1.734727 0
M  V30 29 C -1.899237 -2.809428 -0.861671 0
M  V30 30 C -0.646270 -4.444727 -2.455534 0 CFG=1
M  V30 31 C 0.135711 -3.321718 -3.105157 0
M  V30 32 C 0.276619 -5.180585 -1.506588 0
M  V30 33 O 0.695303 -4.275164 -0.530977 0
M  V30 34 C -1.248710 -5.367901 -3.485332 0
M  V30 35 N -2.556789 -5.644464 -2.930055 0
M  V30 36 N -1.923817 -0.591623 0.888668 0
M  V30 37 C 4.178108 1.297695 2.585266 0
M  V30 38 H 2.431591 -0.200423 2.938406 0
M  V30 39 H 2.648926 -0.713680 4.694346 0
M  V30 40 H 2.015753 0.909636 4.272638 0
M  V30 41 H 5.111039 2.217157 4.939058 0
M  V30 42 H 3.634192 1.698464 5.759702 0
M  V30 43 H 3.877683 3.920626 4.111008 0
M  V30 44 H 3.621474 3.300415 1.945301 0
M  V30 45 H 2.549149 4.108199 0.432725 0
M  V30 46 H 0.981193 4.908932 -1.361888 0
M  V30 47 H -1.903455 2.098178 -0.090839 0
M  V30 48 H 0.093035 0.705741 2.596159 0
M  V30 49 H -5.029481 0.661937 2.637095 0
M  V30 50 H -5.117146 -1.268427 1.140015 0
M  V30 51 H -5.141848 -2.872215 -0.115703 0
M  V30 52 H -0.986443 -2.254641 -0.649165 0
M  V30 53 H 0.664886 -3.739953 -3.971512 0
M  V30 54 H -0.563254 -2.493052 -3.389151 0
M  V30 55 H 0.810453 -2.888980 -2.352666 0
M  V30 56 H 1.133902 -5.535768 -2.117857 0
M  V30 57 H -0.216999 -6.025692 -1.008106 0
M  V30 58 H 1.682939 -4.182379 -0.544921 0
M  V30 59 H -0.614236 -6.275438 -3.538893 0
M  V30 60 H -1.286265 -4.809495 -4.430141 0
M  V30 61 H -3.132937 -6.481633 -3.154655 0
M  V30 62 H 5.221773 1.617904 2.400149 0
M  V30 63 H 3.835078 0.537093 1.857257 0
M  V30 END ATOM
M  V30 BEGIN BOND
M  V30 1 1 1 2
M  V30 2 1 2 3
M  V30 3 1 3 4
M  V30 4 1 4 5
M  V30 5 1 4 6
M  V30 6 1 6 7
M  V30 7 1 7 8
M  V30 8 2 8 9
M  V30 9 1 9 10
M  V30 10 2 10 11
M  V30 11 1 11 12
M  V30 12 3 12 13
M  V30 13 1 11 14
M  V30 14 2 14 15
M  V30 15 1 15 16
M  V30 16 1 16 17
M  V30 17 2 17 18
M  V30 18 1 18 19
M  V30 19 2 19 20
M  V30 20 1 20 21
M  V30 21 1 21 22
M  V30 22 2 22 23
M  V30 23 1 23 24
M  V30 24 1 24 25
M  V30 25 3 25 26
M  V30 26 2 24 27
M  V30 27 1 27 28
M  V30 28 2 28 29
M  V30 29 1 28 30
M  V30 30 1 30 31 CFG=3
M  V30 31 1 30 32
M  V30 32 1 32 33
M  V30 33 1 30 34
M  V30 34 1 34 35
M  V30 35 2 21 36
M  V30 36 1 6 37
M  V30 37 1 37 2
M  V30 38 1 15 8
M  V30 39 1 36 17
M  V30 40 1 29 22
M  V30 41 1 35 27
M  V30 42 1 1 38
M  V30 43 1 1 39
M  V30 44 1 1 40
M  V30 45 1 3 41
M  V30 46 1 3 42
M  V30 47 1 4 43
M  V30 48 1 6 44
M  V30 49 1 9 45
M  V30 50 1 10 46
M  V30 51 1 14 47
M  V30 52 1 16 48
M  V30 53 1 19 49
M  V30 54 1 20 50
M  V30 55 1 23 51
M  V30 56 1 29 52
M  V30 57 1 31 53
M  V30 58 1 31 54
M  V30 59 1 31 55
M  V30 60 1 32 56
M  V30 61 1 32 57
M  V30 62 1 33 58
M  V30 63 1 34 59
M  V30 64 1 34 60
M  V30 65 1 35 61
M  V30 66 1 37 62
M  V30 67 1 37 63
M  V30 END BOND
M  V30 END CTAB
M  END
>  <Dataset>  (672) 
ChEMBL_Kinases

>  <Ligand_Instance>  (672) 
nan

>  <PDB_ID>  (672) 
nan

>  <Standardized_SMILES>  (672) 
CN1CC(F)C(Oc2ccc(C#N)cc2Nc2nccc(-c3cc(C#N)c4c(c3)[C@@](C)(CO)CN4)n2)C1

>  <Name>  (672) 
nan

>  <Pocket>  (672) 
nan

>  <ATP_Site>  (672) 
nan

>  <Peripheral>  (672) 
nan

>  <Num_H_Atoms_ProtBoundConf>  (672) 
nan

>  <Num_Resolved_Atoms>  (672) 
nan

>  <Num_Not_Resolved_Atoms>  (672) 
nan

$$$$
CHEMBL4211976
     RDKit          3D

  0  0  0  0  0  0  0  0  0  0999 V3000
M  V30 BEGIN CTAB
M  V30 COUNTS 81 86 0 0 0
M  V30 BEGIN ATOM
M  V30 1 C -1.244457 2.759771 10.782113 0
M  V30 2 C -0.973488 3.174962 9.376232 0
M  V30 3 C -1.510688 4.346263 8.876168 0
M  V30 4 C -1.282020 4.767256 7.575516 0
M  V30 5 C -0.487972 4.000475 6.726224 0
M  V30 6 N -0.164645 4.303568 5.375891 0
M  V30 7 C 0.604840 3.472850 4.519720 0
M  V30 8 N 0.111010 2.209939 4.467589 0
M  V30 9 C 0.650193 1.225568 3.727385 0
M  V30 10 C 1.786345 1.576670 2.985892 0
M  V30 11 C 2.298545 2.850250 3.027979 0
M  V30 12 N 1.705013 3.806933 3.800507 0
M  V30 13 N 3.422892 3.181635 2.243154 0
M  V30 14 C 4.017487 4.503451 2.241455 0
M  V30 15 C 4.001979 2.183489 1.413701 0
M  V30 16 O 4.992902 2.359809 0.685571 0
M  V30 17 N 3.456330 0.872589 1.368736 0
M  V30 18 C 3.836548 -0.204139 0.522964 0
M  V30 19 C 3.132850 -0.344645 -0.681768 0
M  V30 20 C 3.449577 -1.374375 -1.565376 0
M  V30 21 N 2.580537 -1.315715 -2.724561 0
M  V30 22 C 1.499042 -2.143493 -2.256157 0
M  V30 23 O 1.697472 -2.593938 -1.099218 0
M  V30 24 C 0.244847 -2.497094 -2.958532 0
M  V30 25 C -0.544985 -3.400900 -2.284281 0
M  V30 26 C -1.753885 -3.732223 -2.909857 0
M  V30 27 C -2.176336 -3.208066 -4.135897 0
M  V30 28 N -3.453826 -3.668826 -4.550176 0
M  V30 29 C -4.785654 -3.177860 -4.670219 0
M  V30 30 C -5.507189 -3.607739 -5.903584 0
M  V30 31 N -5.531648 -5.016148 -6.113528 0
M  V30 32 C -5.092891 -5.320050 -7.439044 0
M  V30 33 C -4.797035 -5.668146 -5.057482 0
M  V30 34 C -3.422810 -5.042342 -5.008957 0
M  V30 35 C -1.332977 -2.309236 -4.754027 0
M  V30 36 C -1.779680 -1.769142 -6.043605 0
M  V30 37 F -0.776082 -0.899828 -6.512729 0
M  V30 38 F -2.899797 -0.983449 -5.990063 0
M  V30 39 F -1.845130 -2.751565 -7.027084 0
M  V30 40 C -0.137434 -1.963523 -4.164284 0
M  V30 41 C 4.426956 -2.293189 -1.347199 0
M  V30 42 C 5.112252 -2.139256 -0.151020 0
M  V30 43 C 4.822522 -1.134290 0.739588 0
M  V30 44 C 5.607252 -1.047955 1.979752 0
M  V30 45 C 2.349665 0.445901 2.199896 0
M  V30 46 C 0.014443 2.847300 7.289314 0
M  V30 47 N -0.202728 2.425051 8.561920 0
M  V30 48 H -2.335682 2.557935 10.832352 0
M  V30 49 H -1.029529 3.644093 11.423100 0
M  V30 50 H -0.644549 1.869300 11.043104 0
M  V30 51 H -2.130340 4.945190 9.532748 0
M  V30 52 H -1.687562 5.680308 7.147027 0
M  V30 53 H -0.550594 5.215304 5.043865 0
M  V30 54 H 0.220485 0.229149 3.716406 0
M  V30 55 H 5.058919 4.496403 1.887828 0
M  V30 56 H 3.396225 5.139062 1.557748 0
M  V30 57 H 3.960329 4.974136 3.249612 0
M  V30 58 H 2.340381 0.397074 -0.865767 0
M  V30 59 H 2.436655 -0.941406 -3.691772 0
M  V30 60 H -0.301406 -3.865934 -1.320142 0
M  V30 61 H -2.368498 -4.456577 -2.355182 0
M  V30 62 H -4.811954 -2.094772 -4.529120 0
M  V30 63 H -5.366080 -3.594087 -3.789638 0
M  V30 64 H -5.042843 -3.094052 -6.768384 0
M  V30 65 H -6.565806 -3.235678 -5.859432 0
M  V30 66 H -4.786478 -4.393451 -7.993665 0
M  V30 67 H -4.346115 -6.134290 -7.500387 0
M  V30 68 H -5.977636 -5.709183 -8.018109 0
M  V30 69 H -5.361604 -5.586893 -4.107670 0
M  V30 70 H -4.619425 -6.757328 -5.293937 0
M  V30 71 H -2.777363 -5.699699 -4.389283 0
M  V30 72 H -3.046082 -5.102278 -6.074348 0
M  V30 73 H 0.517785 -1.261177 -4.648064 0
M  V30 74 H 4.584376 -3.046078 -2.100126 0
M  V30 75 H 5.905845 -2.864395 0.056196 0
M  V30 76 H 5.063776 -0.483123 2.730979 0
M  V30 77 H 5.798959 -2.064454 2.413266 0
M  V30 78 H 6.628531 -0.634677 1.791054 0
M  V30 79 H 2.698663 -0.400933 2.820644 0
M  V30 80 H 1.529843 0.009054 1.574542 0
M  V30 81 H 0.651109 2.129919 6.777117 0
M  V30 END ATOM
M  V30 BEGIN BOND
M  V30 1 1 1 2
M  V30 2 2 2 3
M  V30 3 1 3 4
M  V30 4 2 4 5
M  V30 5 1 5 6
M  V30 6 1 6 7
M  V30 7 2 7 8
M  V30 8 1 8 9
M  V30 9 2 9 10
M  V30 10 1 10 11
M  V30 11 2 11 12
M  V30 12 1 11 13
M  V30 13 1 13 14
M  V30 14 1 13 15
M  V30 15 2 15 16
M  V30 16 1 15 17
M  V30 17 1 17 18
M  V30 18 2 18 19
M  V30 19 1 19 20
M  V30 20 1 20 21
M  V30 21 1 21 22
M  V30 22 2 22 23
M  V30 23 1 22 24
M  V30 24 2 24 25
M  V30 25 1 25 26
M  V30 26 2 26 27
M  V30 27 1 27 28
M  V30 28 1 28 29
M  V30 29 1 29 30
M  V30 30 1 30 31
M  V30 31 1 31 32
M  V30 32 1 31 33
M  V30 33 1 33 34
M  V30 34 1 27 35
M  V30 35 1 35 36
M  V30 36 1 36 37
M  V30 37 1 36 38
M  V30 38 1 36 39
M  V30 39 2 35 40
M  V30 40 2 20 41
M  V30 41 1 41 42
M  V30 42 2 42 43
M  V30 43 1 43 44
M  V30 44 1 17 45
M  V30 45 1 5 46
M  V30 46 2 46 47
M  V30 47 1 47 2
M  V30 48 1 12 7
M  V30 49 1 43 18
M  V30 50 1 45 10
M  V30 51 1 40 24
M  V30 52 1 34 28
M  V30 53 1 1 48
M  V30 54 1 1 49
M  V30 55 1 1 50
M  V30 56 1 3 51
M  V30 57 1 4 52
M  V30 58 1 6 53
M  V30 59 1 9 54
M  V30 60 1 14 55
M  V30 61 1 14 56
M  V30 62 1 14 57
M  V30 63 1 19 58
M  V30 64 1 21 59
M  V30 65 1 25 60
M  V30 66 1 26 61
M  V30 67 1 29 62
M  V30 68 1 29 63
M  V30 69 1 30 64
M  V30 70 1 30 65
M  V30 71 1 32 66
M  V30 72 1 32 67
M  V30 73 1 32 68
M  V30 74 1 33 69
M  V30 75 1 33 70
M  V30 76 1 34 71
M  V30 77 1 34 72
M  V30 78 1 40 73
M  V30 79 1 41 74
M  V30 80 1 42 75
M  V30 81 1 44 76
M  V30 82 1 44 77
M  V30 83 1 44 78
M  V30 84 1 45 79
M  V30 85 1 45 80
M  V30 86 1 46 81
M  V30 END BOND
M  V30 END CTAB
M  END
>  <Dataset>  (673) 
ChEMBL_Kinases

>  <Ligand_Instance>  (673) 
nan

>  <PDB_ID>  (673) 
nan

>  <Standardized_SMILES>  (673) 
Cc1ccc(Nc2ncc3c(n2)N(C)C(=O)N(c2cc(NC(=O)c4ccc(N5CCN(C)CC5)c(C(F)(F)F)c4)ccc2C)C3)cn1

>  <Name>  (673) 
nan

>  <Pocket>  (673) 
nan

>  <ATP_Site>  (673) 
nan

>  <Peripheral>  (673) 
nan

>  <Num_H_Atoms_ProtBoundConf>  (673) 
nan

>  <Num_Resolved_Atoms>  (673) 
nan

>  <Num_Not_Resolved_Atoms>  (673) 
nan

$$$$
CHEMBL4211971
     RDKit          3D

  0  0  0  0  0  0  0  0  0  0999 V3000
M  V30 BEGIN CTAB
M  V30 COUNTS 35 38 0 0 0
M  V30 BEGIN ATOM
M  V30 1 O -3.014545 -1.997224 1.183206 0
M  V30 2 C -1.793934 -1.948231 0.887775 0
M  V30 3 N -0.920321 -3.063700 0.844783 0
M  V30 4 C 0.473441 -2.755164 0.787858 0
M  V30 5 C 0.996784 -2.803775 2.210019 0
M  V30 6 C 1.278606 -4.246640 2.495778 0
M  V30 7 C 1.152503 -4.989980 1.187757 0
M  V30 8 C 1.145741 -3.953624 0.106390 0
M  V30 9 N 0.853940 -1.528358 0.201365 0
M  V30 10 C 0.055117 -0.353724 0.217770 0
M  V30 11 C 0.387610 0.946390 -0.051038 0
M  V30 12 C -0.546909 1.873874 0.033860 0
M  V30 13 C -0.520696 3.334693 -0.186076 0
M  V30 14 C -1.688282 4.055657 -0.015847 0
M  V30 15 C -1.547428 5.409499 -0.247206 0
M  V30 16 N -0.405106 6.017086 -0.605864 0
M  V30 17 C 0.710456 5.257841 -0.758207 0
M  V30 18 C 0.683680 3.890995 -0.551884 0
M  V30 19 S -2.018057 1.043807 0.502662 0
M  V30 20 C -1.244692 -0.621434 0.563807 0
M  V30 21 H -1.337186 -4.010317 0.855992 0
M  V30 22 H 0.186869 -2.437317 2.877370 0
M  V30 23 H 1.877674 -2.147624 2.349930 0
M  V30 24 H 0.596335 -4.661407 3.259296 0
M  V30 25 H 2.321556 -4.422240 2.867485 0
M  V30 26 H 0.179534 -5.519242 1.153237 0
M  V30 27 H 1.955622 -5.752735 1.043966 0
M  V30 28 H 2.151744 -3.646891 -0.220834 0
M  V30 29 H 0.520022 -4.238678 -0.767850 0
M  V30 30 H 1.810125 -1.542759 -0.268675 0
M  V30 31 H 1.379985 1.275501 -0.333899 0
M  V30 32 H -2.629022 3.606229 0.272069 0
M  V30 33 H -2.390008 6.079782 -0.146321 0
M  V30 34 H 1.668813 5.698692 -1.049028 0
M  V30 35 H 1.564188 3.279565 -0.670355 0
M  V30 END ATOM
M  V30 BEGIN BOND
M  V30 1 2 1 2
M  V30 2 1 2 3
M  V30 3 1 3 4
M  V30 4 1 4 5
M  V30 5 1 5 6
M  V30 6 1 6 7
M  V30 7 1 7 8
M  V30 8 1 4 9
M  V30 9 1 9 10
M  V30 10 1 10 11
M  V30 11 2 11 12
M  V30 12 1 12 13
M  V30 13 2 13 14
M  V30 14 1 14 15
M  V30 15 2 15 16
M  V30 16 1 16 17
M  V30 17 2 17 18
M  V30 18 1 12 19
M  V30 19 1 19 20
M  V30 20 1 20 2
M  V30 21 1 8 4
M  V30 22 2 20 10
M  V30 23 1 18 13
M  V30 24 1 3 21
M  V30 25 1 5 22
M  V30 26 1 5 23
M  V30 27 1 6 24
M  V30 28 1 6 25
M  V30 29 1 7 26
M  V30 30 1 7 27
M  V30 31 1 8 28
M  V30 32 1 8 29
M  V30 33 1 9 30
M  V30 34 1 11 31
M  V30 35 1 14 32
M  V30 36 1 15 33
M  V30 37 1 17 34
M  V30 38 1 18 35
M  V30 END BOND
M  V30 END CTAB
M  END
>  <Dataset>  (674) 
ChEMBL_Kinases

>  <Ligand_Instance>  (674) 
nan

>  <PDB_ID>  (674) 
nan

>  <Standardized_SMILES>  (674) 
O=C1NC2(CCCC2)Nc2cc(-c3ccncc3)sc21

>  <Name>  (674) 
nan

>  <Pocket>  (674) 
nan

>  <ATP_Site>  (674) 
nan

>  <Peripheral>  (674) 
nan

>  <Num_H_Atoms_ProtBoundConf>  (674) 
nan

>  <Num_Resolved_Atoms>  (674) 
nan

>  <Num_Not_Resolved_Atoms>  (674) 
nan

$$$$
CHEMBL4211961
     RDKit          3D

  0  0  0  0  0  0  0  0  0  0999 V3000
M  V30 BEGIN CTAB
M  V30 COUNTS 35 37 0 0 0
M  V30 BEGIN ATOM
M  V30 1 C -0.345760 -3.443056 4.450630 0
M  V30 2 C 0.611701 -2.934370 3.441995 0
M  V30 3 O 1.475066 -2.115804 3.894043 0
M  V30 4 N 0.546248 -3.349129 2.073284 0
M  V30 5 C 1.503684 -2.811671 1.173568 0
M  V30 6 C 2.678964 -3.469172 0.997585 0
M  V30 7 C 3.604994 -2.942978 0.122904 0
M  V30 8 C 3.341170 -1.776692 -0.555597 0
M  V30 9 C 2.179054 -1.076270 -0.417031 0
M  V30 10 N 1.943764 0.122212 -1.133742 0
M  V30 11 C 0.812507 0.979750 -1.122766 0
M  V30 12 N 0.789054 2.078598 -1.884432 0
M  V30 13 C -0.249854 2.924575 -1.915532 0
M  V30 14 C -1.366623 2.691183 -1.143587 0
M  V30 15 C -2.466991 3.516332 -1.126591 0
M  V30 16 C -3.531357 3.182064 -0.312068 0
M  V30 17 C -3.569943 2.065172 0.496057 0
M  V30 18 C -2.457278 1.251019 0.464622 0
M  V30 19 C -1.369706 1.569259 -0.351225 0
M  V30 20 N -0.291814 0.790254 -0.388527 0
M  V30 21 C 1.291742 -1.646885 0.467897 0
M  V30 22 H -1.006471 -2.626272 4.839979 0
M  V30 23 H -0.926882 -4.316406 4.087549 0
M  V30 24 H 0.252182 -3.814932 5.322335 0
M  V30 25 H -0.215477 -4.025774 1.846854 0
M  V30 26 H 2.935307 -4.378651 1.499155 0
M  V30 27 H 4.546680 -3.454629 -0.028788 0
M  V30 28 H 4.121038 -1.421079 -1.230525 0
M  V30 29 H 2.738711 0.419520 -1.775716 0
M  V30 30 H -0.240042 3.794079 -2.533658 0
M  V30 31 H -2.477586 4.408869 -1.749849 0
M  V30 32 H -4.381622 3.873779 -0.337075 0
M  V30 33 H -4.457417 1.883517 1.106806 0
M  V30 34 H -2.458613 0.365338 1.089541 0
M  V30 35 H 0.335736 -1.183203 0.661198 0
M  V30 END ATOM
M  V30 BEGIN BOND
M  V30 1 1 1 2
M  V30 2 2 2 3
M  V30 3 1 2 4
M  V30 4 1 4 5
M  V30 5 2 5 6
M  V30 6 1 6 7
M  V30 7 2 7 8
M  V30 8 1 8 9
M  V30 9 1 9 10
M  V30 10 1 10 11
M  V30 11 2 11 12
M  V30 12 1 12 13
M  V30 13 2 13 14
M  V30 14 1 14 15
M  V30 15 2 15 16
M  V30 16 1 16 17
M  V30 17 2 17 18
M  V30 18 1 18 19
M  V30 19 2 19 20
M  V30 20 2 9 21
M  V30 21 1 21 5
M  V30 22 1 20 11
M  V30 23 1 19 14
M  V30 24 1 1 22
M  V30 25 1 1 23
M  V30 26 1 1 24
M  V30 27 1 4 25
M  V30 28 1 6 26
M  V30 29 1 7 27
M  V30 30 1 8 28
M  V30 31 1 10 29
M  V30 32 1 13 30
M  V30 33 1 15 31
M  V30 34 1 16 32
M  V30 35 1 17 33
M  V30 36 1 18 34
M  V30 37 1 21 35
M  V30 END BOND
M  V30 END CTAB
M  END
>  <Dataset>  (675) 
ChEMBL_Kinases

>  <Ligand_Instance>  (675) 
nan

>  <PDB_ID>  (675) 
nan

>  <Standardized_SMILES>  (675) 
CC(=O)Nc1cccc(Nc2ncc3ccccc3n2)c1

>  <Name>  (675) 
nan

>  <Pocket>  (675) 
nan

>  <ATP_Site>  (675) 
nan

>  <Peripheral>  (675) 
nan

>  <Num_H_Atoms_ProtBoundConf>  (675) 
nan

>  <Num_Resolved_Atoms>  (675) 
nan

>  <Num_Not_Resolved_Atoms>  (675) 
nan

$$$$
CHEMBL421194
     RDKit          3D

  0  0  0  0  0  0  0  0  0  0999 V3000
M  V30 BEGIN CTAB
M  V30 COUNTS 45 48 0 0 0
M  V30 BEGIN ATOM
M  V30 1 C 3.484712 -2.425841 4.533232 0
M  V30 2 O 2.717733 -1.577928 3.690100 0
M  V30 3 C 1.878057 -2.114402 2.724326 0
M  V30 4 O 1.806978 -3.351154 2.607836 0
M  V30 5 C 1.110207 -1.238996 1.880996 0
M  V30 6 C 1.178565 0.134806 1.998410 0
M  V30 7 C 0.471140 1.069606 1.226017 0
M  V30 8 C 0.705776 2.469358 1.538398 0
M  V30 9 C 2.076072 2.770296 1.581018 0
M  V30 10 C 2.565619 4.024784 1.864037 0
M  V30 11 C 1.704800 5.069460 2.125329 0
M  V30 12 C 0.360238 4.773648 2.083602 0
M  V30 13 C -0.113501 3.513935 1.799211 0
M  V30 14 C -0.358141 0.530842 0.272851 0
M  V30 15 C -0.451414 -0.835074 0.125702 0
M  V30 16 C 0.260206 -1.716528 0.905231 0
M  V30 17 N -1.272731 -1.418532 -0.876591 0
M  V30 18 C -1.363585 -2.852821 -1.016768 0
M  V30 19 C -0.424374 -3.405756 -1.881618 0
M  V30 20 Cl 0.770272 -2.413424 -2.726569 0
M  V30 21 C -0.392240 -4.765845 -2.112978 0
M  V30 22 C -1.303575 -5.582931 -1.477440 0
M  V30 23 C -2.234013 -5.023798 -0.618960 0
M  V30 24 C -2.270878 -3.679118 -0.385980 0
M  V30 25 Cl -3.402174 -2.860225 0.678737 0
M  V30 26 C -2.033761 -0.623870 -1.776750 0
M  V30 27 O -2.778485 -1.057373 -2.680954 0
M  V30 28 N -1.893871 0.757400 -1.581857 0
M  V30 29 C -1.127516 1.468577 -0.543610 0
M  V30 30 H 3.157674 -2.297518 5.580685 0
M  V30 31 H 3.331815 -3.492998 4.214497 0
M  V30 32 H 4.555888 -2.218210 4.357161 0
M  V30 33 H 1.861758 0.491350 2.781136 0
M  V30 34 H 2.880199 2.041048 1.394535 0
M  V30 35 H 3.620239 4.262112 1.898165 0
M  V30 36 H 1.944164 6.087997 2.358178 0
M  V30 37 H -0.400950 5.530853 2.275800 0
M  V30 38 H -1.147217 3.280946 1.773724 0
M  V30 39 H 0.191821 -2.790780 0.796510 0
M  V30 40 H 0.349451 -5.188922 -2.793899 0
M  V30 41 H -1.306130 -6.652292 -1.636192 0
M  V30 42 H -2.966336 -5.608580 -0.097459 0
M  V30 43 H -2.386787 1.426594 -2.244828 0
M  V30 44 H -1.961014 1.842047 0.128491 0
M  V30 45 H -0.565859 2.274253 -1.021319 0
M  V30 END ATOM
M  V30 BEGIN BOND
M  V30 1 1 1 2
M  V30 2 1 2 3
M  V30 3 2 3 4
M  V30 4 1 3 5
M  V30 5 2 5 6
M  V30 6 1 6 7
M  V30 7 1 7 8
M  V30 8 2 8 9
M  V30 9 1 9 10
M  V30 10 2 10 11
M  V30 11 1 11 12
M  V30 12 2 12 13
M  V30 13 2 7 14
M  V30 14 1 14 15
M  V30 15 2 15 16
M  V30 16 1 15 17
M  V30 17 1 17 18
M  V30 18 2 18 19
M  V30 19 1 19 20
M  V30 20 1 19 21
M  V30 21 2 21 22
M  V30 22 1 22 23
M  V30 23 2 23 24
M  V30 24 1 24 25
M  V30 25 1 17 26
M  V30 26 2 26 27
M  V30 27 1 26 28
M  V30 28 1 28 29
M  V30 29 1 16 5
M  V30 30 1 24 18
M  V30 31 1 13 8
M  V30 32 1 29 14
M  V30 33 1 1 30
M  V30 34 1 1 31
M  V30 35 1 1 32
M  V30 36 1 6 33
M  V30 37 1 9 34
M  V30 38 1 10 35
M  V30 39 1 11 36
M  V30 40 1 12 37
M  V30 41 1 13 38
M  V30 42 1 16 39
M  V30 43 1 21 40
M  V30 44 1 22 41
M  V30 45 1 23 42
M  V30 46 1 28 43
M  V30 47 1 29 44
M  V30 48 1 29 45
M  V30 END BOND
M  V30 END CTAB
M  END
>  <Dataset>  (676) 
ChEMBL_Kinases

>  <Ligand_Instance>  (676) 
nan

>  <PDB_ID>  (676) 
nan

>  <Standardized_SMILES>  (676) 
COC(=O)c1cc(-c2ccccc2)c2c(c1)N(c1c(Cl)cccc1Cl)C(=O)NC2

>  <Name>  (676) 
nan

>  <Pocket>  (676) 
nan

>  <ATP_Site>  (676) 
nan

>  <Peripheral>  (676) 
nan

>  <Num_H_Atoms_ProtBoundConf>  (676) 
nan

>  <Num_Resolved_Atoms>  (676) 
nan

>  <Num_Not_Resolved_Atoms>  (676) 
nan

$$$$
CHEMBL4211934
     RDKit          3D

  0  0  0  0  0  0  0  0  0  0999 V3000
M  V30 BEGIN CTAB
M  V30 COUNTS 61 64 0 0 0
M  V30 BEGIN ATOM
M  V30 1 C 1.415042 -0.465097 4.287830 0
M  V30 2 C 2.623792 -1.391777 4.089015 0
M  V30 3 C 3.626011 -0.976913 5.099487 0
M  V30 4 N 3.092037 -1.164696 2.715311 0
M  V30 5 C 3.566702 0.134492 2.519484 0
M  V30 6 C 3.802579 0.650816 1.138457 0
M  V30 7 N 2.537929 0.661560 0.396173 0
M  V30 8 C 1.386950 1.412507 0.749888 0
M  V30 9 O 1.372240 2.162108 1.769118 0
M  V30 10 C 0.128590 1.416711 0.016802 0
M  V30 11 C -0.896552 2.242034 0.423267 0
M  V30 12 C -2.118557 2.263513 -0.256026 0
M  V30 13 C -2.362162 1.471324 -1.354326 0
M  V30 14 C -1.338082 0.643946 -1.763794 0
M  V30 15 C -1.546426 -0.232525 -2.937430 0
M  V30 16 C -0.753003 -0.529760 -4.051937 0
M  V30 17 N -1.463973 -1.411189 -4.813395 0
M  V30 18 C -2.615336 -1.627307 -4.188417 0
M  V30 19 C -3.642738 -2.474520 -4.634560 0
M  V30 20 C -4.763587 -2.560877 -3.834794 0
M  V30 21 C -4.830134 -1.834487 -2.664940 0
M  V30 22 C -5.979291 -1.916177 -1.828490 0
M  V30 23 C -6.328863 -1.338075 -0.653258 0
M  V30 24 C -7.540984 -1.632055 -0.085194 0
M  V30 25 C -8.367227 -2.553879 -0.799491 0
M  V30 26 S -7.368156 -2.967041 -2.267478 0
M  V30 27 N -3.816962 -1.040993 -2.290925 0
M  V30 28 N -2.714520 -0.932163 -3.039970 0
M  V30 29 C -0.132421 0.636166 -1.077537 0
M  V30 30 C 3.623920 -2.304461 2.133442 0
M  V30 31 C 4.226037 -2.281387 0.762104 0
M  V30 32 C 4.562091 -3.153067 2.976241 0
M  V30 33 H 0.767382 -0.453249 3.391993 0
M  V30 34 H 0.792413 -0.907688 5.110902 0
M  V30 35 H 1.701250 0.525818 4.666496 0
M  V30 36 H 2.218003 -2.412056 4.178703 0
M  V30 37 H 3.586433 -1.572009 6.037579 0
M  V30 38 H 4.635089 -0.966477 4.653417 0
M  V30 39 H 3.461594 0.090259 5.431335 0
M  V30 40 H 2.780469 0.825270 2.966130 0
M  V30 41 H 4.452504 0.396677 3.197651 0
M  V30 42 H 4.059383 1.767957 1.188164 0
M  V30 43 H 4.621495 0.236999 0.571862 0
M  V30 44 H 2.357870 0.122114 -0.469989 0
M  V30 45 H -0.834343 2.913559 1.270336 0
M  V30 46 H -2.929740 2.908702 0.055209 0
M  V30 47 H -3.304444 1.498401 -1.865832 0
M  V30 48 H 0.207713 -0.048366 -4.111385 0
M  V30 49 H -3.554419 -3.040028 -5.574241 0
M  V30 50 H -5.559391 -3.222389 -4.186693 0
M  V30 51 H -5.603020 -0.662340 -0.230364 0
M  V30 52 H -7.850120 -1.184219 0.859913 0
M  V30 53 H -9.372927 -2.831265 -0.379798 0
M  V30 54 H 0.608085 -0.033832 -1.458722 0
M  V30 55 H 2.721953 -3.020366 2.017570 0
M  V30 56 H 3.614104 -1.820906 -0.028943 0
M  V30 57 H 5.299170 -1.974839 0.746955 0
M  V30 58 H 4.317384 -3.362261 0.366477 0
M  V30 59 H 4.854172 -4.053501 2.351698 0
M  V30 60 H 5.481913 -2.690224 3.287115 0
M  V30 61 H 4.057264 -3.597086 3.857235 0
M  V30 END ATOM
M  V30 BEGIN BOND
M  V30 1 1 1 2
M  V30 2 1 2 3
M  V30 3 1 2 4
M  V30 4 1 4 5
M  V30 5 1 5 6
M  V30 6 1 6 7
M  V30 7 1 7 8
M  V30 8 2 8 9
M  V30 9 1 8 10
M  V30 10 2 10 11
M  V30 11 1 11 12
M  V30 12 2 12 13
M  V30 13 1 13 14
M  V30 14 1 14 15
M  V30 15 2 15 16
M  V30 16 1 16 17
M  V30 17 2 17 18
M  V30 18 1 18 19
M  V30 19 2 19 20
M  V30 20 1 20 21
M  V30 21 1 21 22
M  V30 22 2 22 23
M  V30 23 1 23 24
M  V30 24 2 24 25
M  V30 25 1 25 26
M  V30 26 2 21 27
M  V30 27 1 27 28
M  V30 28 2 14 29
M  V30 29 1 4 30
M  V30 30 1 30 31
M  V30 31 1 30 32
M  V30 32 1 29 10
M  V30 33 1 28 15
M  V30 34 1 28 18
M  V30 35 1 26 22
M  V30 36 1 1 33
M  V30 37 1 1 34
M  V30 38 1 1 35
M  V30 39 1 2 36
M  V30 40 1 3 37
M  V30 41 1 3 38
M  V30 42 1 3 39
M  V30 43 1 5 40
M  V30 44 1 5 41
M  V30 45 1 6 42
M  V30 46 1 6 43
M  V30 47 1 7 44
M  V30 48 1 11 45
M  V30 49 1 12 46
M  V30 50 1 13 47
M  V30 51 1 16 48
M  V30 52 1 19 49
M  V30 53 1 20 50
M  V30 54 1 23 51
M  V30 55 1 24 52
M  V30 56 1 25 53
M  V30 57 1 29 54
M  V30 58 1 30 55
M  V30 59 1 31 56
M  V30 60 1 31 57
M  V30 61 1 31 58
M  V30 62 1 32 59
M  V30 63 1 32 60
M  V30 64 1 32 61
M  V30 END BOND
M  V30 END CTAB
M  END
>  <Dataset>  (677) 
ChEMBL_Kinases

>  <Ligand_Instance>  (677) 
nan

>  <PDB_ID>  (677) 
nan

>  <Standardized_SMILES>  (677) 
CC(C)N(CCNC(=O)c1cccc(-c2cnc3ccc(-c4cccs4)nn23)c1)C(C)C

>  <Name>  (677) 
nan

>  <Pocket>  (677) 
nan

>  <ATP_Site>  (677) 
nan

>  <Peripheral>  (677) 
nan

>  <Num_H_Atoms_ProtBoundConf>  (677) 
nan

>  <Num_Resolved_Atoms>  (677) 
nan

>  <Num_Not_Resolved_Atoms>  (677) 
nan

$$$$
CHEMBL4211880
     RDKit          3D

  0  0  0  0  0  0  0  0  0  0999 V3000
M  V30 BEGIN CTAB
M  V30 COUNTS 74 79 0 0 0
M  V30 BEGIN ATOM
M  V30 1 C 8.065762 0.147252 4.837380 0
M  V30 2 C 7.797914 -0.363877 3.469311 0
M  V30 3 C 6.501589 -0.543877 3.000753 0
M  V30 4 C 6.272914 -1.017025 1.731946 0
M  V30 5 C 7.296316 -1.331579 0.874632 0
M  V30 6 N 7.070035 -1.821028 -0.441951 0
M  V30 7 C 5.701716 -1.968573 -0.818949 0
M  V30 8 N 5.043204 -3.137654 -0.609801 0
M  V30 9 C 3.733302 -3.293063 -0.963907 0
M  V30 10 C 3.111334 -2.204772 -1.544483 0
M  V30 11 C 3.759843 -1.015338 -1.763835 0
M  V30 12 N 5.058983 -0.928094 -1.389024 0
M  V30 13 N 3.113516 0.090117 -2.351057 0
M  V30 14 C 3.817655 1.335505 -2.574204 0
M  V30 15 C 1.744585 -0.012637 -2.733708 0
M  V30 16 O 1.179395 0.970721 -3.253822 0
M  V30 17 N 1.090541 -1.253018 -2.495950 0
M  V30 18 C -0.277409 -1.286097 -2.881459 0
M  V30 19 C -1.240894 -0.919253 -1.933968 0
M  V30 20 C -2.610976 -0.919270 -2.226251 0
M  V30 21 N -3.434621 -0.517321 -1.129606 0
M  V30 22 C -3.858771 -1.591095 -0.319261 0
M  V30 23 O -3.445716 -2.742878 -0.690136 0
M  V30 24 C -4.708783 -1.437953 0.865258 0
M  V30 25 C -5.152224 -0.217830 1.329856 0
M  V30 26 C -5.951281 -0.090913 2.441396 0
M  V30 27 N -6.368759 1.206612 2.861790 0
M  V30 28 C -6.813901 1.603964 4.068532 0
M  V30 29 N -7.101810 2.917018 4.037479 0
M  V30 30 C -6.845086 3.386783 2.804121 0
M  V30 31 C -7.030261 4.793725 2.353812 0
M  V30 32 C -6.385846 2.300707 2.078882 0
M  V30 33 C -6.310708 -1.248050 3.101846 0
M  V30 34 C -5.884475 -2.487849 2.664058 0
M  V30 35 C -6.294868 -3.715918 3.403313 0
M  V30 36 F -5.207531 -4.347907 3.974232 0
M  V30 37 F -6.812362 -4.622715 2.469540 0
M  V30 38 F -7.270714 -3.409809 4.319908 0
M  V30 39 C -5.082384 -2.579254 1.543719 0
M  V30 40 C -3.010125 -1.291406 -3.481553 0
M  V30 41 C -2.087212 -1.658876 -4.439532 0
M  V30 42 C -0.742554 -1.651001 -4.127465 0
M  V30 43 C 0.246711 -2.044864 -5.152045 0
M  V30 44 C 1.690926 -2.435579 -1.910216 0
M  V30 45 C 8.570253 -1.145218 1.360189 0
M  V30 46 N 8.805429 -0.675714 2.619129 0
M  V30 47 H 8.143035 1.246446 4.761243 0
M  V30 48 H 7.205353 -0.089523 5.497282 0
M  V30 49 H 8.966141 -0.306739 5.290296 0
M  V30 50 H 5.642173 -0.309030 3.641781 0
M  V30 51 H 5.257624 -1.145350 1.399779 0
M  V30 52 H 7.887799 -2.039194 -1.042938 0
M  V30 53 H 3.241605 -4.239585 -0.781722 0
M  V30 54 H 4.340081 1.215310 -3.558114 0
M  V30 55 H 4.608389 1.441201 -1.832462 0
M  V30 56 H 3.135938 2.191592 -2.677616 0
M  V30 57 H -0.867255 -0.629589 -0.942632 0
M  V30 58 H -3.742900 0.453595 -0.876905 0
M  V30 59 H -4.866083 0.683450 0.807023 0
M  V30 60 H -6.898682 0.898195 4.899276 0
M  V30 61 H -8.069972 5.110773 2.460890 0
M  V30 62 H -6.687592 4.831391 1.294710 0
M  V30 63 H -6.309254 5.405918 2.958245 0
M  V30 64 H -6.086496 2.345034 1.030045 0
M  V30 65 H -6.939798 -1.118667 3.972206 0
M  V30 66 H -4.760589 -3.566043 1.220802 0
M  V30 67 H -4.083517 -1.271915 -3.648456 0
M  V30 68 H -2.430275 -1.947723 -5.423211 0
M  V30 69 H 0.333098 -1.268683 -5.966458 0
M  V30 70 H 1.252273 -2.170862 -4.748814 0
M  V30 71 H -0.041714 -3.004121 -5.633430 0
M  V30 72 H 1.707919 -3.270390 -2.655825 0
M  V30 73 H 1.138002 -2.720749 -0.990482 0
M  V30 74 H 9.418258 -1.365046 0.758052 0
M  V30 END ATOM
M  V30 BEGIN BOND
M  V30 1 1 1 2
M  V30 2 2 2 3
M  V30 3 1 3 4
M  V30 4 2 4 5
M  V30 5 1 5 6
M  V30 6 1 6 7
M  V30 7 2 7 8
M  V30 8 1 8 9
M  V30 9 2 9 10
M  V30 10 1 10 11
M  V30 11 2 11 12
M  V30 12 1 11 13
M  V30 13 1 13 14
M  V30 14 1 13 15
M  V30 15 2 15 16
M  V30 16 1 15 17
M  V30 17 1 17 18
M  V30 18 2 18 19
M  V30 19 1 19 20
M  V30 20 1 20 21
M  V30 21 1 21 22
M  V30 22 2 22 23
M  V30 23 1 22 24
M  V30 24 2 24 25
M  V30 25 1 25 26
M  V30 26 1 26 27
M  V30 27 1 27 28
M  V30 28 2 28 29
M  V30 29 1 29 30
M  V30 30 1 30 31
M  V30 31 2 30 32
M  V30 32 2 26 33
M  V30 33 1 33 34
M  V30 34 1 34 35
M  V30 35 1 35 36
M  V30 36 1 35 37
M  V30 37 1 35 38
M  V30 38 2 34 39
M  V30 39 2 20 40
M  V30 40 1 40 41
M  V30 41 2 41 42
M  V30 42 1 42 43
M  V30 43 1 17 44
M  V30 44 1 5 45
M  V30 45 2 45 46
M  V30 46 1 46 2
M  V30 47 1 12 7
M  V30 48 1 42 18
M  V30 49 1 44 10
M  V30 50 1 39 24
M  V30 51 1 32 27
M  V30 52 1 1 47
M  V30 53 1 1 48
M  V30 54 1 1 49
M  V30 55 1 3 50
M  V30 56 1 4 51
M  V30 57 1 6 52
M  V30 58 1 9 53
M  V30 59 1 14 54
M  V30 60 1 14 55
M  V30 61 1 14 56
M  V30 62 1 19 57
M  V30 63 1 21 58
M  V30 64 1 25 59
M  V30 65 1 28 60
M  V30 66 1 31 61
M  V30 67 1 31 62
M  V30 68 1 31 63
M  V30 69 1 32 64
M  V30 70 1 33 65
M  V30 71 1 39 66
M  V30 72 1 40 67
M  V30 73 1 41 68
M  V30 74 1 43 69
M  V30 75 1 43 70
M  V30 76 1 43 71
M  V30 77 1 44 72
M  V30 78 1 44 73
M  V30 79 1 45 74
M  V30 END BOND
M  V30 END CTAB
M  END
>  <Dataset>  (678) 
ChEMBL_Kinases

>  <Ligand_Instance>  (678) 
nan

>  <PDB_ID>  (678) 
nan

>  <Standardized_SMILES>  (678) 
Cc1ccc(Nc2ncc3c(n2)N(C)C(=O)N(c2cc(NC(=O)c4cc(-n5cnc(C)c5)cc(C(F)(F)F)c4)ccc2C)C3)cn1

>  <Name>  (678) 
nan

>  <Pocket>  (678) 
nan

>  <ATP_Site>  (678) 
nan

>  <Peripheral>  (678) 
nan

>  <Num_H_Atoms_ProtBoundConf>  (678) 
nan

>  <Num_Resolved_Atoms>  (678) 
nan

>  <Num_Not_Resolved_Atoms>  (678) 
nan

$$$$
CHEMBL4212132
     RDKit          3D

  0  0  0  0  0  0  0  0  0  0999 V3000
M  V30 BEGIN CTAB
M  V30 COUNTS 28 31 0 0 0
M  V30 BEGIN ATOM
M  V30 1 C -2.205042 -1.985540 2.991271 0
M  V30 2 C -1.796410 -1.197182 1.938947 0
M  V30 3 C -0.458449 -1.081812 1.613833 0
M  V30 4 C -0.143876 -0.214873 0.474234 0
M  V30 5 C -0.812944 1.014959 0.459694 0
M  V30 6 C -0.620292 1.937644 -0.549293 0
M  V30 7 C 0.249170 1.673731 -1.589170 0
M  V30 8 N 0.676081 2.302596 -2.701604 0
M  V30 9 C 1.566037 1.511562 -3.352660 0
M  V30 10 N 1.712143 0.367764 -2.654964 0
M  V30 11 C 0.900607 0.457745 -1.560289 0
M  V30 12 C 0.722930 -0.472167 -0.567089 0
M  V30 13 C 0.446205 -1.786895 2.384972 0
M  V30 14 C 1.819687 -1.826954 2.251923 0
M  V30 15 C 2.219409 -2.677637 3.274962 0
M  V30 16 N 1.134993 -3.119205 3.978835 0
M  V30 17 C 0.010760 -2.568720 3.432620 0
M  V30 18 N -1.288041 -2.654033 3.714447 0
M  V30 19 H -3.229864 -2.139329 3.323083 0
M  V30 20 H -2.573977 -0.681516 1.390498 0
M  V30 21 H -1.511495 1.280061 1.253059 0
M  V30 22 H -1.130095 2.896351 -0.577538 0
M  V30 23 H 2.124192 1.658638 -4.271372 0
M  V30 24 H 2.332375 -0.457023 -2.891678 0
M  V30 25 H 1.210028 -1.412758 -0.520782 0
M  V30 26 H 2.432915 -1.330696 1.541968 0
M  V30 27 H 3.241607 -2.977690 3.517904 0
M  V30 28 H 1.176948 -3.770009 4.796799 0
M  V30 END ATOM
M  V30 BEGIN BOND
M  V30 1 2 1 2
M  V30 2 1 2 3
M  V30 3 1 3 4
M  V30 4 2 4 5
M  V30 5 1 5 6
M  V30 6 2 6 7
M  V30 7 1 7 8
M  V30 8 2 8 9
M  V30 9 1 9 10
M  V30 10 1 10 11
M  V30 11 2 11 12
M  V30 12 2 3 13
M  V30 13 1 13 14
M  V30 14 2 14 15
M  V30 15 1 15 16
M  V30 16 1 16 17
M  V30 17 2 17 18
M  V30 18 1 18 1
M  V30 19 1 12 4
M  V30 20 1 17 13
M  V30 21 1 11 7
M  V30 22 1 1 19
M  V30 23 1 2 20
M  V30 24 1 5 21
M  V30 25 1 6 22
M  V30 26 1 9 23
M  V30 27 1 10 24
M  V30 28 1 12 25
M  V30 29 1 14 26
M  V30 30 1 15 27
M  V30 31 1 16 28
M  V30 END BOND
M  V30 END CTAB
M  END
>  <Dataset>  (679) 
ChEMBL_Kinases

>  <Ligand_Instance>  (679) 
nan

>  <PDB_ID>  (679) 
nan

>  <Standardized_SMILES>  (679) 
c1cc(-c2ccc3nc[nH]c3c2)c2cc[nH]c2n1

>  <Name>  (679) 
nan

>  <Pocket>  (679) 
nan

>  <ATP_Site>  (679) 
nan

>  <Peripheral>  (679) 
nan

>  <Num_H_Atoms_ProtBoundConf>  (679) 
nan

>  <Num_Resolved_Atoms>  (679) 
nan

>  <Num_Not_Resolved_Atoms>  (679) 
nan

$$$$
CHEMBL4210185
     RDKit          3D

  0  0  0  0  0  0  0  0  0  0999 V3000
M  V30 BEGIN CTAB
M  V30 COUNTS 80 85 0 0 0
M  V30 BEGIN ATOM
M  V30 1 C 0.080029 0.574086 8.490790 0
M  V30 2 C 0.927282 1.034444 7.376168 0
M  V30 3 C 0.722992 0.495849 6.111337 0
M  V30 4 C 1.562200 0.978718 5.101630 0
M  V30 5 C 2.556263 1.928806 5.263948 0
M  V30 6 N 3.372715 2.379548 4.208644 0
M  V30 7 C 3.046998 1.782681 2.982712 0
M  V30 8 N 3.670530 0.597865 2.695661 0
M  V30 9 C 3.413129 -0.036374 1.557509 0
M  V30 10 C 2.539489 0.398712 0.592438 0
M  V30 11 C 1.922622 1.604473 0.913965 0
M  V30 12 N 2.167967 2.264572 2.059095 0
M  V30 13 N 0.989716 2.155972 -0.013410 0
M  V30 14 C 0.305162 3.379214 0.229749 0
M  V30 15 C -1.191115 3.237513 0.349196 0
M  V30 16 C -1.954364 4.265219 -0.456222 0
M  V30 17 C -1.468478 5.659030 -0.200618 0
M  V30 18 C 0.037641 5.769904 -0.116809 0
M  V30 19 C 0.589151 4.481670 -0.748159 0
M  V30 20 C 0.681984 1.506890 -1.242194 0
M  V30 21 O -0.095477 1.861883 -2.134392 0
M  V30 22 N 1.354407 0.257487 -1.514570 0
M  V30 23 C 1.201632 -0.580293 -2.673218 0
M  V30 24 C 0.195612 -1.549730 -2.639996 0
M  V30 25 C -0.095460 -2.456725 -3.666539 0
M  V30 26 N -1.168314 -3.357428 -3.427983 0
M  V30 27 C -1.038758 -4.623315 -2.809657 0
M  V30 28 O 0.175432 -4.830229 -2.503271 0
M  V30 29 C -2.155519 -5.541423 -2.568904 0
M  V30 30 C -3.411320 -5.201260 -2.995375 0
M  V30 31 C -4.369785 -6.177614 -2.684531 0
M  V30 32 C -4.157286 -7.387699 -2.019201 0
M  V30 33 C -5.300066 -8.277383 -1.785873 0
M  V30 34 C -2.840457 -7.574209 -1.660370 0
M  V30 35 C -2.592048 -8.871815 -0.945285 0
M  V30 36 F -1.246902 -8.929611 -0.639050 0
M  V30 37 F -2.844164 -9.959073 -1.779518 0
M  V30 38 F -3.283388 -8.937174 0.233381 0
M  V30 39 C -1.804521 -6.703584 -1.901089 0
M  V30 40 C 0.698611 -2.357456 -4.793725 0
M  V30 41 C 1.702636 -1.411128 -4.862167 0
M  V30 42 C 1.953907 -0.536892 -3.825372 0
M  V30 43 C 3.024818 0.485722 -3.876957 0
M  V30 44 C 2.321558 -0.383032 -0.643766 0
M  V30 45 C 2.669495 2.391924 6.555629 0
M  V30 46 N 1.886817 1.967927 7.592225 0
M  V30 47 H -0.292858 -0.464448 8.363929 0
M  V30 48 H -0.808308 1.237834 8.579845 0
M  V30 49 H 0.597635 0.615885 9.469417 0
M  V30 50 H -0.028782 -0.249523 5.887698 0
M  V30 51 H 1.383750 0.543898 4.124260 0
M  V30 52 H 4.106984 3.085339 4.438292 0
M  V30 53 H 3.924019 -0.982999 1.349400 0
M  V30 54 H 0.652823 3.770378 1.231378 0
M  V30 55 H -1.551175 2.254148 -0.012509 0
M  V30 56 H -1.544509 3.332282 1.401114 0
M  V30 57 H -2.018579 3.997599 -1.533906 0
M  V30 58 H -3.024415 4.183936 -0.103095 0
M  V30 59 H -1.890301 6.348635 -0.957878 0
M  V30 60 H -1.884470 6.000858 0.770729 0
M  V30 61 H 0.397266 5.888954 0.924089 0
M  V30 62 H 0.346314 6.600923 -0.795285 0
M  V30 63 H 1.673943 4.684461 -0.855092 0
M  V30 64 H 0.045071 4.400807 -1.706903 0
M  V30 65 H -0.411545 -1.591921 -1.720153 0
M  V30 66 H -2.125014 -3.019863 -3.752133 0
M  V30 67 H -3.670783 -4.305261 -3.508347 0
M  V30 68 H -5.401390 -5.959944 -3.003747 0
M  V30 69 H -5.037940 -9.340593 -1.751394 0
M  V30 70 H -5.816008 -7.925116 -0.867619 0
M  V30 71 H -6.049675 -8.156724 -2.618483 0
M  V30 72 H -0.802116 -6.934709 -1.578465 0
M  V30 73 H 0.460470 -3.066298 -5.574905 0
M  V30 74 H 2.302330 -1.360062 -5.750747 0
M  V30 75 H 4.033709 0.054823 -3.759439 0
M  V30 76 H 2.823637 1.318118 -3.178642 0
M  V30 77 H 2.979282 0.930225 -4.893240 0
M  V30 78 H 3.278139 -0.429040 -1.237862 0
M  V30 79 H 1.961906 -1.406365 -0.415085 0
M  V30 80 H 3.408636 3.138551 6.812735 0
M  V30 END ATOM
M  V30 BEGIN BOND
M  V30 1 1 1 2
M  V30 2 2 2 3
M  V30 3 1 3 4
M  V30 4 2 4 5
M  V30 5 1 5 6
M  V30 6 1 6 7
M  V30 7 2 7 8
M  V30 8 1 8 9
M  V30 9 2 9 10
M  V30 10 1 10 11
M  V30 11 2 11 12
M  V30 12 1 11 13
M  V30 13 1 13 14
M  V30 14 1 14 15
M  V30 15 1 15 16
M  V30 16 1 16 17
M  V30 17 1 17 18
M  V30 18 1 18 19
M  V30 19 1 13 20
M  V30 20 2 20 21
M  V30 21 1 20 22
M  V30 22 1 22 23
M  V30 23 2 23 24
M  V30 24 1 24 25
M  V30 25 1 25 26
M  V30 26 1 26 27
M  V30 27 2 27 28
M  V30 28 1 27 29
M  V30 29 2 29 30
M  V30 30 1 30 31
M  V30 31 2 31 32
M  V30 32 1 32 33
M  V30 33 1 32 34
M  V30 34 1 34 35
M  V30 35 1 35 36
M  V30 36 1 35 37
M  V30 37 1 35 38
M  V30 38 2 34 39
M  V30 39 2 25 40
M  V30 40 1 40 41
M  V30 41 2 41 42
M  V30 42 1 42 43
M  V30 43 1 22 44
M  V30 44 1 5 45
M  V30 45 2 45 46
M  V30 46 1 46 2
M  V30 47 1 12 7
M  V30 48 1 19 14
M  V30 49 1 42 23
M  V30 50 1 44 10
M  V30 51 1 39 29
M  V30 52 1 1 47
M  V30 53 1 1 48
M  V30 54 1 1 49
M  V30 55 1 3 50
M  V30 56 1 4 51
M  V30 57 1 6 52
M  V30 58 1 9 53
M  V30 59 1 14 54
M  V30 60 1 15 55
M  V30 61 1 15 56
M  V30 62 1 16 57
M  V30 63 1 16 58
M  V30 64 1 17 59
M  V30 65 1 17 60
M  V30 66 1 18 61
M  V30 67 1 18 62
M  V30 68 1 19 63
M  V30 69 1 19 64
M  V30 70 1 24 65
M  V30 71 1 26 66
M  V30 72 1 30 67
M  V30 73 1 31 68
M  V30 74 1 33 69
M  V30 75 1 33 70
M  V30 76 1 33 71
M  V30 77 1 39 72
M  V30 78 1 40 73
M  V30 79 1 41 74
M  V30 80 1 43 75
M  V30 81 1 43 76
M  V30 82 1 43 77
M  V30 83 1 44 78
M  V30 84 1 44 79
M  V30 85 1 45 80
M  V30 END BOND
M  V30 END CTAB
M  END
>  <Dataset>  (680) 
ChEMBL_Kinases

>  <Ligand_Instance>  (680) 
nan

>  <PDB_ID>  (680) 
nan

>  <Standardized_SMILES>  (680) 
Cc1ccc(Nc2ncc3c(n2)N(C2CCCCC2)C(=O)N(c2cc(NC(=O)c4ccc(C)c(C(F)(F)F)c4)ccc2C)C3)cn1

>  <Name>  (680) 
nan

>  <Pocket>  (680) 
nan

>  <ATP_Site>  (680) 
nan

>  <Peripheral>  (680) 
nan

>  <Num_H_Atoms_ProtBoundConf>  (680) 
nan

>  <Num_Resolved_Atoms>  (680) 
nan

>  <Num_Not_Resolved_Atoms>  (680) 
nan

$$$$
CHEMBL4210171
     RDKit          3D

  0  0  0  0  0  0  0  0  0  0999 V3000
M  V30 BEGIN CTAB
M  V30 COUNTS 39 41 0 0 0
M  V30 BEGIN ATOM
M  V30 1 O 3.676364 -5.150041 0.650352 0
M  V30 2 C 3.633280 -4.152174 1.416096 0
M  V30 3 N 3.961493 -4.211518 2.774864 0
M  V30 4 C 3.869580 -3.009148 3.524848 0
M  V30 5 S 4.219935 -2.683193 5.064702 0
M  V30 6 S 3.239324 -1.771018 2.393494 0
M  V30 7 C 3.230308 -2.831325 0.939062 0
M  V30 8 C 2.933754 -2.502841 -0.308049 0
M  V30 9 C 2.544600 -1.140493 -0.642914 0
M  V30 10 C 3.002290 -0.538749 -1.807774 0
M  V30 11 C 2.686190 0.742991 -2.208504 0
M  V30 12 C 1.846769 1.496929 -1.391764 0
M  V30 13 C 1.348944 0.955147 -0.205380 0
M  V30 14 O 0.575705 1.578717 0.598294 0
M  V30 15 C -0.210699 2.278803 1.369076 0
M  V30 16 C -1.527250 2.757119 0.776170 0
M  V30 17 O -2.374591 1.777486 0.333532 0
M  V30 18 C -3.001849 0.741422 0.917881 0
M  V30 19 C -3.761988 0.033314 -0.028028 0
M  V30 20 C -4.500845 -1.078789 0.330028 0
M  V30 21 C -4.521745 -1.537913 1.630900 0
M  V30 22 Br -5.499401 -3.059763 2.248410 0
M  V30 23 C -3.787989 -0.869054 2.590046 0
M  V30 24 C -3.068556 0.230593 2.190626 0
M  V30 25 C 1.717752 -0.341849 0.121007 0
M  V30 26 H 4.269816 -5.063166 3.293935 0
M  V30 27 H 2.967618 -3.235487 -1.130295 0
M  V30 28 H 3.644832 -1.078611 -2.461010 0
M  V30 29 H 3.086720 1.151004 -3.144714 0
M  V30 30 H 1.595805 2.502289 -1.701692 0
M  V30 31 H -0.454359 1.841223 2.391401 0
M  V30 32 H 0.309016 3.254606 1.691608 0
M  V30 33 H -1.944918 3.488215 1.501966 0
M  V30 34 H -1.252850 3.393407 -0.117076 0
M  V30 35 H -3.873460 0.235011 -1.085249 0
M  V30 36 H -5.109553 -1.678244 -0.333490 0
M  V30 37 H -3.743944 -1.152135 3.624349 0
M  V30 38 H -2.482537 0.796067 2.895000 0
M  V30 39 H 1.343402 -0.809636 1.044408 0
M  V30 END ATOM
M  V30 BEGIN BOND
M  V30 1 2 1 2
M  V30 2 1 2 3
M  V30 3 1 3 4
M  V30 4 2 4 5
M  V30 5 1 4 6
M  V30 6 1 6 7
M  V30 7 2 7 8
M  V30 8 1 8 9
M  V30 9 2 9 10
M  V30 10 1 10 11
M  V30 11 2 11 12
M  V30 12 1 12 13
M  V30 13 1 13 14
M  V30 14 1 14 15
M  V30 15 1 15 16
M  V30 16 1 16 17
M  V30 17 1 17 18
M  V30 18 2 18 19
M  V30 19 1 19 20
M  V30 20 2 20 21
M  V30 21 1 21 22
M  V30 22 1 21 23
M  V30 23 2 23 24
M  V30 24 2 13 25
M  V30 25 1 7 2
M  V30 26 1 25 9
M  V30 27 1 24 18
M  V30 28 1 3 26
M  V30 29 1 8 27
M  V30 30 1 10 28
M  V30 31 1 11 29
M  V30 32 1 12 30
M  V30 33 1 15 31
M  V30 34 1 15 32
M  V30 35 1 16 33
M  V30 36 1 16 34
M  V30 37 1 19 35
M  V30 38 1 20 36
M  V30 39 1 23 37
M  V30 40 1 24 38
M  V30 41 1 25 39
M  V30 END BOND
M  V30 END CTAB
M  END
>  <Dataset>  (681) 
ChEMBL_Kinases

>  <Ligand_Instance>  (681) 
nan

>  <PDB_ID>  (681) 
nan

>  <Standardized_SMILES>  (681) 
O=C1NC(=S)S/C1=C\c1cccc(OCCOc2ccc(Br)cc2)c1

>  <Name>  (681) 
nan

>  <Pocket>  (681) 
nan

>  <ATP_Site>  (681) 
nan

>  <Peripheral>  (681) 
nan

>  <Num_H_Atoms_ProtBoundConf>  (681) 
nan

>  <Num_Resolved_Atoms>  (681) 
nan

>  <Num_Not_Resolved_Atoms>  (681) 
nan

$$$$
CHEMBL4210146
     RDKit          3D

  0  0  0  0  0  0  0  0  0  0999 V3000
M  V30 BEGIN CTAB
M  V30 COUNTS 28 29 0 0 0
M  V30 BEGIN ATOM
M  V30 1 C -0.899294 -0.050075 5.878907 0
M  V30 2 C -0.333597 -0.381002 4.533547 0
M  V30 3 C -1.250201 -0.902190 3.611599 0
M  V30 4 N -0.924021 -1.262389 2.335023 0
M  V30 5 C 0.387504 -1.084201 1.986872 0
M  V30 6 N 0.642622 -1.475712 0.638458 0
M  V30 7 C 0.619739 -0.653875 -0.518835 0
M  V30 8 C 0.350730 0.693683 -0.399902 0
M  V30 9 N 0.405583 1.186285 -1.651258 0
M  V30 10 N 0.688106 0.228690 -2.508624 0
M  V30 11 C 0.861230 0.207750 -3.965189 0
M  V30 12 C 0.836944 -0.961065 -1.863315 0
M  V30 13 C 1.144314 -2.361236 -2.235195 0
M  V30 14 N 1.303000 -0.585374 2.844063 0
M  V30 15 C 0.961703 -0.236805 4.094748 0
M  V30 16 H -0.132510 0.089002 6.645164 0
M  V30 17 H -1.561776 0.852304 5.732979 0
M  V30 18 H -1.599880 -0.891581 6.132551 0
M  V30 19 H -2.301677 -1.041118 3.902116 0
M  V30 20 H 0.852111 -2.511732 0.679913 0
M  V30 21 H 0.127614 1.344285 0.445847 0
M  V30 22 H 0.920148 1.227007 -4.361290 0
M  V30 23 H -0.007258 -0.333676 -4.425237 0
M  V30 24 H 1.806683 -0.324104 -4.190712 0
M  V30 25 H 0.412636 -3.092734 -1.812899 0
M  V30 26 H 1.087823 -2.511631 -3.353179 0
M  V30 27 H 2.177603 -2.585941 -1.895399 0
M  V30 28 H 1.629726 0.164451 4.821857 0
M  V30 END ATOM
M  V30 BEGIN BOND
M  V30 1 1 1 2
M  V30 2 2 2 3
M  V30 3 1 3 4
M  V30 4 2 4 5
M  V30 5 1 5 6
M  V30 6 1 6 7
M  V30 7 1 7 8
M  V30 8 2 8 9
M  V30 9 1 9 10
M  V30 10 1 10 11
M  V30 11 1 10 12
M  V30 12 1 12 13
M  V30 13 1 5 14
M  V30 14 2 14 15
M  V30 15 1 15 2
M  V30 16 2 12 7
M  V30 17 1 1 16
M  V30 18 1 1 17
M  V30 19 1 1 18
M  V30 20 1 3 19
M  V30 21 1 6 20
M  V30 22 1 8 21
M  V30 23 1 11 22
M  V30 24 1 11 23
M  V30 25 1 11 24
M  V30 26 1 13 25
M  V30 27 1 13 26
M  V30 28 1 13 27
M  V30 29 1 15 28
M  V30 END BOND
M  V30 END CTAB
M  END
>  <Dataset>  (682) 
ChEMBL_Kinases

>  <Ligand_Instance>  (682) 
nan

>  <PDB_ID>  (682) 
nan

>  <Standardized_SMILES>  (682) 
Cc1cnc(Nc2cnn(C)c2C)nc1

>  <Name>  (682) 
nan

>  <Pocket>  (682) 
nan

>  <ATP_Site>  (682) 
nan

>  <Peripheral>  (682) 
nan

>  <Num_H_Atoms_ProtBoundConf>  (682) 
nan

>  <Num_Resolved_Atoms>  (682) 
nan

>  <Num_Not_Resolved_Atoms>  (682) 
nan

$$$$
CHEMBL4781551
     RDKit          3D

  0  0  0  0  0  0  0  0  0  0999 V3000
M  V30 BEGIN CTAB
M  V30 COUNTS 52 56 0 0 0
M  V30 BEGIN ATOM
M  V30 1 C 3.860939 -3.768462 7.539143 0
M  V30 2 C 4.443985 -3.542701 6.184111 0
M  V30 3 C 5.753308 -3.836095 5.864971 0
M  V30 4 C 6.202057 -3.587212 4.566077 0
M  V30 5 C 5.345458 -3.055245 3.617191 0
M  V30 6 N 4.067084 -2.767977 3.926055 0
M  V30 7 C 3.225172 -2.224459 2.922713 0
M  V30 8 C 2.264519 -1.249288 3.119829 0
M  V30 9 C 1.489953 -0.782624 2.071601 0
M  V30 10 C 1.656734 -1.285981 0.775499 0
M  V30 11 C 0.766897 -0.696231 -0.224185 0
M  V30 12 C -0.570326 -0.541405 0.095522 0
M  V30 13 C -1.401978 0.014663 -0.851012 0
M  V30 14 C -0.875477 0.388242 -2.059319 0
M  V30 15 C -1.612289 0.951355 -3.073571 0
M  V30 16 C -2.959354 1.366146 -3.393405 0
M  V30 17 O -3.318234 1.883621 -4.504537 0
M  V30 18 N -4.166915 1.347227 -2.694710 0
M  V30 19 C -5.281730 1.879522 -3.435932 0
M  V30 20 C -6.520587 1.808667 -2.589487 0
M  V30 21 C -7.760911 2.349863 -3.285235 0
M  V30 22 C -7.204175 2.992124 -2.046901 0
M  V30 23 N -0.681470 1.147727 -4.054014 0
M  V30 24 N 0.490754 0.730467 -3.632864 0
M  V30 25 C 0.453798 0.237358 -2.384673 0
M  V30 26 C 1.294624 -0.318681 -1.443058 0
M  V30 27 C 2.623211 -2.266074 0.580767 0
M  V30 28 Cl 2.769686 -2.842927 -1.066410 0
M  V30 29 C 3.371190 -2.702378 1.647233 0
M  V30 30 C 3.631385 -3.008459 5.183367 0
M  V30 31 O 2.427689 -2.744076 5.494932 0
M  V30 32 H 2.758263 -3.831727 7.453990 0
M  V30 33 H 4.215254 -4.721177 7.929792 0
M  V30 34 H 4.054409 -2.905096 8.224075 0
M  V30 35 H 6.396352 -4.254795 6.642949 0
M  V30 36 H 7.239885 -3.847784 4.408498 0
M  V30 37 H 5.782252 -2.894362 2.629878 0
M  V30 38 H 2.148169 -0.873183 4.118159 0
M  V30 39 H 0.744863 -0.007617 2.295701 0
M  V30 40 H -0.907997 -0.861911 1.071993 0
M  V30 41 H -2.426304 0.122942 -0.580980 0
M  V30 42 H -4.123980 0.958180 -1.736426 0
M  V30 43 H -5.453254 1.250500 -4.326999 0
M  V30 44 H -5.116229 2.938835 -3.771307 0
M  V30 45 H -6.616108 0.834906 -2.041129 0
M  V30 46 H -8.638089 1.674086 -3.223529 0
M  V30 47 H -7.642056 2.947760 -4.189323 0
M  V30 48 H -7.819312 2.816320 -1.127021 0
M  V30 49 H -6.809696 4.011170 -2.100149 0
M  V30 50 H 1.371849 0.768140 -4.191747 0
M  V30 51 H 2.318772 -0.421572 -1.727161 0
M  V30 52 H 4.102300 -3.476866 1.374727 0
M  V30 END ATOM
M  V30 BEGIN BOND
M  V30 1 1 1 2
M  V30 2 2 2 3
M  V30 3 1 3 4
M  V30 4 2 4 5
M  V30 5 1 5 6
M  V30 6 1 6 7
M  V30 7 2 7 8
M  V30 8 1 8 9
M  V30 9 2 9 10
M  V30 10 1 10 11
M  V30 11 2 11 12
M  V30 12 1 12 13
M  V30 13 2 13 14
M  V30 14 1 14 15
M  V30 15 1 15 16
M  V30 16 2 16 17
M  V30 17 1 16 18
M  V30 18 1 18 19
M  V30 19 1 19 20
M  V30 20 1 20 21
M  V30 21 1 21 22
M  V30 22 2 15 23
M  V30 23 1 23 24
M  V30 24 1 24 25
M  V30 25 2 25 26
M  V30 26 1 10 27
M  V30 27 1 27 28
M  V30 28 2 27 29
M  V30 29 1 6 30
M  V30 30 2 30 31
M  V30 31 1 30 2
M  V30 32 1 29 7
M  V30 33 1 26 11
M  V30 34 1 25 14
M  V30 35 1 22 20
M  V30 36 1 1 32
M  V30 37 1 1 33
M  V30 38 1 1 34
M  V30 39 1 3 35
M  V30 40 1 4 36
M  V30 41 1 5 37
M  V30 42 1 8 38
M  V30 43 1 9 39
M  V30 44 1 12 40
M  V30 45 1 13 41
M  V30 46 1 18 42
M  V30 47 1 19 43
M  V30 48 1 19 44
M  V30 49 1 20 45
M  V30 50 1 21 46
M  V30 51 1 21 47
M  V30 52 1 22 48
M  V30 53 1 22 49
M  V30 54 1 24 50
M  V30 55 1 26 51
M  V30 56 1 29 52
M  V30 END BOND
M  V30 END CTAB
M  END
>  <Dataset>  (683) 
ChEMBL_Kinases

>  <Ligand_Instance>  (683) 
nan

>  <PDB_ID>  (683) 
nan

>  <Standardized_SMILES>  (683) 
Cc1cccn(-c2ccc(-c3ccc4c(C(=O)NCC5CC5)n[nH]c4c3)c(Cl)c2)c1=O

>  <Name>  (683) 
nan

>  <Pocket>  (683) 
nan

>  <ATP_Site>  (683) 
nan

>  <Peripheral>  (683) 
nan

>  <Num_H_Atoms_ProtBoundConf>  (683) 
nan

>  <Num_Resolved_Atoms>  (683) 
nan

>  <Num_Not_Resolved_Atoms>  (683) 
nan

$$$$
CHEMBL4781573
     RDKit          3D

  0  0  0  0  0  0  0  0  0  0999 V3000
M  V30 BEGIN CTAB
M  V30 COUNTS 52 56 0 0 0
M  V30 BEGIN ATOM
M  V30 1 C 3.106332 -4.701507 6.122789 0
M  V30 2 N 2.638599 -4.377955 4.779387 0
M  V30 3 C 3.015924 -3.287051 4.071279 0
M  V30 4 C 2.368711 -3.305469 2.832225 0
M  V30 5 C 2.382997 -2.411399 1.679886 0
M  V30 6 C 2.562576 -1.029762 1.792379 0
M  V30 7 C 2.562133 -0.214690 0.659979 0
M  V30 8 C 2.376603 -0.858466 -0.544065 0
M  V30 9 C 2.373680 -0.038069 -1.651295 0
M  V30 10 N 2.547234 1.374509 -1.694751 0
M  V30 11 C 1.407952 2.204322 -1.476652 0
M  V30 12 C 1.379836 3.585934 -1.592902 0
M  V30 13 C 0.240247 4.319833 -1.354162 0
M  V30 14 C -0.938642 3.707321 -0.984501 0
M  V30 15 C -0.985482 2.326672 -0.848463 0
M  V30 16 N -2.130482 1.571970 -0.469410 0
M  V30 17 C -3.228329 0.939377 -1.113194 0
M  V30 18 O -3.243545 1.044837 -2.365270 0
M  V30 19 C -4.186387 0.255817 -0.253418 0
M  V30 20 C -4.157536 0.134085 1.097435 0
M  V30 21 C -5.143992 -0.548128 1.771044 0
M  V30 22 C -6.192985 -1.129775 1.098005 0
M  V30 23 C -6.244121 -1.018186 -0.289912 0
M  V30 24 Br -7.690955 -1.821649 -1.210289 0
M  V30 25 C -5.225603 -0.319309 -0.934315 0
M  V30 26 C 0.186718 1.645745 -1.100715 0
M  V30 27 N 2.196255 -0.539407 -2.903329 0
M  V30 28 C 2.018519 -1.884917 -3.052678 0
M  V30 29 N 2.020948 -2.691577 -1.969950 0
M  V30 30 C 2.194466 -2.212160 -0.729220 0
M  V30 31 C 2.203457 -2.967356 0.416090 0
M  V30 32 C 1.600235 -4.474031 2.879277 0
M  V30 33 N 1.785692 -5.091027 4.058853 0
M  V30 34 H 2.841739 -3.941269 6.862064 0
M  V30 35 H 2.769270 -5.722654 6.375315 0
M  V30 36 H 4.233849 -4.751722 6.097317 0
M  V30 37 H 3.682915 -2.489120 4.317135 0
M  V30 38 H 2.702463 -0.610320 2.773655 0
M  V30 39 H 2.699222 0.855023 0.730117 0
M  V30 40 H 3.419653 1.894749 -1.869089 0
M  V30 41 H 2.314595 4.055418 -1.884967 0
M  V30 42 H 0.270610 5.413754 -1.460363 0
M  V30 43 H -1.855841 4.244710 -0.787350 0
M  V30 44 H -1.918492 1.612582 0.552246 0
M  V30 45 H -3.324024 0.598364 1.606380 0
M  V30 46 H -5.015243 -0.580048 2.842487 0
M  V30 47 H -6.948564 -1.658078 1.669789 0
M  V30 48 H -5.356234 -0.290252 -1.992798 0
M  V30 49 H 0.181667 0.569273 -1.002467 0
M  V30 50 H 1.869906 -2.366770 -4.001508 0
M  V30 51 H 2.063947 -4.038766 0.322042 0
M  V30 52 H 0.931849 -4.879949 2.113547 0
M  V30 END ATOM
M  V30 BEGIN BOND
M  V30 1 1 1 2
M  V30 2 1 2 3
M  V30 3 2 3 4
M  V30 4 1 4 5
M  V30 5 2 5 6
M  V30 6 1 6 7
M  V30 7 2 7 8
M  V30 8 1 8 9
M  V30 9 1 9 10
M  V30 10 1 10 11
M  V30 11 2 11 12
M  V30 12 1 12 13
M  V30 13 2 13 14
M  V30 14 1 14 15
M  V30 15 1 15 16
M  V30 16 1 16 17
M  V30 17 2 17 18
M  V30 18 1 17 19
M  V30 19 2 19 20
M  V30 20 1 20 21
M  V30 21 2 21 22
M  V30 22 1 22 23
M  V30 23 1 23 24
M  V30 24 2 23 25
M  V30 25 2 15 26
M  V30 26 2 9 27
M  V30 27 1 27 28
M  V30 28 2 28 29
M  V30 29 1 29 30
M  V30 30 2 30 31
M  V30 31 1 4 32
M  V30 32 2 32 33
M  V30 33 1 33 2
M  V30 34 1 31 5
M  V30 35 1 30 8
M  V30 36 1 26 11
M  V30 37 1 25 19
M  V30 38 1 1 34
M  V30 39 1 1 35
M  V30 40 1 1 36
M  V30 41 1 3 37
M  V30 42 1 6 38
M  V30 43 1 7 39
M  V30 44 1 10 40
M  V30 45 1 12 41
M  V30 46 1 13 42
M  V30 47 1 14 43
M  V30 48 1 16 44
M  V30 49 1 20 45
M  V30 50 1 21 46
M  V30 51 1 22 47
M  V30 52 1 25 48
M  V30 53 1 26 49
M  V30 54 1 28 50
M  V30 55 1 31 51
M  V30 56 1 32 52
M  V30 END BOND
M  V30 END CTAB
M  END
>  <Dataset>  (684) 
ChEMBL_Kinases

>  <Ligand_Instance>  (684) 
nan

>  <PDB_ID>  (684) 
nan

>  <Standardized_SMILES>  (684) 
Cn1cc(-c2ccc3c(Nc4cccc(NC(=O)c5cccc(Br)c5)c4)ncnc3c2)cn1

>  <Name>  (684) 
nan

>  <Pocket>  (684) 
nan

>  <ATP_Site>  (684) 
nan

>  <Peripheral>  (684) 
nan

>  <Num_H_Atoms_ProtBoundConf>  (684) 
nan

>  <Num_Resolved_Atoms>  (684) 
nan

>  <Num_Not_Resolved_Atoms>  (684) 
nan

$$$$
CHEMBL4210084
     RDKit          3D

  0  0  0  0  0  0  0  0  0  0999 V3000
M  V30 BEGIN CTAB
M  V30 COUNTS 63 68 0 0 0
M  V30 BEGIN ATOM
M  V30 1 C 6.685216 0.937946 0.481842 0
M  V30 2 N 6.387896 -0.368671 1.055368 0
M  V30 3 C 4.992277 -0.725430 1.136898 0
M  V30 4 N 4.288233 -0.394334 2.260988 0
M  V30 5 C 2.988724 -0.699406 2.394469 0
M  V30 6 C 2.397197 -1.359714 1.350163 0
M  V30 7 C 1.120099 -1.804548 1.173827 0
M  V30 8 C -0.049813 -1.724181 2.044445 0
M  V30 9 C -0.308523 -0.513447 2.662507 0
M  V30 10 C -1.391768 -0.344459 3.501718 0
M  V30 11 C -2.206111 -1.464069 3.687710 0
M  V30 12 N -3.375299 -1.562211 4.491523 0
M  V30 13 C -4.262930 -2.689024 4.723848 0
M  V30 14 C -5.570517 -2.307701 4.060187 0
M  V30 15 N -6.199116 -1.343375 4.930572 0
M  V30 16 C -5.277692 -0.637918 5.748003 0
M  V30 17 C -3.898486 -0.464423 5.259037 0
M  V30 18 N -1.945101 -2.653371 3.075616 0
M  V30 19 C -0.874609 -2.812358 2.249074 0
M  V30 20 N 1.032569 -2.398555 -0.032259 0
M  V30 21 N 2.209048 -2.356076 -0.648461 0
M  V30 22 C 2.596111 -2.863083 -1.955599 0
M  V30 23 C 2.376610 -1.794919 -2.988937 0
M  V30 24 C 1.162118 -1.674904 -3.663937 0
M  V30 25 N 1.262284 -0.635155 -4.522400 0
M  V30 26 C 0.214826 -0.172688 -5.416850 0
M  V30 27 C -0.656287 0.864514 -4.783878 0
M  V30 28 C -1.776410 0.426208 -4.097468 0
M  V30 29 C -2.624803 1.328458 -3.488390 0
M  V30 30 C -2.390523 2.690879 -3.540140 0
M  V30 31 C -1.258548 3.132186 -4.234128 0
M  V30 32 C -0.412944 2.220275 -4.842017 0
M  V30 33 N 2.495957 -0.135227 -4.378474 0
M  V30 34 N 3.165860 -0.818034 -3.469117 0
M  V30 35 C 3.066825 -1.719671 0.185534 0
M  V30 36 N 4.377050 -1.383245 0.112192 0
M  V30 37 H 5.971294 1.722627 0.861217 0
M  V30 38 H 6.651147 0.907960 -0.628233 0
M  V30 39 H 7.682934 1.298382 0.870033 0
M  V30 40 H 7.151112 -1.000866 1.385049 0
M  V30 41 H 2.419822 -0.446872 3.271022 0
M  V30 42 H 0.286824 0.387793 2.555291 0
M  V30 43 H -1.706766 0.525355 4.037768 0
M  V30 44 H -3.904401 -3.602135 4.195615 0
M  V30 45 H -4.470876 -2.883332 5.784574 0
M  V30 46 H -5.376211 -1.889293 3.046295 0
M  V30 47 H -6.242964 -3.196640 4.045341 0
M  V30 48 H -6.777116 -0.692515 4.343850 0
M  V30 49 H -5.280528 -1.147409 6.755200 0
M  V30 50 H -5.756852 0.356292 5.972848 0
M  V30 51 H -3.840963 0.447431 4.624999 0
M  V30 52 H -3.198823 -0.370751 6.141745 0
M  V30 53 H -0.680444 -3.765118 1.769247 0
M  V30 54 H 2.028332 -3.764691 -2.240774 0
M  V30 55 H 3.683307 -3.089171 -1.959917 0
M  V30 56 H 0.276402 -2.303042 -3.533193 0
M  V30 57 H 0.685191 0.307967 -6.318043 0
M  V30 58 H -0.403438 -0.989801 -5.797066 0
M  V30 59 H -2.023010 -0.629625 -4.015264 0
M  V30 60 H -3.507519 0.949271 -2.950653 0
M  V30 61 H -3.057734 3.399168 -3.060513 0
M  V30 62 H -1.075983 4.197570 -4.274640 0
M  V30 63 H 0.472380 2.558607 -5.384969 0
M  V30 END ATOM
M  V30 BEGIN BOND
M  V30 1 1 1 2
M  V30 2 1 2 3
M  V30 3 2 3 4
M  V30 4 1 4 5
M  V30 5 2 5 6
M  V30 6 1 6 7
M  V30 7 1 7 8
M  V30 8 2 8 9
M  V30 9 1 9 10
M  V30 10 2 10 11
M  V30 11 1 11 12
M  V30 12 1 12 13
M  V30 13 1 13 14
M  V30 14 1 14 15
M  V30 15 1 15 16
M  V30 16 1 16 17
M  V30 17 1 11 18
M  V30 18 2 18 19
M  V30 19 2 7 20
M  V30 20 1 20 21
M  V30 21 1 21 22
M  V30 22 1 22 23
M  V30 23 2 23 24
M  V30 24 1 24 25
M  V30 25 1 25 26
M  V30 26 1 26 27
M  V30 27 2 27 28
M  V30 28 1 28 29
M  V30 29 2 29 30
M  V30 30 1 30 31
M  V30 31 2 31 32
M  V30 32 1 25 33
M  V30 33 2 33 34
M  V30 34 1 21 35
M  V30 35 2 35 36
M  V30 36 1 36 3
M  V30 37 1 35 6
M  V30 38 1 19 8
M  V30 39 1 34 23
M  V30 40 1 17 12
M  V30 41 1 32 27
M  V30 42 1 1 37
M  V30 43 1 1 38
M  V30 44 1 1 39
M  V30 45 1 2 40
M  V30 46 1 5 41
M  V30 47 1 9 42
M  V30 48 1 10 43
M  V30 49 1 13 44
M  V30 50 1 13 45
M  V30 51 1 14 46
M  V30 52 1 14 47
M  V30 53 1 15 48
M  V30 54 1 16 49
M  V30 55 1 16 50
M  V30 56 1 17 51
M  V30 57 1 17 52
M  V30 58 1 19 53
M  V30 59 1 22 54
M  V30 60 1 22 55
M  V30 61 1 24 56
M  V30 62 1 26 57
M  V30 63 1 26 58
M  V30 64 1 28 59
M  V30 65 1 29 60
M  V30 66 1 30 61
M  V30 67 1 31 62
M  V30 68 1 32 63
M  V30 END BOND
M  V30 END CTAB
M  END
>  <Dataset>  (685) 
ChEMBL_Kinases

>  <Ligand_Instance>  (685) 
nan

>  <PDB_ID>  (685) 
nan

>  <Standardized_SMILES>  (685) 
CNc1ncc2c(-c3ccc(N4CCNCC4)nc3)nn(Cc3cn(Cc4ccccc4)nn3)c2n1

>  <Name>  (685) 
nan

>  <Pocket>  (685) 
nan

>  <ATP_Site>  (685) 
nan

>  <Peripheral>  (685) 
nan

>  <Num_H_Atoms_ProtBoundConf>  (685) 
nan

>  <Num_Resolved_Atoms>  (685) 
nan

>  <Num_Not_Resolved_Atoms>  (685) 
nan

$$$$
CHEMBL4210079
     RDKit          3D

  0  0  0  0  0  0  0  0  0  0999 V3000
M  V30 BEGIN CTAB
M  V30 COUNTS 50 53 0 0 0
M  V30 BEGIN ATOM
M  V30 1 C -0.089221 -2.528313 4.958666 0
M  V30 2 C 0.368722 -3.266575 3.734215 0
M  V30 3 C 0.422800 -4.664021 3.713763 0
M  V30 4 C 0.833025 -5.383386 2.614355 0
M  V30 5 C 1.204998 -4.657790 1.485326 0
M  V30 6 C 1.151488 -3.280739 1.505992 0
M  V30 7 C 1.545438 -2.545015 0.312136 0
M  V30 8 N 1.532744 -1.202642 0.246706 0
M  V30 9 C 1.887307 -0.500716 -0.841877 0
M  V30 10 N 1.884866 0.917239 -0.929014 0
M  V30 11 C 1.519664 1.962785 -0.049729 0
M  V30 12 C 2.455837 2.882816 0.397195 0
M  V30 13 C 2.271088 3.951636 1.245831 0
M  V30 14 N 0.982614 4.077221 1.673493 0
M  V30 15 C 0.008238 3.234893 1.293750 0
M  V30 16 C 0.254404 2.185836 0.443058 0
M  V30 17 C -0.847437 1.335819 0.040458 0
M  V30 18 O -0.911295 0.384114 -0.768896 0
M  V30 19 N -2.144658 1.502949 0.583735 0
M  V30 20 C -3.341689 0.736791 0.281451 0
M  V30 21 C -4.458123 1.620407 -0.251626 0
M  V30 22 C -3.866719 0.032911 1.502081 0
M  V30 23 C 2.291464 -1.180185 -1.969550 0
M  V30 24 C 2.714543 -0.758072 -3.236459 0
M  V30 25 C 2.974377 -1.935989 -3.904462 0
M  V30 26 C 2.721095 -3.013179 -3.082376 0
M  V30 27 N 2.303513 -2.521915 -1.902087 0
M  V30 28 N 1.943422 -3.186403 -0.800146 0
M  V30 29 N 0.739405 -2.652107 2.619826 0
M  V30 30 H 0.582444 -1.709789 5.225238 0
M  V30 31 H -1.066949 -2.054896 4.645317 0
M  V30 32 H -0.327714 -3.226075 5.772002 0
M  V30 33 H 0.126955 -5.199748 4.608049 0
M  V30 34 H 0.859893 -6.482182 2.643047 0
M  V30 35 H 1.536188 -5.202287 0.594234 0
M  V30 36 H 2.193521 1.414967 -1.766807 0
M  V30 37 H 3.483585 2.741337 0.025628 0
M  V30 38 H 3.100110 4.589985 1.508544 0
M  V30 39 H -0.920979 3.503763 1.735400 0
M  V30 40 H -2.406532 2.232840 1.300991 0
M  V30 41 H -3.064597 -0.029630 -0.469763 0
M  V30 42 H -5.144365 0.983118 -0.881995 0
M  V30 43 H -5.105010 2.017203 0.564054 0
M  V30 44 H -4.095869 2.421602 -0.921396 0
M  V30 45 H -3.476104 -0.999394 1.623474 0
M  V30 46 H -4.985149 -0.047511 1.418250 0
M  V30 47 H -3.695412 0.628687 2.437890 0
M  V30 48 H 2.789902 0.277516 -3.535110 0
M  V30 49 H 3.331697 -1.966739 -4.945516 0
M  V30 50 H 2.833996 -4.082577 -3.328082 0
M  V30 END ATOM
M  V30 BEGIN BOND
M  V30 1 1 1 2
M  V30 2 2 2 3
M  V30 3 1 3 4
M  V30 4 2 4 5
M  V30 5 1 5 6
M  V30 6 1 6 7
M  V30 7 1 7 8
M  V30 8 2 8 9
M  V30 9 1 9 10
M  V30 10 1 10 11
M  V30 11 2 11 12
M  V30 12 1 12 13
M  V30 13 2 13 14
M  V30 14 1 14 15
M  V30 15 2 15 16
M  V30 16 1 16 17
M  V30 17 2 17 18
M  V30 18 1 17 19
M  V30 19 1 19 20
M  V30 20 1 20 21
M  V30 21 1 20 22
M  V30 22 1 9 23
M  V30 23 2 23 24
M  V30 24 1 24 25
M  V30 25 2 25 26
M  V30 26 1 26 27
M  V30 27 1 27 28
M  V30 28 2 6 29
M  V30 29 1 29 2
M  V30 30 2 28 7
M  V30 31 1 16 11
M  V30 32 1 27 23
M  V30 33 1 1 30
M  V30 34 1 1 31
M  V30 35 1 1 32
M  V30 36 1 3 33
M  V30 37 1 4 34
M  V30 38 1 5 35
M  V30 39 1 10 36
M  V30 40 1 12 37
M  V30 41 1 13 38
M  V30 42 1 15 39
M  V30 43 1 19 40
M  V30 44 1 20 41
M  V30 45 1 21 42
M  V30 46 1 21 43
M  V30 47 1 21 44
M  V30 48 1 22 45
M  V30 49 1 22 46
M  V30 50 1 22 47
M  V30 51 1 24 48
M  V30 52 1 25 49
M  V30 53 1 26 50
M  V30 END BOND
M  V30 END CTAB
M  END
>  <Dataset>  (686) 
ChEMBL_Kinases

>  <Ligand_Instance>  (686) 
nan

>  <PDB_ID>  (686) 
nan

>  <Standardized_SMILES>  (686) 
Cc1cccc(-c2nc(Nc3ccncc3C(=O)NC(C)C)c3cccn3n2)n1

>  <Name>  (686) 
nan

>  <Pocket>  (686) 
nan

>  <ATP_Site>  (686) 
nan

>  <Peripheral>  (686) 
nan

>  <Num_H_Atoms_ProtBoundConf>  (686) 
nan

>  <Num_Resolved_Atoms>  (686) 
nan

>  <Num_Not_Resolved_Atoms>  (686) 
nan

$$$$
CHEMBL4210073
     RDKit          3D

  0  0  0  0  0  0  0  0  0  0999 V3000
M  V30 BEGIN CTAB
M  V30 COUNTS 58 61 0 0 0
M  V30 BEGIN ATOM
M  V30 1 C 1.192464 -3.773459 1.724934 0
M  V30 2 C 2.539828 -3.052393 1.597046 0
M  V30 3 N 2.367683 -1.736347 2.152349 0
M  V30 4 C 2.157613 -1.873140 3.582676 0
M  V30 5 C 1.975777 -0.534024 4.268296 0
M  V30 6 C 3.443280 -0.836860 1.902462 0
M  V30 7 C 3.580972 -0.416150 0.469457 0
M  V30 8 N 2.396364 0.264192 0.014934 0
M  V30 9 C 2.315387 0.773576 -1.306500 0
M  V30 10 O 3.298806 0.615791 -2.073579 0
M  V30 11 C 1.158042 1.479448 -1.844349 0
M  V30 12 C 1.277504 2.033137 -3.101866 0
M  V30 13 C 0.243262 2.742779 -3.718844 0
M  V30 14 C -0.971714 2.906806 -3.044320 0
M  V30 15 C -1.089543 2.352521 -1.789231 0
M  V30 16 C -2.265081 2.419155 -0.900469 0
M  V30 17 C -3.036705 3.504632 -0.519306 0
M  V30 18 N -4.026047 3.053374 0.308722 0
M  V30 19 C -3.882965 1.715144 0.446251 0
M  V30 20 C -4.527263 0.697578 1.108271 0
M  V30 21 C -4.147501 -0.627810 1.054525 0
M  V30 22 C -3.048349 -0.938744 0.282772 0
M  V30 23 C -2.538720 -2.294010 0.111998 0
M  V30 24 C -3.090111 -3.399186 0.720245 0
M  V30 25 C -2.636517 -4.692725 0.567753 0
M  V30 26 C -1.543417 -4.904165 -0.258889 0
M  V30 27 C -0.974160 -3.789210 -0.882814 0
M  V30 28 C -1.453976 -2.508787 -0.707316 0
M  V30 29 N -2.446353 0.081713 -0.346617 0
M  V30 30 N -2.819713 1.344730 -0.286406 0
M  V30 31 C -0.047547 1.652216 -1.198371 0
M  V30 32 H 1.090567 -4.573882 0.971622 0
M  V30 33 H 1.103848 -4.196792 2.767927 0
M  V30 34 H 0.340292 -3.076997 1.612308 0
M  V30 35 H 3.274792 -3.676689 2.172477 0
M  V30 36 H 2.825951 -3.082449 0.539078 0
M  V30 37 H 2.910786 -2.475269 4.097907 0
M  V30 38 H 1.171422 -2.403142 3.700883 0
M  V30 39 H 1.351904 -0.684642 5.192926 0
M  V30 40 H 1.434016 0.120127 3.579689 0
M  V30 41 H 2.978229 -0.143280 4.573212 0
M  V30 42 H 4.410642 -1.166657 2.338382 0
M  V30 43 H 3.194590 0.109139 2.467969 0
M  V30 44 H 4.438339 0.303553 0.414139 0
M  V30 45 H 3.867501 -1.263089 -0.188649 0
M  V30 46 H 1.586006 0.388982 0.652751 0
M  V30 47 H 2.161068 1.988172 -3.746594 0
M  V30 48 H 0.309513 3.186426 -4.700989 0
M  V30 49 H -1.838303 3.425077 -3.400425 0
M  V30 50 H -2.843766 4.525171 -0.852457 0
M  V30 51 H -5.399534 0.957241 1.718808 0
M  V30 52 H -4.664642 -1.394689 1.576949 0
M  V30 53 H -3.942733 -3.284756 1.372883 0
M  V30 54 H -3.098076 -5.536819 1.064733 0
M  V30 55 H -1.116102 -5.886622 -0.439956 0
M  V30 56 H -0.120638 -3.990671 -1.522901 0
M  V30 57 H -1.007351 -1.657171 -1.192743 0
M  V30 58 H -0.075013 1.192095 -0.216478 0
M  V30 END ATOM
M  V30 BEGIN BOND
M  V30 1 1 1 2
M  V30 2 1 2 3
M  V30 3 1 3 4
M  V30 4 1 4 5
M  V30 5 1 3 6
M  V30 6 1 6 7
M  V30 7 1 7 8
M  V30 8 1 8 9
M  V30 9 2 9 10
M  V30 10 1 9 11
M  V30 11 2 11 12
M  V30 12 1 12 13
M  V30 13 2 13 14
M  V30 14 1 14 15
M  V30 15 1 15 16
M  V30 16 2 16 17
M  V30 17 1 17 18
M  V30 18 2 18 19
M  V30 19 1 19 20
M  V30 20 2 20 21
M  V30 21 1 21 22
M  V30 22 1 22 23
M  V30 23 2 23 24
M  V30 24 1 24 25
M  V30 25 2 25 26
M  V30 26 1 26 27
M  V30 27 2 27 28
M  V30 28 2 22 29
M  V30 29 1 29 30
M  V30 30 2 15 31
M  V30 31 1 31 11
M  V30 32 1 30 16
M  V30 33 1 30 19
M  V30 34 1 28 23
M  V30 35 1 1 32
M  V30 36 1 1 33
M  V30 37 1 1 34
M  V30 38 1 2 35
M  V30 39 1 2 36
M  V30 40 1 4 37
M  V30 41 1 4 38
M  V30 42 1 5 39
M  V30 43 1 5 40
M  V30 44 1 5 41
M  V30 45 1 6 42
M  V30 46 1 6 43
M  V30 47 1 7 44
M  V30 48 1 7 45
M  V30 49 1 8 46
M  V30 50 1 12 47
M  V30 51 1 13 48
M  V30 52 1 14 49
M  V30 53 1 17 50
M  V30 54 1 20 51
M  V30 55 1 21 52
M  V30 56 1 24 53
M  V30 57 1 25 54
M  V30 58 1 26 55
M  V30 59 1 27 56
M  V30 60 1 28 57
M  V30 61 1 31 58
M  V30 END BOND
M  V30 END CTAB
M  END
>  <Dataset>  (687) 
ChEMBL_Kinases

>  <Ligand_Instance>  (687) 
nan

>  <PDB_ID>  (687) 
nan

>  <Standardized_SMILES>  (687) 
CCN(CC)CCNC(=O)c1cccc(-c2cnc3ccc(-c4ccccc4)nn23)c1

>  <Name>  (687) 
nan

>  <Pocket>  (687) 
nan

>  <ATP_Site>  (687) 
nan

>  <Peripheral>  (687) 
nan

>  <Num_H_Atoms_ProtBoundConf>  (687) 
nan

>  <Num_Resolved_Atoms>  (687) 
nan

>  <Num_Not_Resolved_Atoms>  (687) 
nan

$$$$
CHEMBL4210066
     RDKit          3D

  0  0  0  0  0  0  0  0  0  0999 V3000
M  V30 BEGIN CTAB
M  V30 COUNTS 53 56 0 0 0
M  V30 BEGIN ATOM
M  V30 1 C 5.253435 -4.603893 3.867782 0
M  V30 2 C 3.901944 -5.205995 4.109502 0
M  V30 3 O 3.144793 -5.352943 2.933501 0
M  V30 4 C 2.755251 -4.347396 2.088683 0
M  V30 5 C 2.994407 -3.011876 2.174599 0
M  V30 6 C 2.540779 -2.095322 1.247111 0
M  V30 7 N 1.828913 -2.597966 0.221790 0
M  V30 8 C 1.286874 -1.899420 -0.798545 0
M  V30 9 C 1.257903 -0.483153 -1.158684 0
M  V30 10 C 2.178984 0.127856 -1.984480 0
M  V30 11 C 2.026958 1.476278 -2.238034 0
M  V30 12 C 1.006815 2.258204 -1.715800 0
M  V30 13 C 0.078327 1.629202 -0.879845 0
M  V30 14 C -1.019915 2.341600 -0.282847 0
M  V30 15 C -1.950585 2.921075 0.223053 0
M  V30 16 C -3.105036 3.610171 0.849397 0 CFG=2
M  V30 17 O -2.692615 4.631754 1.670601 0
M  V30 18 C -3.937479 2.622463 1.647777 0
M  V30 19 C -5.347874 3.055898 1.414424 0
M  V30 20 N -5.337726 3.925320 0.252752 0
M  V30 21 C -6.579693 4.527279 -0.217547 0
M  V30 22 C -4.004291 4.021602 -0.232174 0
M  V30 23 O -3.781509 4.407056 -1.405402 0
M  V30 24 C 0.228098 0.292843 -0.627914 0
M  V30 25 N 0.662758 -2.804479 -1.594551 0
M  V30 26 C 0.802148 -4.046072 -1.096816 0
M  V30 27 C 0.271240 -5.277612 -1.671617 0
M  V30 28 N 0.481739 -6.522650 -1.059776 0
M  V30 29 O -0.380122 -5.092431 -2.752538 0
M  V30 30 C 1.544510 -3.902618 0.056791 0
M  V30 31 C 2.010287 -4.810443 1.001743 0
M  V30 32 H 6.033626 -5.359157 4.072444 0
M  V30 33 H 5.440580 -3.710593 4.499265 0
M  V30 34 H 5.358150 -4.278973 2.798500 0
M  V30 35 H 3.381259 -4.563221 4.864149 0
M  V30 36 H 4.020694 -6.211558 4.556966 0
M  V30 37 H 3.566248 -2.699161 3.018688 0
M  V30 38 H 2.753056 -1.040280 1.352250 0
M  V30 39 H 2.970322 -0.463391 -2.393701 0
M  V30 40 H 2.731796 1.976291 -2.878692 0
M  V30 41 H 0.873489 3.297634 -1.899667 0
M  V30 42 H -1.805137 4.367042 2.058771 0
M  V30 43 H -3.817326 1.575624 1.283641 0
M  V30 44 H -3.746101 2.709125 2.736108 0
M  V30 45 H -5.777353 3.637458 2.260090 0
M  V30 46 H -5.998590 2.166523 1.264556 0
M  V30 47 H -7.194496 4.836303 0.649422 0
M  V30 48 H -6.400291 5.450310 -0.812002 0
M  V30 49 H -7.155339 3.829006 -0.868306 0
M  V30 50 H -0.504417 -0.184876 0.026615 0
M  V30 51 H -0.204284 -6.993099 -0.413996 0
M  V30 52 H 1.182203 -7.314637 -0.977399 0
M  V30 53 H 1.758666 -5.834686 0.826965 0
M  V30 END ATOM
M  V30 BEGIN BOND
M  V30 1 1 1 2
M  V30 2 1 2 3
M  V30 3 1 3 4
M  V30 4 1 4 5
M  V30 5 2 5 6
M  V30 6 1 6 7
M  V30 7 1 7 8
M  V30 8 1 8 9
M  V30 9 2 9 10
M  V30 10 1 10 11
M  V30 11 2 11 12
M  V30 12 1 12 13
M  V30 13 1 13 14
M  V30 14 3 14 15
M  V30 15 1 16 15 CFG=3
M  V30 16 1 16 17
M  V30 17 1 16 18
M  V30 18 1 18 19
M  V30 19 1 19 20
M  V30 20 1 20 21
M  V30 21 1 20 22
M  V30 22 2 22 23
M  V30 23 2 13 24
M  V30 24 2 8 25
M  V30 25 1 25 26
M  V30 26 1 26 27
M  V30 27 1 27 28
M  V30 28 2 27 29
M  V30 29 2 26 30
M  V30 30 1 30 31
M  V30 31 2 31 4
M  V30 32 1 30 7
M  V30 33 1 24 9
M  V30 34 1 22 16
M  V30 35 1 1 32
M  V30 36 1 1 33
M  V30 37 1 1 34
M  V30 38 1 2 35
M  V30 39 1 2 36
M  V30 40 1 5 37
M  V30 41 1 6 38
M  V30 42 1 10 39
M  V30 43 1 11 40
M  V30 44 1 12 41
M  V30 45 1 17 42
M  V30 46 1 18 43
M  V30 47 1 18 44
M  V30 48 1 19 45
M  V30 49 1 19 46
M  V30 50 1 21 47
M  V30 51 1 21 48
M  V30 52 1 21 49
M  V30 53 1 24 50
M  V30 54 1 28 51
M  V30 55 1 28 52
M  V30 56 1 31 53
M  V30 END BOND
M  V30 END CTAB
M  END
>  <Dataset>  (688) 
ChEMBL_Kinases

>  <Ligand_Instance>  (688) 
nan

>  <PDB_ID>  (688) 
nan

>  <Standardized_SMILES>  (688) 
CCOc1ccn2c(-c3cccc(C#C[C@]4(O)CCN(C)C4=O)c3)nc(C(N)=O)c2c1

>  <Name>  (688) 
nan

>  <Pocket>  (688) 
nan

>  <ATP_Site>  (688) 
nan

>  <Peripheral>  (688) 
nan

>  <Num_H_Atoms_ProtBoundConf>  (688) 
nan

>  <Num_Resolved_Atoms>  (688) 
nan

>  <Num_Not_Resolved_Atoms>  (688) 
nan

$$$$
CHEMBL4209948
     RDKit          3D

  0  0  0  0  0  0  0  0  0  0999 V3000
M  V30 BEGIN CTAB
M  V30 COUNTS 82 87 0 0 0
M  V30 BEGIN ATOM
M  V30 1 C 0.961662 -0.570862 -6.888415 0
M  V30 2 C -0.474645 -0.572556 -6.468635 0
M  V30 3 N -0.936443 0.678501 -5.938890 0
M  V30 4 C -0.969945 1.645915 -7.014735 0
M  V30 5 C -1.488191 3.000971 -6.521002 0
M  V30 6 N -1.888252 2.806448 -5.141512 0
M  V30 7 C -1.473916 3.416673 -3.929678 0
M  V30 8 C -1.007393 4.696240 -3.776470 0
M  V30 9 C -0.597563 5.204924 -2.551862 0
M  V30 10 C -0.650355 4.404384 -1.411164 0
M  V30 11 N -0.235262 4.934187 -0.149838 0
M  V30 12 C -0.122516 3.933324 0.852862 0
M  V30 13 N 1.161225 3.529275 0.872717 0
M  V30 14 C 1.620640 2.560744 1.711491 0
M  V30 15 C 0.711333 1.977873 2.574288 0
M  V30 16 C -0.584156 2.383926 2.555765 0
M  V30 17 N -0.997517 3.349886 1.706925 0
M  V30 18 N -1.583961 1.811847 3.381421 0
M  V30 19 C -2.981310 2.176839 3.436454 0
M  V30 20 C -1.172314 0.765328 4.250513 0
M  V30 21 O -1.956470 0.175871 5.033979 0
M  V30 22 N 0.175739 0.315268 4.285304 0
M  V30 23 C 0.715405 -0.771851 5.025442 0
M  V30 24 C 0.754579 -1.950634 4.298639 0
M  V30 25 C 1.231385 -3.176129 4.781328 0
M  V30 26 N 1.243285 -4.336497 3.965409 0
M  V30 27 C 0.304776 -5.362942 3.711031 0
M  V30 28 O -0.818635 -5.398184 4.239841 0
M  V30 29 C 0.677366 -6.422537 2.787398 0
M  V30 30 C -0.282107 -7.391391 2.487509 0
M  V30 31 C 0.015358 -8.413233 1.622799 0
M  V30 32 C 1.230007 -8.555123 1.011635 0
M  V30 33 C 2.210916 -7.609947 1.285952 0
M  V30 34 C 3.575477 -7.650728 0.687246 0
M  V30 35 F 3.700793 -6.789357 -0.364884 0
M  V30 36 F 3.951410 -8.941797 0.368491 0
M  V30 37 F 4.440289 -7.184848 1.681427 0
M  V30 38 C 1.889916 -6.592080 2.157432 0
M  V30 39 C 1.693352 -3.163068 6.101902 0
M  V30 40 C 1.657381 -1.988348 6.835053 0
M  V30 41 C 1.178790 -0.801332 6.321252 0
M  V30 42 C 1.114404 0.476627 7.070682 0
M  V30 43 C 1.221231 0.932794 3.494480 0
M  V30 44 C -1.120522 3.139371 -1.610991 0
M  V30 45 C -1.526539 2.635799 -2.821861 0
M  V30 46 C -2.939459 1.777632 -5.105791 0
M  V30 47 C -2.292016 0.455439 -5.418542 0
M  V30 48 H 1.469494 0.406491 -6.750962 0
M  V30 49 H 1.121804 -0.833756 -7.955734 0
M  V30 50 H 1.493477 -1.360623 -6.279826 0
M  V30 51 H -0.698600 -1.397579 -5.756255 0
M  V30 52 H -1.072562 -0.764714 -7.403513 0
M  V30 53 H -1.652624 1.247185 -7.820194 0
M  V30 54 H 0.029727 1.768586 -7.449826 0
M  V30 55 H -0.657389 3.735693 -6.601525 0
M  V30 56 H -2.373774 3.333863 -7.111481 0
M  V30 57 H -0.974523 5.310441 -4.682189 0
M  V30 58 H -0.240573 6.220479 -2.487794 0
M  V30 59 H -0.059827 5.957061 -0.077683 0
M  V30 60 H 2.654268 2.225614 1.738565 0
M  V30 61 H -3.242468 2.691634 4.388350 0
M  V30 62 H -3.649911 1.273275 3.351556 0
M  V30 63 H -3.283371 2.807203 2.569572 0
M  V30 64 H 0.405120 -2.016679 3.258766 0
M  V30 65 H 2.199688 -4.246787 3.554183 0
M  V30 66 H -1.274595 -7.347780 2.935090 0
M  V30 67 H -0.735581 -9.182006 1.377661 0
M  V30 68 H 1.524183 -9.337793 0.320548 0
M  V30 69 H 2.647312 -5.845035 2.383132 0
M  V30 70 H 2.074056 -4.092787 6.523120 0
M  V30 71 H 2.022136 -1.980652 7.874580 0
M  V30 72 H 1.956709 0.593338 7.784577 0
M  V30 73 H 0.128252 0.456411 7.615768 0
M  V30 74 H 1.164602 1.340272 6.384300 0
M  V30 75 H 1.961600 1.385949 4.148098 0
M  V30 76 H 1.736786 0.191292 2.845140 0
M  V30 77 H -1.166717 2.497349 -0.719721 0
M  V30 78 H -1.873304 1.626405 -2.836735 0
M  V30 79 H -3.437400 1.815053 -4.117508 0
M  V30 80 H -3.729315 1.981650 -5.864921 0
M  V30 81 H -2.891182 -0.099780 -6.166757 0
M  V30 82 H -2.219109 -0.161078 -4.479059 0
M  V30 END ATOM
M  V30 BEGIN BOND
M  V30 1 1 1 2
M  V30 2 1 2 3
M  V30 3 1 3 4
M  V30 4 1 4 5
M  V30 5 1 5 6
M  V30 6 1 6 7
M  V30 7 2 7 8
M  V30 8 1 8 9
M  V30 9 2 9 10
M  V30 10 1 10 11
M  V30 11 1 11 12
M  V30 12 2 12 13
M  V30 13 1 13 14
M  V30 14 2 14 15
M  V30 15 1 15 16
M  V30 16 2 16 17
M  V30 17 1 16 18
M  V30 18 1 18 19
M  V30 19 1 18 20
M  V30 20 2 20 21
M  V30 21 1 20 22
M  V30 22 1 22 23
M  V30 23 2 23 24
M  V30 24 1 24 25
M  V30 25 1 25 26
M  V30 26 1 26 27
M  V30 27 2 27 28
M  V30 28 1 27 29
M  V30 29 2 29 30
M  V30 30 1 30 31
M  V30 31 2 31 32
M  V30 32 1 32 33
M  V30 33 1 33 34
M  V30 34 1 34 35
M  V30 35 1 34 36
M  V30 36 1 34 37
M  V30 37 2 33 38
M  V30 38 2 25 39
M  V30 39 1 39 40
M  V30 40 2 40 41
M  V30 41 1 41 42
M  V30 42 1 22 43
M  V30 43 1 10 44
M  V30 44 2 44 45
M  V30 45 1 6 46
M  V30 46 1 46 47
M  V30 47 1 47 3
M  V30 48 1 45 7
M  V30 49 1 17 12
M  V30 50 1 41 23
M  V30 51 1 43 15
M  V30 52 1 38 29
M  V30 53 1 1 48
M  V30 54 1 1 49
M  V30 55 1 1 50
M  V30 56 1 2 51
M  V30 57 1 2 52
M  V30 58 1 4 53
M  V30 59 1 4 54
M  V30 60 1 5 55
M  V30 61 1 5 56
M  V30 62 1 8 57
M  V30 63 1 9 58
M  V30 64 1 11 59
M  V30 65 1 14 60
M  V30 66 1 19 61
M  V30 67 1 19 62
M  V30 68 1 19 63
M  V30 69 1 24 64
M  V30 70 1 26 65
M  V30 71 1 30 66
M  V30 72 1 31 67
M  V30 73 1 32 68
M  V30 74 1 38 69
M  V30 75 1 39 70
M  V30 76 1 40 71
M  V30 77 1 42 72
M  V30 78 1 42 73
M  V30 79 1 42 74
M  V30 80 1 43 75
M  V30 81 1 43 76
M  V30 82 1 44 77
M  V30 83 1 45 78
M  V30 84 1 46 79
M  V30 85 1 46 80
M  V30 86 1 47 81
M  V30 87 1 47 82
M  V30 END BOND
M  V30 END CTAB
M  END
>  <Dataset>  (689) 
ChEMBL_Kinases

>  <Ligand_Instance>  (689) 
nan

>  <PDB_ID>  (689) 
nan

>  <Standardized_SMILES>  (689) 
CCN1CCN(c2ccc(Nc3ncc4c(n3)N(C)C(=O)N(c3cc(NC(=O)c5cccc(C(F)(F)F)c5)ccc3C)C4)cc2)CC1

>  <Name>  (689) 
nan

>  <Pocket>  (689) 
nan

>  <ATP_Site>  (689) 
nan

>  <Peripheral>  (689) 
nan

>  <Num_H_Atoms_ProtBoundConf>  (689) 
nan

>  <Num_Resolved_Atoms>  (689) 
nan

>  <Num_Not_Resolved_Atoms>  (689) 
nan

$$$$
CHEMBL4781614
     RDKit          3D

  0  0  0  0  0  0  0  0  0  0999 V3000
M  V30 BEGIN CTAB
M  V30 COUNTS 47 51 0 0 0
M  V30 BEGIN ATOM
M  V30 1 O -1.712255 -1.230487 3.090176 0
M  V30 2 C -0.894592 -1.692841 3.935765 0
M  V30 3 N 0.429776 -1.803390 3.481105 0
M  V30 4 C 0.547226 -1.353426 2.126830 0
M  V30 5 C 0.395661 -2.166892 1.020392 0
M  V30 6 C 0.520599 -1.675617 -0.265389 0
M  V30 7 C 0.804525 -0.335006 -0.439172 0
M  V30 8 C 0.961705 0.503737 0.648668 0
M  V30 9 C 0.831845 -0.010662 1.938898 0
M  V30 10 O 1.246274 1.866680 0.711115 0
M  V30 11 C 1.237490 2.794487 -0.345560 0
M  V30 12 N 1.256453 4.050991 0.180887 0
M  V30 13 C 1.252462 5.124384 -0.650216 0
M  V30 14 C 1.228808 4.832724 -1.993746 0
M  V30 15 C 1.208814 3.594166 -2.595282 0
M  V30 16 C 1.213972 2.535054 -1.697823 0
M  V30 17 C 1.191955 1.258097 -2.407125 0
M  V30 18 O 1.462155 1.334431 -3.622863 0
M  V30 19 N 0.893359 -0.024244 -1.825705 0
M  V30 20 C 0.673370 -1.050060 -2.787629 0
M  V30 21 C -0.533357 -1.415072 -3.373027 0
M  V30 22 C -0.573721 -2.435547 -4.291487 0
M  V30 23 N 0.513297 -3.118124 -4.665815 0
M  V30 24 C 1.707008 -2.800913 -4.125836 0
M  V30 25 C 1.787476 -1.766522 -3.186329 0
M  V30 26 C -1.391509 -2.053077 5.254419 0
M  V30 27 C -2.738192 -1.859886 5.486009 0
M  V30 28 C -3.216030 -2.205702 6.752316 0
M  V30 29 C -2.405177 -2.725886 7.766991 0
M  V30 30 C -1.058458 -2.892086 7.458246 0
M  V30 31 C -0.545776 -2.562827 6.218976 0
M  V30 32 H 1.137302 -2.188696 4.170559 0
M  V30 33 H 0.175860 -3.201755 1.191555 0
M  V30 34 H 0.401375 -2.314954 -1.128988 0
M  V30 35 H 0.954173 0.644316 2.812506 0
M  V30 36 H 1.266744 6.119441 -0.279839 0
M  V30 37 H 1.225990 5.712339 -2.646129 0
M  V30 38 H 1.191103 3.479000 -3.656666 0
M  V30 39 H -1.383271 -0.825405 -3.030447 0
M  V30 40 H -1.555499 -2.681115 -4.721937 0
M  V30 41 H 2.613560 -3.330898 -4.403004 0
M  V30 42 H 2.783038 -1.549791 -2.778620 0
M  V30 43 H -3.454299 -1.466370 4.778182 0
M  V30 44 H -4.278127 -2.071816 6.987787 0
M  V30 45 H -2.854625 -2.967982 8.720370 0
M  V30 46 H -0.436845 -3.302420 8.269121 0
M  V30 47 H 0.508442 -2.714650 6.039362 0
M  V30 END ATOM
M  V30 BEGIN BOND
M  V30 1 2 1 2
M  V30 2 1 2 3
M  V30 3 1 3 4
M  V30 4 2 4 5
M  V30 5 1 5 6
M  V30 6 2 6 7
M  V30 7 1 7 8
M  V30 8 2 8 9
M  V30 9 1 8 10
M  V30 10 1 10 11
M  V30 11 2 11 12
M  V30 12 1 12 13
M  V30 13 2 13 14
M  V30 14 1 14 15
M  V30 15 2 15 16
M  V30 16 1 16 17
M  V30 17 2 17 18
M  V30 18 1 17 19
M  V30 19 1 19 20
M  V30 20 2 20 21
M  V30 21 1 21 22
M  V30 22 2 22 23
M  V30 23 1 23 24
M  V30 24 2 24 25
M  V30 25 1 2 26
M  V30 26 2 26 27
M  V30 27 1 27 28
M  V30 28 2 28 29
M  V30 29 1 29 30
M  V30 30 2 30 31
M  V30 31 1 9 4
M  V30 32 1 16 11
M  V30 33 1 25 20
M  V30 34 1 31 26
M  V30 35 1 19 7
M  V30 36 1 3 32
M  V30 37 1 5 33
M  V30 38 1 6 34
M  V30 39 1 9 35
M  V30 40 1 13 36
M  V30 41 1 14 37
M  V30 42 1 15 38
M  V30 43 1 21 39
M  V30 44 1 22 40
M  V30 45 1 24 41
M  V30 46 1 25 42
M  V30 47 1 27 43
M  V30 48 1 28 44
M  V30 49 1 29 45
M  V30 50 1 30 46
M  V30 51 1 31 47
M  V30 END BOND
M  V30 END CTAB
M  END
>  <Dataset>  (690) 
ChEMBL_Kinases

>  <Ligand_Instance>  (690) 
nan

>  <PDB_ID>  (690) 
nan

>  <Standardized_SMILES>  (690) 
O=C(Nc1ccc2c(c1)Oc1ncccc1C(=O)N2c1ccncc1)c1ccccc1

>  <Name>  (690) 
nan

>  <Pocket>  (690) 
nan

>  <ATP_Site>  (690) 
nan

>  <Peripheral>  (690) 
nan

>  <Num_H_Atoms_ProtBoundConf>  (690) 
nan

>  <Num_Resolved_Atoms>  (690) 
nan

>  <Num_Not_Resolved_Atoms>  (690) 
nan

$$$$
CHEMBL4211046
     RDKit          3D

  0  0  0  0  0  0  0  0  0  0999 V3000
M  V30 BEGIN CTAB
M  V30 COUNTS 45 48 0 0 0
M  V30 BEGIN ATOM
M  V30 1 C 2.801914 -4.430558 0.786811 0
M  V30 2 N 3.569677 -3.618484 -0.166681 0
M  V30 3 C 3.336598 -3.694099 -1.602217 0
M  V30 4 C 4.118632 -2.528622 -2.171580 0
M  V30 5 C 4.527966 -1.680590 -0.994193 0 CFG=1
M  V30 6 O 5.768594 -1.100828 -1.106613 0
M  V30 7 C 3.510328 -0.663040 -0.702745 0
M  V30 8 C 2.657113 0.160907 -0.466891 0
M  V30 9 C 1.625219 1.123213 -0.181138 0
M  V30 10 C 1.726545 2.456248 -0.523180 0
M  V30 11 C 0.653949 3.261529 -0.183277 0
M  V30 12 N -0.450617 2.813919 0.447612 0
M  V30 13 C -0.566473 1.517742 0.788553 0
M  V30 14 N -1.721728 1.019540 1.454992 0
M  V30 15 N -1.940880 -0.262925 1.694829 0
M  V30 16 C -3.095540 -0.444226 2.330689 0
M  V30 17 C -3.680239 -1.708226 2.764587 0
M  V30 18 N -2.978735 -2.918173 2.504278 0
M  V30 19 O -4.794550 -1.743688 3.364932 0
M  V30 20 C -3.620155 0.820250 2.491006 0
M  V30 21 C -4.809103 1.188840 3.092739 0
M  V30 22 C -5.122229 2.534736 3.131989 0
M  V30 23 C -4.237569 3.451974 2.570508 0
M  V30 24 C -3.060706 3.054309 1.978027 0
M  V30 25 C -2.734392 1.729037 1.929742 0
M  V30 26 C 0.491160 0.697105 0.459238 0
M  V30 27 C 4.614717 -2.671976 0.138560 0
M  V30 28 O 5.292808 -2.873242 1.180588 0
M  V30 29 H 3.406444 -4.499810 1.737178 0
M  V30 30 H 1.891581 -3.861744 1.087480 0
M  V30 31 H 2.521271 -5.399844 0.376625 0
M  V30 32 H 3.705695 -4.650659 -2.013891 0
M  V30 33 H 2.249724 -3.581222 -1.803665 0
M  V30 34 H 5.060853 -2.924825 -2.645707 0
M  V30 35 H 3.529651 -1.972649 -2.922239 0
M  V30 36 H 6.473318 -1.645970 -0.669545 0
M  V30 37 H 2.610940 2.797697 -1.024593 0
M  V30 38 H 0.732597 4.310336 -0.451869 0
M  V30 39 H -2.205290 -3.018284 3.191590 0
M  V30 40 H -3.002382 -3.734117 1.836573 0
M  V30 41 H -5.511071 0.513900 3.533232 0
M  V30 42 H -6.046916 2.905276 3.591963 0
M  V30 43 H -4.505739 4.498896 2.614225 0
M  V30 44 H -2.362370 3.746937 1.537798 0
M  V30 45 H 0.398223 -0.347594 0.733825 0
M  V30 END ATOM
M  V30 BEGIN BOND
M  V30 1 1 1 2
M  V30 2 1 2 3
M  V30 3 1 3 4
M  V30 4 1 4 5
M  V30 5 1 5 6
M  V30 6 1 5 7 CFG=1
M  V30 7 3 7 8
M  V30 8 1 8 9
M  V30 9 2 9 10
M  V30 10 1 10 11
M  V30 11 2 11 12
M  V30 12 1 12 13
M  V30 13 1 13 14
M  V30 14 1 14 15
M  V30 15 2 15 16
M  V30 16 1 16 17
M  V30 17 1 17 18
M  V30 18 2 17 19
M  V30 19 1 16 20
M  V30 20 2 20 21
M  V30 21 1 21 22
M  V30 22 2 22 23
M  V30 23 1 23 24
M  V30 24 2 24 25
M  V30 25 2 13 26
M  V30 26 1 5 27
M  V30 27 2 27 28
M  V30 28 1 27 2
M  V30 29 1 26 9
M  V30 30 1 25 14
M  V30 31 1 25 20
M  V30 32 1 1 29
M  V30 33 1 1 30
M  V30 34 1 1 31
M  V30 35 1 3 32
M  V30 36 1 3 33
M  V30 37 1 4 34
M  V30 38 1 4 35
M  V30 39 1 6 36
M  V30 40 1 10 37
M  V30 41 1 11 38
M  V30 42 1 18 39
M  V30 43 1 18 40
M  V30 44 1 21 41
M  V30 45 1 22 42
M  V30 46 1 23 43
M  V30 47 1 24 44
M  V30 48 1 26 45
M  V30 END BOND
M  V30 END CTAB
M  END
>  <Dataset>  (691) 
ChEMBL_Kinases

>  <Ligand_Instance>  (691) 
nan

>  <PDB_ID>  (691) 
nan

>  <Standardized_SMILES>  (691) 
CN1CC[C@@](O)(C#Cc2ccnc(-n3nc(C(N)=O)c4ccccc43)c2)C1=O

>  <Name>  (691) 
nan

>  <Pocket>  (691) 
nan

>  <ATP_Site>  (691) 
nan

>  <Peripheral>  (691) 
nan

>  <Num_H_Atoms_ProtBoundConf>  (691) 
nan

>  <Num_Resolved_Atoms>  (691) 
nan

>  <Num_Not_Resolved_Atoms>  (691) 
nan

$$$$
CHEMBL4209840
     RDKit          3D

  0  0  0  0  0  0  0  0  0  0999 V3000
M  V30 BEGIN CTAB
M  V30 COUNTS 55 59 0 0 0
M  V30 BEGIN ATOM
M  V30 1 C 1.639004 1.458580 2.931205 0
M  V30 2 C 1.739348 -0.013555 2.705194 0
M  V30 3 N 2.982085 -0.512472 2.265434 0
M  V30 4 C 4.049701 -0.416240 3.199442 0
M  V30 5 C 5.224093 -0.965146 2.426508 0
M  V30 6 C 4.847842 -0.853054 0.971135 0
M  V30 7 C 3.512333 -0.093796 1.030081 0 CFG=1
M  V30 8 C 2.744819 -0.508333 -0.196930 0
M  V30 9 N 1.408048 -0.043576 -0.297618 0
M  V30 10 C 0.994428 1.315129 -0.350427 0
M  V30 11 O 1.914398 2.183394 -0.302397 0
M  V30 12 C -0.374768 1.801275 -0.453608 0
M  V30 13 C -0.558567 3.160692 -0.492391 0
M  V30 14 C -1.855991 3.678305 -0.591910 0
M  V30 15 N -2.941233 2.858406 -0.651011 0
M  V30 16 C -2.752874 1.508991 -0.612088 0
M  V30 17 C -3.949587 0.681014 -0.679311 0
M  V30 18 C -5.224656 1.172406 -0.778991 0
M  V30 19 N -6.081429 0.110032 -0.816918 0
M  V30 20 N -5.369291 -1.010961 -0.743515 0
M  V30 21 C -5.752064 -2.308848 -0.742969 0
M  V30 22 C -4.781472 -3.290602 -0.654212 0
M  V30 23 C -3.436852 -2.962850 -0.566836 0
M  V30 24 C -2.342030 -3.897270 -0.470325 0
M  V30 25 C -2.390407 -5.243182 -0.445503 0
M  V30 26 C -1.257868 -6.001093 -0.350010 0
M  V30 27 C -0.034492 -5.266771 -0.279447 0
M  V30 28 S -0.613620 -3.490354 -0.357451 0
M  V30 29 N -3.127333 -1.654648 -0.572677 0
M  V30 30 C -4.064370 -0.694408 -0.658638 0
M  V30 31 C -1.481646 0.983351 -0.514275 0
M  V30 32 H 2.386685 2.070609 2.400511 0
M  V30 33 H 0.630837 1.787547 2.548091 0
M  V30 34 H 1.599425 1.694361 4.020291 0
M  V30 35 H 1.505643 -0.525472 3.676123 0
M  V30 36 H 0.953563 -0.375552 2.006616 0
M  V30 37 H 3.879092 -0.959683 4.149202 0
M  V30 38 H 4.314403 0.627422 3.473814 0
M  V30 39 H 5.304409 -2.044118 2.737584 0
M  V30 40 H 6.151685 -0.398995 2.664625 0
M  V30 41 H 5.582963 -0.303144 0.353769 0
M  V30 42 H 4.593401 -1.863637 0.572748 0
M  V30 43 H 3.789318 0.981317 1.011596 0
M  V30 44 H 3.311294 -0.175474 -1.099711 0
M  V30 45 H 2.711598 -1.630631 -0.153926 0
M  V30 46 H 0.573927 -0.704213 -0.343245 0
M  V30 47 H 0.234994 3.891730 -0.451789 0
M  V30 48 H -1.999459 4.755967 -0.622680 0
M  V30 49 H -5.588146 2.209499 -0.826040 0
M  V30 50 H -6.762628 -2.637619 -0.806727 0
M  V30 51 H -4.968670 -4.367552 -0.644556 0
M  V30 52 H -3.362980 -5.758166 -0.503022 0
M  V30 53 H -1.195323 -7.078743 -0.323226 0
M  V30 54 H 0.989933 -5.752304 -0.197138 0
M  V30 55 H -1.356432 -0.068501 -0.485202 0
M  V30 END ATOM
M  V30 BEGIN BOND
M  V30 1 1 1 2
M  V30 2 1 2 3
M  V30 3 1 3 4
M  V30 4 1 4 5
M  V30 5 1 5 6
M  V30 6 1 6 7
M  V30 7 1 7 8
M  V30 8 1 8 9
M  V30 9 1 9 10
M  V30 10 2 10 11
M  V30 11 1 10 12
M  V30 12 2 12 13
M  V30 13 1 13 14
M  V30 14 2 14 15
M  V30 15 1 15 16
M  V30 16 1 16 17
M  V30 17 1 17 18
M  V30 18 2 18 19
M  V30 19 1 19 20
M  V30 20 1 20 21
M  V30 21 2 21 22
M  V30 22 1 22 23
M  V30 23 1 23 24
M  V30 24 2 24 25
M  V30 25 1 25 26
M  V30 26 2 26 27
M  V30 27 1 27 28
M  V30 28 2 23 29
M  V30 29 1 29 30
M  V30 30 2 16 31
M  V30 31 1 7 3
M  V30 32 1 31 12
M  V30 33 2 30 17
M  V30 34 1 30 20
M  V30 35 1 28 24
M  V30 36 1 1 32
M  V30 37 1 1 33
M  V30 38 1 1 34
M  V30 39 1 2 35
M  V30 40 1 2 36
M  V30 41 1 4 37
M  V30 42 1 4 38
M  V30 43 1 5 39
M  V30 44 1 5 40
M  V30 45 1 6 41
M  V30 46 1 6 42
M  V30 47 1 7 43 CFG=1
M  V30 48 1 8 44
M  V30 49 1 8 45
M  V30 50 1 9 46
M  V30 51 1 13 47
M  V30 52 1 14 48
M  V30 53 1 18 49
M  V30 54 1 21 50
M  V30 55 1 22 51
M  V30 56 1 25 52
M  V30 57 1 26 53
M  V30 58 1 27 54
M  V30 59 1 31 55
M  V30 END BOND
M  V30 END CTAB
M  END
>  <Dataset>  (692) 
ChEMBL_Kinases

>  <Ligand_Instance>  (692) 
nan

>  <PDB_ID>  (692) 
nan

>  <Standardized_SMILES>  (692) 
CCN1CCC[C@H]1CNC(=O)c1ccnc(-c2cnn3ccc(-c4cccs4)nc23)c1

>  <Name>  (692) 
nan

>  <Pocket>  (692) 
nan

>  <ATP_Site>  (692) 
nan

>  <Peripheral>  (692) 
nan

>  <Num_H_Atoms_ProtBoundConf>  (692) 
nan

>  <Num_Resolved_Atoms>  (692) 
nan

>  <Num_Not_Resolved_Atoms>  (692) 
nan

$$$$
CHEMBL4209835
     RDKit          3D

  0  0  0  0  0  0  0  0  0  0999 V3000
M  V30 BEGIN CTAB
M  V30 COUNTS 36 39 0 0 0
M  V30 BEGIN ATOM
M  V30 1 C 0.793033 -5.121282 3.759929 0
M  V30 2 C 1.116897 -3.712415 3.411933 0
M  V30 3 C 1.760847 -2.800166 4.211065 0
M  V30 4 C 2.087381 -1.495727 3.948494 0
M  V30 5 C 1.702375 -1.051640 2.687716 0
M  V30 6 C 1.053958 -1.940932 1.862300 0
M  V30 7 C 0.605335 -1.529799 0.514433 0
M  V30 8 N 0.901970 -0.296244 0.105890 0
M  V30 9 C 0.542863 0.212420 -1.092999 0
M  V30 10 N 0.791332 1.472893 -1.655616 0
M  V30 11 C 0.010408 2.519856 -1.114633 0
M  V30 12 C -0.918306 3.320787 -1.750235 0
M  V30 13 C -1.562918 4.314293 -1.050335 0
M  V30 14 N -1.345187 4.567284 0.250516 0
M  V30 15 C -0.436842 3.800078 0.920613 0
M  V30 16 C 0.217629 2.799609 0.229752 0
M  V30 17 F 1.090141 2.141646 1.039454 0
M  V30 18 C -0.171284 -0.692029 -1.860199 0
M  V30 19 N -0.691310 -0.531774 -3.116571 0
M  V30 20 C -1.314314 -1.652208 -3.510229 0
M  V30 21 N -1.211645 -2.568279 -2.512459 0
M  V30 22 C -0.522765 -1.981821 -1.525903 0
M  V30 23 N -0.089927 -2.332118 -0.303122 0
M  V30 24 N 0.752106 -3.237848 2.177606 0
M  V30 25 H 0.521346 -5.247508 4.803785 0
M  V30 26 H -0.083970 -5.433778 3.128567 0
M  V30 27 H 1.666160 -5.792682 3.555323 0
M  V30 28 H 2.033600 -3.231363 5.190910 0
M  V30 29 H 2.602307 -0.887575 4.681253 0
M  V30 30 H 1.919935 -0.039723 2.399312 0
M  V30 31 H 1.453228 1.780546 -2.406174 0
M  V30 32 H -1.066970 3.084619 -2.801603 0
M  V30 33 H -2.288547 4.924274 -1.576572 0
M  V30 34 H -0.315304 4.056907 1.953743 0
M  V30 35 H -1.850935 -1.975133 -4.393795 0
M  V30 36 H -1.538964 -3.570040 -2.367166 0
M  V30 END ATOM
M  V30 BEGIN BOND
M  V30 1 1 1 2
M  V30 2 2 2 3
M  V30 3 1 3 4
M  V30 4 2 4 5
M  V30 5 1 5 6
M  V30 6 1 6 7
M  V30 7 2 7 8
M  V30 8 1 8 9
M  V30 9 1 9 10
M  V30 10 1 10 11
M  V30 11 2 11 12
M  V30 12 1 12 13
M  V30 13 2 13 14
M  V30 14 1 14 15
M  V30 15 2 15 16
M  V30 16 1 16 17
M  V30 17 2 9 18
M  V30 18 1 18 19
M  V30 19 2 19 20
M  V30 20 1 20 21
M  V30 21 1 21 22
M  V30 22 2 22 23
M  V30 23 2 6 24
M  V30 24 1 24 2
M  V30 25 1 23 7
M  V30 26 1 16 11
M  V30 27 1 22 18
M  V30 28 1 1 25
M  V30 29 1 1 26
M  V30 30 1 1 27
M  V30 31 1 3 28
M  V30 32 1 4 29
M  V30 33 1 5 30
M  V30 34 1 10 31
M  V30 35 1 12 32
M  V30 36 1 13 33
M  V30 37 1 15 34
M  V30 38 1 20 35
M  V30 39 1 21 36
M  V30 END BOND
M  V30 END CTAB
M  END
>  <Dataset>  (693) 
ChEMBL_Kinases

>  <Ligand_Instance>  (693) 
nan

>  <PDB_ID>  (693) 
nan

>  <Standardized_SMILES>  (693) 
Cc1cccc(-c2nc(Nc3ccncc3F)c3nc[nH]c3n2)n1

>  <Name>  (693) 
nan

>  <Pocket>  (693) 
nan

>  <ATP_Site>  (693) 
nan

>  <Peripheral>  (693) 
nan

>  <Num_H_Atoms_ProtBoundConf>  (693) 
nan

>  <Num_Resolved_Atoms>  (693) 
nan

>  <Num_Not_Resolved_Atoms>  (693) 
nan

$$$$
CHEMBL4209816
     RDKit          3D

  0  0  0  0  0  0  0  0  0  0999 V3000
M  V30 BEGIN CTAB
M  V30 COUNTS 73 77 0 0 0
M  V30 BEGIN ATOM
M  V30 1 C 3.681856 -4.451925 1.869367 0
M  V30 2 C 3.539549 -4.728139 0.414958 0
M  V30 3 N 4.649294 -4.371190 -0.411569 0
M  V30 4 C 4.389829 -4.738919 -1.793836 0
M  V30 5 C 4.349517 -6.245122 -1.939644 0
M  V30 6 C 5.227446 -3.094423 -0.269228 0 CFG=1
M  V30 7 C 6.521462 -3.127266 -1.134863 0
M  V30 8 C 4.480941 -1.911609 -0.778706 0
M  V30 9 N 3.207992 -1.642215 -0.224922 0
M  V30 10 C 2.491486 -0.523544 -0.728038 0
M  V30 11 O 3.030083 0.184914 -1.649979 0
M  V30 12 C 1.170624 -0.127771 -0.258505 0
M  V30 13 C 0.468761 -0.780711 0.749910 0
M  V30 14 C -0.788039 -0.416599 1.186955 0
M  V30 15 C -1.409100 -1.189588 2.251679 0
M  V30 16 C -0.842786 -2.287539 2.910360 0
M  V30 17 N -1.728992 -2.723433 3.822752 0
M  V30 18 N -2.823985 -1.952050 3.768316 0
M  V30 19 C -3.923170 -2.083650 4.530971 0
M  V30 20 C -4.952371 -1.160868 4.302847 0
M  V30 21 C -4.763245 -0.205844 3.331567 0
M  V30 22 C -5.795993 0.741581 3.088388 0
M  V30 23 C -5.977691 1.806271 2.225976 0
M  V30 24 C -7.130865 2.540584 2.248134 0
M  V30 25 C -8.154090 2.157334 3.211594 0
M  V30 26 S -7.352190 0.676743 4.081990 0
M  V30 27 N -3.645484 -0.113794 2.593422 0
M  V30 28 C -2.652945 -1.001026 2.810815 0
M  V30 29 N -1.364970 0.636317 0.596950 0
M  V30 30 C -0.734190 1.326920 -0.400854 0
M  V30 31 N -1.438100 2.420122 -0.966609 0
M  V30 32 C -0.941271 3.315618 -1.989954 0
M  V30 33 C -1.719079 3.137780 -3.286013 0
M  V30 34 C -3.154203 3.457785 -3.014751 0
M  V30 35 O -3.399685 4.837651 -3.005781 0
M  V30 36 C -3.711184 2.803295 -1.795359 0
M  V30 37 C -2.774618 2.792027 -0.606347 0
M  V30 38 C 0.516163 0.945277 -0.818233 0
M  V30 39 H 2.819472 -3.791127 2.181901 0
M  V30 40 H 4.583059 -3.914705 2.184526 0
M  V30 41 H 3.508315 -5.383769 2.455197 0
M  V30 42 H 2.539566 -4.418951 -0.008811 0
M  V30 43 H 3.466904 -5.865103 0.318865 0
M  V30 44 H 5.216702 -4.387709 -2.426466 0
M  V30 45 H 3.436350 -4.337674 -2.179989 0
M  V30 46 H 4.690411 -6.794221 -1.044248 0
M  V30 47 H 3.304258 -6.602065 -2.161079 0
M  V30 48 H 4.970602 -6.616833 -2.792021 0
M  V30 49 H 5.611263 -2.957952 0.750492 0
M  V30 50 H 6.326561 -2.704116 -2.141145 0
M  V30 51 H 6.864943 -4.166958 -1.272448 0
M  V30 52 H 7.301396 -2.475320 -0.659329 0
M  V30 53 H 5.123244 -1.011181 -0.532951 0
M  V30 54 H 4.492142 -1.939177 -1.889535 0
M  V30 55 H 2.700024 -2.131138 0.505443 0
M  V30 56 H 0.923184 -1.631654 1.231847 0
M  V30 57 H 0.131556 -2.736343 2.744624 0
M  V30 58 H -4.008646 -2.860025 5.278616 0
M  V30 59 H -5.821351 -1.284819 4.923892 0
M  V30 60 H -5.190877 2.047127 1.531041 0
M  V30 61 H -7.362033 3.381973 1.620410 0
M  V30 62 H -9.086197 2.597146 3.367202 0
M  V30 63 H -1.109276 4.367145 -1.676194 0
M  V30 64 H 0.161044 3.239816 -2.146287 0
M  V30 65 H -1.310614 3.865855 -4.012686 0
M  V30 66 H -1.626360 2.116892 -3.692658 0
M  V30 67 H -3.749075 3.077816 -3.896090 0
M  V30 68 H -2.574705 5.264926 -3.344165 0
M  V30 69 H -4.596107 3.411056 -1.463159 0
M  V30 70 H -4.101801 1.816487 -2.065639 0
M  V30 71 H -3.215484 2.102884 0.148620 0
M  V30 72 H -2.747003 3.833883 -0.195872 0
M  V30 73 H 1.022511 1.479220 -1.602535 0
M  V30 END ATOM
M  V30 BEGIN BOND
M  V30 1 1 1 2
M  V30 2 1 2 3
M  V30 3 1 3 4
M  V30 4 1 4 5
M  V30 5 1 3 6
M  V30 6 1 6 7
M  V30 7 1 6 8
M  V30 8 1 8 9
M  V30 9 1 9 10
M  V30 10 2 10 11
M  V30 11 1 10 12
M  V30 12 2 12 13
M  V30 13 1 13 14
M  V30 14 1 14 15
M  V30 15 1 15 16
M  V30 16 2 16 17
M  V30 17 1 17 18
M  V30 18 1 18 19
M  V30 19 2 19 20
M  V30 20 1 20 21
M  V30 21 1 21 22
M  V30 22 2 22 23
M  V30 23 1 23 24
M  V30 24 2 24 25
M  V30 25 1 25 26
M  V30 26 2 21 27
M  V30 27 1 27 28
M  V30 28 2 14 29
M  V30 29 1 29 30
M  V30 30 1 30 31
M  V30 31 1 31 32
M  V30 32 1 32 33
M  V30 33 1 33 34
M  V30 34 1 34 35
M  V30 35 1 34 36
M  V30 36 1 36 37
M  V30 37 2 30 38
M  V30 38 1 38 12
M  V30 39 2 28 15
M  V30 40 1 37 31
M  V30 41 1 28 18
M  V30 42 1 26 22
M  V30 43 1 1 39
M  V30 44 1 1 40
M  V30 45 1 1 41
M  V30 46 1 2 42
M  V30 47 1 2 43
M  V30 48 1 4 44
M  V30 49 1 4 45
M  V30 50 1 5 46
M  V30 51 1 5 47
M  V30 52 1 5 48
M  V30 53 1 6 49 CFG=1
M  V30 54 1 7 50
M  V30 55 1 7 51
M  V30 56 1 7 52
M  V30 57 1 8 53
M  V30 58 1 8 54
M  V30 59 1 9 55
M  V30 60 1 13 56
M  V30 61 1 16 57
M  V30 62 1 19 58
M  V30 63 1 20 59
M  V30 64 1 23 60
M  V30 65 1 24 61
M  V30 66 1 25 62
M  V30 67 1 32 63
M  V30 68 1 32 64
M  V30 69 1 33 65
M  V30 70 1 33 66
M  V30 71 1 34 67
M  V30 72 1 35 68
M  V30 73 1 36 69
M  V30 74 1 36 70
M  V30 75 1 37 71
M  V30 76 1 37 72
M  V30 77 1 38 73
M  V30 END BOND
M  V30 END CTAB
M  END
>  <Dataset>  (694) 
ChEMBL_Kinases

>  <Ligand_Instance>  (694) 
nan

>  <PDB_ID>  (694) 
nan

>  <Standardized_SMILES>  (694) 
CCN(CC)[C@@H](C)CNC(=O)c1cc(-c2cnn3ccc(-c4cccs4)nc23)nc(N2CCC(O)CC2)c1

>  <Name>  (694) 
nan

>  <Pocket>  (694) 
nan

>  <ATP_Site>  (694) 
nan

>  <Peripheral>  (694) 
nan

>  <Num_H_Atoms_ProtBoundConf>  (694) 
nan

>  <Num_Resolved_Atoms>  (694) 
nan

>  <Num_Not_Resolved_Atoms>  (694) 
nan

$$$$
CHEMBL4781618
     RDKit          3D

  0  0  0  0  0  0  0  0  0  0999 V3000
M  V30 BEGIN CTAB
M  V30 COUNTS 62 67 0 0 0
M  V30 BEGIN ATOM
M  V30 1 C 2.199141 -0.459589 6.503331 0
M  V30 2 N 2.422102 -1.173752 5.281003 0
M  V30 3 C 3.793352 -0.968694 4.824099 0
M  V30 4 C 3.787015 0.252690 3.975951 0
M  V30 5 C 2.974443 0.520251 2.970653 0
M  V30 6 C 2.980421 1.707656 2.157428 0
M  V30 7 C 4.009004 2.601224 2.264766 0
M  V30 8 O 5.132221 2.534299 3.061159 0
M  V30 9 C 4.062532 3.768522 1.537423 0
M  V30 10 C 3.077342 4.125414 0.640973 0
M  V30 11 O 3.082653 5.287879 -0.116546 0
M  V30 12 C 2.031517 3.196803 0.545387 0
M  V30 13 C 1.018526 3.539057 -0.356226 0
M  V30 14 O 1.091040 4.614565 -1.012781 0
M  V30 15 C -0.032645 2.654218 -0.478946 0
M  V30 16 C -0.050288 1.485823 0.275355 0
M  V30 17 C -1.200737 0.616223 0.081754 0
M  V30 18 C -1.459218 -0.531594 0.763488 0
M  V30 19 C -2.530853 -1.381233 0.593214 0
M  V30 20 C -3.466227 -1.062137 -0.368006 0
M  V30 21 S -4.875848 -2.116962 -0.639996 0
M  V30 22 C -4.470754 -3.345526 -1.874589 0
M  V30 23 N -3.934796 -4.499558 -1.386541 0
M  V30 24 C -3.682879 -5.322029 -2.417033 0
M  V30 25 C -3.158202 -6.587417 -2.549647 0
M  V30 26 C -3.015538 -7.199106 -3.789732 0
M  V30 27 C -3.424493 -6.480938 -4.892721 0
M  V30 28 C -3.961475 -5.203106 -4.834572 0
M  V30 29 C -4.069916 -4.667096 -3.572243 0
M  V30 30 N -4.546847 -3.462940 -3.209184 0
M  V30 31 C -5.084219 -2.360303 -3.942776 0
M  V30 32 C -3.275612 0.086991 -1.102316 0
M  V30 33 C -2.172249 0.873024 -0.859290 0
M  V30 34 O 0.927781 1.235277 1.092570 0
M  V30 35 C 1.960779 2.005775 1.277752 0
M  V30 36 C 2.143488 -0.703412 2.895686 0
M  V30 37 C 1.476271 -0.846278 4.246424 0
M  V30 38 H 2.674481 0.533712 6.553180 0
M  V30 39 H 2.580797 -1.037976 7.371944 0
M  V30 40 H 1.105990 -0.315480 6.687123 0
M  V30 41 H 4.088450 -1.851797 4.231866 0
M  V30 42 H 4.435941 -0.855787 5.728556 0
M  V30 43 H 4.552278 0.941742 4.294821 0
M  V30 44 H 6.013156 2.166982 2.713147 0
M  V30 45 H 4.857905 4.531102 1.573510 0
M  V30 46 H 3.409238 5.161191 -1.086228 0
M  V30 47 H -0.755222 3.018491 -1.198519 0
M  V30 48 H -0.794541 -0.866677 1.541885 0
M  V30 49 H -2.687983 -2.278746 1.160378 0
M  V30 50 H -2.843245 -7.128098 -1.644376 0
M  V30 51 H -2.600699 -8.197877 -3.886825 0
M  V30 52 H -3.319665 -6.944076 -5.865407 0
M  V30 53 H -4.278026 -4.651284 -5.706642 0
M  V30 54 H -4.446259 -1.440427 -3.897605 0
M  V30 55 H -6.069423 -2.050392 -3.539393 0
M  V30 56 H -5.164964 -2.604919 -5.019775 0
M  V30 57 H -4.030396 0.297785 -1.842067 0
M  V30 58 H -2.153389 1.733471 -1.507623 0
M  V30 59 H 1.409090 -0.662791 2.086032 0
M  V30 60 H 2.788888 -1.629203 2.727801 0
M  V30 61 H 1.023535 0.143316 4.462766 0
M  V30 62 H 0.646050 -1.568524 4.159885 0
M  V30 END ATOM
M  V30 BEGIN BOND
M  V30 1 1 1 2
M  V30 2 1 2 3
M  V30 3 1 3 4
M  V30 4 2 4 5
M  V30 5 1 5 6
M  V30 6 2 6 7
M  V30 7 1 7 8
M  V30 8 1 7 9
M  V30 9 2 9 10
M  V30 10 1 10 11
M  V30 11 1 10 12
M  V30 12 1 12 13
M  V30 13 2 13 14
M  V30 14 1 13 15
M  V30 15 2 15 16
M  V30 16 1 16 17
M  V30 17 2 17 18
M  V30 18 1 18 19
M  V30 19 2 19 20
M  V30 20 1 20 21
M  V30 21 1 21 22
M  V30 22 2 22 23
M  V30 23 1 23 24
M  V30 24 2 24 25
M  V30 25 1 25 26
M  V30 26 2 26 27
M  V30 27 1 27 28
M  V30 28 2 28 29
M  V30 29 1 29 30
M  V30 30 1 30 31
M  V30 31 1 20 32
M  V30 32 2 32 33
M  V30 33 1 16 34
M  V30 34 1 34 35
M  V30 35 1 5 36
M  V30 36 1 36 37
M  V30 37 1 37 2
M  V30 38 1 35 6
M  V30 39 2 35 12
M  V30 40 1 33 17
M  V30 41 1 30 22
M  V30 42 1 29 24
M  V30 43 1 1 38
M  V30 44 1 1 39
M  V30 45 1 1 40
M  V30 46 1 3 41
M  V30 47 1 3 42
M  V30 48 1 4 43
M  V30 49 1 8 44
M  V30 50 1 9 45
M  V30 51 1 11 46
M  V30 52 1 15 47
M  V30 53 1 18 48
M  V30 54 1 19 49
M  V30 55 1 25 50
M  V30 56 1 26 51
M  V30 57 1 27 52
M  V30 58 1 28 53
M  V30 59 1 31 54
M  V30 60 1 31 55
M  V30 61 1 31 56
M  V30 62 1 32 57
M  V30 63 1 33 58
M  V30 64 1 36 59
M  V30 65 1 36 60
M  V30 66 1 37 61
M  V30 67 1 37 62
M  V30 END BOND
M  V30 END CTAB
M  END
>  <Dataset>  (695) 
ChEMBL_Kinases

>  <Ligand_Instance>  (695) 
nan

>  <PDB_ID>  (695) 
nan

>  <Standardized_SMILES>  (695) 
CN1CC=C(c2c(O)cc(O)c3c(=O)cc(-c4ccc(Sc5nc6ccccc6n5C)cc4)oc23)CC1

>  <Name>  (695) 
nan

>  <Pocket>  (695) 
nan

>  <ATP_Site>  (695) 
nan

>  <Peripheral>  (695) 
nan

>  <Num_H_Atoms_ProtBoundConf>  (695) 
nan

>  <Num_Resolved_Atoms>  (695) 
nan

>  <Num_Not_Resolved_Atoms>  (695) 
nan

$$$$
CHEMBL4209789
     RDKit          3D

  0  0  0  0  0  0  0  0  0  0999 V3000
M  V30 BEGIN CTAB
M  V30 COUNTS 57 60 0 0 0
M  V30 BEGIN ATOM
M  V30 1 C 0.614831 1.024009 2.313762 0
M  V30 2 C 2.013779 0.711136 1.828114 0
M  V30 3 N 2.027352 -0.622940 1.272395 0
M  V30 4 C 1.813125 -1.637944 2.277984 0
M  V30 5 C 2.949802 -1.744212 3.261415 0
M  V30 6 C 3.211293 -0.875177 0.482480 0
M  V30 7 C 3.310282 -0.124709 -0.798162 0
M  V30 8 N 2.253438 -0.408704 -1.750111 0
M  V30 9 C 2.524711 -1.532336 -2.651213 0
M  V30 10 C 0.939441 0.074415 -2.109182 0
M  V30 11 O 0.168473 -0.353283 -3.044847 0
M  V30 12 C 0.179762 1.179900 -1.473778 0
M  V30 13 C 0.589795 2.491352 -1.423027 0
M  V30 14 C -0.257204 3.364876 -0.793957 0
M  V30 15 N -1.411349 3.007681 -0.253710 0
M  V30 16 C -1.860820 1.715081 -0.278630 0
M  V30 17 C -3.194240 1.343841 0.320897 0
M  V30 18 C -4.330964 2.070181 0.842089 0
M  V30 19 N -5.001541 1.011287 1.193462 0
M  V30 20 N -4.549413 -0.170120 1.011121 0
M  V30 21 C -5.202173 -1.292104 1.357747 0
M  V30 22 C -4.599232 -2.499960 1.109175 0
M  V30 23 C -3.362544 -2.438291 0.519900 0
M  V30 24 C -2.492278 -3.597030 0.155504 0
M  V30 25 C -2.893991 -4.913648 0.418203 0
M  V30 26 C -1.766050 -5.354801 -0.100120 0
M  V30 27 C -0.608774 -5.386964 -0.653964 0
M  V30 28 S -0.873876 -3.526145 -0.628672 0
M  V30 29 N -2.813699 -1.268765 0.219724 0
M  V30 30 C -3.355326 -0.058334 0.438397 0
M  V30 31 C -1.015974 0.859179 -0.903281 0
M  V30 32 H 0.393041 2.116756 2.146290 0
M  V30 33 H 0.493841 0.795965 3.389721 0
M  V30 34 H -0.135688 0.414297 1.782222 0
M  V30 35 H 2.789940 0.893556 2.566145 0
M  V30 36 H 2.186377 1.414095 0.967572 0
M  V30 37 H 1.687144 -2.615869 1.785501 0
M  V30 38 H 0.827016 -1.392936 2.770695 0
M  V30 39 H 2.565888 -1.844846 4.310416 0
M  V30 40 H 3.610275 -0.855494 3.289188 0
M  V30 41 H 3.596918 -2.631745 3.086430 0
M  V30 42 H 4.081390 -0.744606 1.140193 0
M  V30 43 H 3.176155 -1.967762 0.226693 0
M  V30 44 H 4.266379 -0.411178 -1.274270 0
M  V30 45 H 3.405529 0.979458 -0.650414 0
M  V30 46 H 1.784648 -2.356734 -2.434163 0
M  V30 47 H 2.408412 -1.237659 -3.715893 0
M  V30 48 H 3.544557 -1.935576 -2.558780 0
M  V30 49 H 1.532567 2.745134 -1.884449 0
M  V30 50 H 0.028199 4.398764 -0.736167 0
M  V30 51 H -3.760236 2.965501 0.543192 0
M  V30 52 H -6.177096 -1.324746 1.814128 0
M  V30 53 H -4.938860 -3.483726 1.294921 0
M  V30 54 H -3.725382 -5.362860 0.847725 0
M  V30 55 H -1.685209 -6.519806 -0.065337 0
M  V30 56 H 0.396791 -5.427662 -1.134450 0
M  V30 57 H -1.297219 -0.171543 -0.975732 0
M  V30 END ATOM
M  V30 BEGIN BOND
M  V30 1 1 1 2
M  V30 2 1 2 3
M  V30 3 1 3 4
M  V30 4 1 4 5
M  V30 5 1 3 6
M  V30 6 1 6 7
M  V30 7 1 7 8
M  V30 8 1 8 9
M  V30 9 1 8 10
M  V30 10 2 10 11
M  V30 11 1 10 12
M  V30 12 2 12 13
M  V30 13 1 13 14
M  V30 14 2 14 15
M  V30 15 1 15 16
M  V30 16 1 16 17
M  V30 17 1 17 18
M  V30 18 2 18 19
M  V30 19 1 19 20
M  V30 20 1 20 21
M  V30 21 2 21 22
M  V30 22 1 22 23
M  V30 23 1 23 24
M  V30 24 2 24 25
M  V30 25 1 25 26
M  V30 26 2 26 27
M  V30 27 1 27 28
M  V30 28 2 23 29
M  V30 29 1 29 30
M  V30 30 2 16 31
M  V30 31 1 31 12
M  V30 32 2 30 17
M  V30 33 1 30 20
M  V30 34 1 28 24
M  V30 35 1 1 32
M  V30 36 1 1 33
M  V30 37 1 1 34
M  V30 38 1 2 35
M  V30 39 1 2 36
M  V30 40 1 4 37
M  V30 41 1 4 38
M  V30 42 1 5 39
M  V30 43 1 5 40
M  V30 44 1 5 41
M  V30 45 1 6 42
M  V30 46 1 6 43
M  V30 47 1 7 44
M  V30 48 1 7 45
M  V30 49 1 9 46
M  V30 50 1 9 47
M  V30 51 1 9 48
M  V30 52 1 13 49
M  V30 53 1 14 50
M  V30 54 1 18 51
M  V30 55 1 21 52
M  V30 56 1 22 53
M  V30 57 1 25 54
M  V30 58 1 26 55
M  V30 59 1 27 56
M  V30 60 1 31 57
M  V30 END BOND
M  V30 END CTAB
M  END
>  <Dataset>  (696) 
ChEMBL_Kinases

>  <Ligand_Instance>  (696) 
nan

>  <PDB_ID>  (696) 
nan

>  <Standardized_SMILES>  (696) 
CCN(CC)CCN(C)C(=O)c1ccnc(-c2cnn3ccc(-c4cccs4)nc23)c1

>  <Name>  (696) 
nan

>  <Pocket>  (696) 
nan

>  <ATP_Site>  (696) 
nan

>  <Peripheral>  (696) 
nan

>  <Num_H_Atoms_ProtBoundConf>  (696) 
nan

>  <Num_Resolved_Atoms>  (696) 
nan

>  <Num_Not_Resolved_Atoms>  (696) 
nan

$$$$
CHEMBL4781621
     RDKit          3D

  0  0  0  0  0  0  0  0  0  0999 V3000
M  V30 BEGIN CTAB
M  V30 COUNTS 42 46 0 0 0
M  V30 BEGIN ATOM
M  V30 1 C 0.325521 -2.263725 4.943855 0
M  V30 2 C 0.946703 -1.285267 4.038803 0
M  V30 3 N 1.978461 -0.484021 4.437721 0
M  V30 4 C 2.303107 0.279949 3.381628 0
M  V30 5 C 3.235565 1.267268 3.134616 0
M  V30 6 C 3.322876 1.883703 1.901932 0
M  V30 7 C 2.474913 1.527826 0.875476 0
M  V30 8 C 2.490063 2.118922 -0.455770 0
M  V30 9 C 1.594442 1.670739 -1.372783 0
M  V30 10 C 1.489546 2.131113 -2.663867 0
M  V30 11 N 2.363740 3.108568 -3.015089 0
M  V30 12 C 3.261376 3.573844 -2.133134 0
M  V30 13 C 3.361040 3.102102 -0.827211 0
M  V30 14 N 1.576369 0.562963 1.144533 0
M  V30 15 C 1.455305 -0.062887 2.325396 0
M  V30 16 N 0.606402 -1.046949 2.747010 0
M  V30 17 C -0.390476 -1.653611 1.974856 0
M  V30 18 C -1.598939 -2.112502 2.474027 0
M  V30 19 C -2.589314 -2.713916 1.713489 0
M  V30 20 C -2.344828 -2.862000 0.361969 0
M  V30 21 C -1.156054 -2.424732 -0.202483 0
M  V30 22 C -0.218027 -1.835934 0.617381 0
M  V30 23 O -0.858360 -2.547866 -1.551292 0
M  V30 24 C -1.767321 -3.055795 -2.510129 0
M  V30 25 C -2.982121 -3.581764 -1.855042 0
M  V30 26 O -3.736832 -4.171098 -2.668788 0
M  V30 27 N -3.327679 -3.474861 -0.476126 0
M  V30 28 H 1.052863 -2.593668 5.741823 0
M  V30 29 H -0.513252 -1.825022 5.545921 0
M  V30 30 H 0.045827 -3.227683 4.453236 0
M  V30 31 H 3.905760 1.552450 3.936832 0
M  V30 32 H 4.054045 2.654713 1.715567 0
M  V30 33 H 0.872327 0.882738 -1.127438 0
M  V30 34 H 0.750138 1.740153 -3.372567 0
M  V30 35 H 3.923517 4.351334 -2.484878 0
M  V30 36 H 4.078402 3.484865 -0.147619 0
M  V30 37 H -1.802726 -2.002816 3.529196 0
M  V30 38 H -3.504611 -3.051588 2.142949 0
M  V30 39 H 0.710559 -1.492407 0.186583 0
M  V30 40 H -2.071120 -2.251746 -3.231929 0
M  V30 41 H -1.210844 -3.838138 -3.077833 0
M  V30 42 H -4.241474 -3.825799 -0.119104 0
M  V30 END ATOM
M  V30 BEGIN BOND
M  V30 1 1 1 2
M  V30 2 2 2 3
M  V30 3 1 3 4
M  V30 4 2 4 5
M  V30 5 1 5 6
M  V30 6 2 6 7
M  V30 7 1 7 8
M  V30 8 2 8 9
M  V30 9 1 9 10
M  V30 10 2 10 11
M  V30 11 1 11 12
M  V30 12 2 12 13
M  V30 13 1 7 14
M  V30 14 2 14 15
M  V30 15 1 15 16
M  V30 16 1 16 17
M  V30 17 2 17 18
M  V30 18 1 18 19
M  V30 19 2 19 20
M  V30 20 1 20 21
M  V30 21 2 21 22
M  V30 22 1 21 23
M  V30 23 1 23 24
M  V30 24 1 24 25
M  V30 25 2 25 26
M  V30 26 1 25 27
M  V30 27 1 16 2
M  V30 28 1 22 17
M  V30 29 1 15 4
M  V30 30 1 27 20
M  V30 31 1 13 8
M  V30 32 1 1 28
M  V30 33 1 1 29
M  V30 34 1 1 30
M  V30 35 1 5 31
M  V30 36 1 6 32
M  V30 37 1 9 33
M  V30 38 1 10 34
M  V30 39 1 12 35
M  V30 40 1 13 36
M  V30 41 1 18 37
M  V30 42 1 19 38
M  V30 43 1 22 39
M  V30 44 1 24 40
M  V30 45 1 24 41
M  V30 46 1 27 42
M  V30 END BOND
M  V30 END CTAB
M  END
>  <Dataset>  (697) 
ChEMBL_Kinases

>  <Ligand_Instance>  (697) 
nan

>  <PDB_ID>  (697) 
nan

>  <Standardized_SMILES>  (697) 
Cc1nc2ccc(-c3ccncc3)nc2n1-c1ccc2c(c1)OCC(=O)N2

>  <Name>  (697) 
nan

>  <Pocket>  (697) 
nan

>  <ATP_Site>  (697) 
nan

>  <Peripheral>  (697) 
nan

>  <Num_H_Atoms_ProtBoundConf>  (697) 
nan

>  <Num_Resolved_Atoms>  (697) 
nan

>  <Num_Not_Resolved_Atoms>  (697) 
nan

$$$$
CHEMBL4209726
     RDKit          3D

  0  0  0  0  0  0  0  0  0  0999 V3000
M  V30 BEGIN CTAB
M  V30 COUNTS 56 60 0 0 0
M  V30 BEGIN ATOM
M  V30 1 O 1.136050 -1.159113 1.636169 0
M  V30 2 C 2.133672 -1.843008 1.980763 0
M  V30 3 C 3.488431 -1.522389 1.404510 0
M  V30 4 S 3.368873 -0.117807 0.262967 0
M  V30 5 C 2.383765 -0.632278 -1.156723 0
M  V30 6 N 1.922486 -1.876462 -1.159554 0
M  V30 7 C 1.178284 -2.364648 -2.195549 0
M  V30 8 C 0.953218 -1.467357 -3.218576 0
M  V30 9 C 1.463613 -0.194160 -3.144916 0
M  V30 10 O 1.150564 0.475762 -4.177179 0
M  V30 11 N 2.195739 0.283024 -2.122766 0
M  V30 12 C 2.674426 1.626700 -2.165187 0
M  V30 13 C 1.772919 2.646853 -1.601426 0
M  V30 14 C 1.728839 3.099902 -0.302432 0
M  V30 15 C 0.871208 4.058407 0.189088 0
M  V30 16 C -0.039343 4.639552 -0.666879 0
M  V30 17 O -0.891485 5.592865 -0.175215 0
M  V30 18 C -2.143123 5.153539 0.345881 0
M  V30 19 F -1.929693 4.285416 1.393813 0
M  V30 20 F -2.951879 4.601030 -0.630995 0
M  V30 21 F -2.869189 6.238196 0.843497 0
M  V30 22 C -0.051876 4.233875 -1.984605 0
M  V30 23 C 0.831075 3.269014 -2.421241 0
M  V30 24 S -0.032502 -2.424054 -4.384305 0
M  V30 25 C 0.495356 -4.075872 -3.767884 0
M  V30 26 C 0.620826 -3.727753 -2.293045 0
M  V30 27 N 2.066632 -2.923173 2.899333 0
M  V30 28 C 0.626995 -3.033303 3.321098 0
M  V30 29 N -0.205079 -3.682891 2.798965 0
M  V30 30 C -1.471275 -3.804062 3.138363 0
M  V30 31 C -2.512421 -4.537860 2.587535 0
M  V30 32 C -3.765540 -4.499344 3.129988 0
M  V30 33 C -4.114773 -3.754868 4.240836 0
M  V30 34 C -5.442140 -3.656896 4.889803 0
M  V30 35 F -5.542093 -4.484808 5.991769 0
M  V30 36 F -6.438486 -3.936376 3.967916 0
M  V30 37 F -5.657959 -2.343993 5.328174 0
M  V30 38 C -3.150002 -2.994097 4.857236 0
M  V30 39 C -1.865526 -3.070024 4.253384 0
M  V30 40 S -0.247330 -2.216238 4.733571 0
M  V30 41 H 3.895359 -2.433411 0.922180 0
M  V30 42 H 4.115698 -1.179398 2.265334 0
M  V30 43 H 2.946899 1.914945 -3.208314 0
M  V30 44 H 3.647911 1.725834 -1.603891 0
M  V30 45 H 2.425920 2.677239 0.402678 0
M  V30 46 H 0.901358 4.356683 1.220193 0
M  V30 47 H -0.781591 4.723080 -2.596974 0
M  V30 48 H 0.703764 3.060486 -3.472504 0
M  V30 49 H -0.268987 -4.827899 -3.951167 0
M  V30 50 H 1.513532 -4.323306 -4.145528 0
M  V30 51 H -0.333915 -3.858318 -1.742945 0
M  V30 52 H 1.348749 -4.457706 -1.887058 0
M  V30 53 H 2.894325 -3.465609 3.163265 0
M  V30 54 H -2.352007 -5.156312 1.715532 0
M  V30 55 H -4.599112 -5.080111 2.697544 0
M  V30 56 H -3.175657 -2.343360 5.718318 0
M  V30 END ATOM
M  V30 BEGIN BOND
M  V30 1 2 1 2
M  V30 2 1 2 3
M  V30 3 1 3 4
M  V30 4 1 4 5
M  V30 5 2 5 6
M  V30 6 1 6 7
M  V30 7 2 7 8
M  V30 8 1 8 9
M  V30 9 2 9 10
M  V30 10 1 9 11
M  V30 11 1 11 12
M  V30 12 1 12 13
M  V30 13 2 13 14
M  V30 14 1 14 15
M  V30 15 2 15 16
M  V30 16 1 16 17
M  V30 17 1 17 18
M  V30 18 1 18 19
M  V30 19 1 18 20
M  V30 20 1 18 21
M  V30 21 1 16 22
M  V30 22 2 22 23
M  V30 23 1 8 24
M  V30 24 1 24 25
M  V30 25 1 25 26
M  V30 26 1 2 27
M  V30 27 1 27 28
M  V30 28 2 28 29
M  V30 29 1 29 30
M  V30 30 2 30 31
M  V30 31 1 31 32
M  V30 32 2 32 33
M  V30 33 1 33 34
M  V30 34 1 34 35
M  V30 35 1 34 36
M  V30 36 1 34 37
M  V30 37 1 33 38
M  V30 38 2 38 39
M  V30 39 1 39 40
M  V30 40 1 11 5
M  V30 41 1 23 13
M  V30 42 1 40 28
M  V30 43 1 26 7
M  V30 44 1 39 30
M  V30 45 1 3 41
M  V30 46 1 3 42
M  V30 47 1 12 43
M  V30 48 1 12 44
M  V30 49 1 14 45
M  V30 50 1 15 46
M  V30 51 1 22 47
M  V30 52 1 23 48
M  V30 53 1 25 49
M  V30 54 1 25 50
M  V30 55 1 26 51
M  V30 56 1 26 52
M  V30 57 1 27 53
M  V30 58 1 31 54
M  V30 59 1 32 55
M  V30 60 1 38 56
M  V30 END BOND
M  V30 END CTAB
M  END
>  <Dataset>  (698) 
ChEMBL_Kinases

>  <Ligand_Instance>  (698) 
nan

>  <PDB_ID>  (698) 
nan

>  <Standardized_SMILES>  (698) 
O=C(CSc1nc2c(c(=O)n1Cc1ccc(OC(F)(F)F)cc1)SCC2)Nc1nc2ccc(C(F)(F)F)cc2s1

>  <Name>  (698) 
nan

>  <Pocket>  (698) 
nan

>  <ATP_Site>  (698) 
nan

>  <Peripheral>  (698) 
nan

>  <Num_H_Atoms_ProtBoundConf>  (698) 
nan

>  <Num_Resolved_Atoms>  (698) 
nan

>  <Num_Not_Resolved_Atoms>  (698) 
nan

$$$$
CHEMBL4209691
     RDKit          3D

  0  0  0  0  0  0  0  0  0  0999 V3000
M  V30 BEGIN CTAB
M  V30 COUNTS 68 72 0 0 0
M  V30 BEGIN ATOM
M  V30 1 C 5.787301 -1.199887 0.926097 0
M  V30 2 C 4.643604 -0.309996 0.574014 0 CFG=2
M  V30 3 C 4.438004 0.654086 1.698708 0
M  V30 4 O 5.498043 1.154911 2.159132 0
M  V30 5 N 3.228691 1.058126 2.286644 0
M  V30 6 C 3.069049 1.994120 3.378718 0 CFG=2
M  V30 7 C 2.345253 1.415197 4.555633 0
M  V30 8 O 3.087479 0.315982 5.020958 0
M  V30 9 C 2.306714 3.208580 2.916951 0
M  V30 10 C 2.810620 3.639635 1.689298 0
M  V30 11 C 2.243246 4.760539 1.077059 0
M  V30 12 C 1.198712 5.380087 1.743107 0
M  V30 13 C 0.697283 4.956335 2.958561 0
M  V30 14 C 1.271964 3.840792 3.554157 0
M  V30 15 N 3.441757 -1.045545 0.234961 0
M  V30 16 C 2.685877 -2.059337 0.911295 0
M  V30 17 C 1.559431 -2.374416 0.011605 0
M  V30 18 C 0.552028 -3.303185 0.287206 0
M  V30 19 C -0.415610 -3.452296 -0.713954 0
M  V30 20 C -0.402646 -2.745353 -1.901567 0
M  V30 21 C -1.461219 -2.962164 -2.899183 0
M  V30 22 N -2.681526 -2.989639 -2.311945 0
M  V30 23 C -3.795315 -3.177217 -3.043005 0
M  V30 24 N -5.091884 -3.205308 -2.407051 0
M  V30 25 C -5.156907 -3.025483 -0.974718 0
M  V30 26 C -6.594232 -3.090939 -0.480969 0
M  V30 27 C -6.599846 -3.094750 1.040116 0
M  V30 28 O -5.478474 -2.417653 1.520821 0
M  V30 29 C -5.209193 -1.276954 0.776331 0
M  V30 30 C -4.662797 -1.636381 -0.572731 0
M  V30 31 N -3.691777 -3.340135 -4.380100 0
M  V30 32 C -2.485125 -3.317200 -4.995262 0
M  V30 33 C -1.327780 -3.125806 -4.263542 0
M  V30 34 Cl 0.299330 -3.065110 -4.856798 0
M  V30 35 C 0.620392 -1.840672 -2.115211 0
M  V30 36 C 1.602758 -1.651184 -1.163634 0
M  V30 37 C 2.801714 -0.797556 -1.035872 0
M  V30 38 O 3.075224 -0.020513 -2.001747 0
M  V30 39 H 5.818863 -2.144584 0.345892 0
M  V30 40 H 5.783163 -1.410756 2.022013 0
M  V30 41 H 6.737470 -0.647246 0.722139 0
M  V30 42 H 4.907541 0.358240 -0.292349 0
M  V30 43 H 2.358445 0.654143 1.897772 0
M  V30 44 H 4.061898 2.349198 3.728975 0
M  V30 45 H 2.339761 2.150342 5.365087 0
M  V30 46 H 1.324784 1.038937 4.278668 0
M  V30 47 H 2.516938 -0.467847 5.220767 0
M  V30 48 H 3.614475 3.210573 1.121561 0
M  V30 49 H 2.602254 5.132998 0.120614 0
M  V30 50 H 0.701994 6.255899 1.338470 0
M  V30 51 H -0.112879 5.431933 3.485047 0
M  V30 52 H 0.986818 3.398343 4.493640 0
M  V30 53 H 2.395528 -1.691905 1.908376 0
M  V30 54 H 3.292607 -2.977521 1.112288 0
M  V30 55 H 0.498180 -3.877896 1.195429 0
M  V30 56 H -1.230470 -4.168173 -0.553551 0
M  V30 57 H -5.928798 -3.354339 -3.003404 0
M  V30 58 H -4.521585 -3.749430 -0.432144 0
M  V30 59 H -7.181282 -2.226085 -0.799608 0
M  V30 60 H -7.087633 -4.035567 -0.782326 0
M  V30 61 H -6.685112 -4.109358 1.436544 0
M  V30 62 H -7.490197 -2.522641 1.412012 0
M  V30 63 H -6.146047 -0.675580 0.620448 0
M  V30 64 H -4.466314 -0.644433 1.298315 0
M  V30 65 H -4.891722 -0.891809 -1.339415 0
M  V30 66 H -3.561025 -1.713638 -0.504933 0
M  V30 67 H -2.335678 -3.440383 -6.056691 0
M  V30 68 H 0.670658 -1.265990 -3.028950 0
M  V30 END ATOM
M  V30 BEGIN BOND
M  V30 1 1 1 2
M  V30 2 1 2 3
M  V30 3 2 3 4
M  V30 4 1 3 5
M  V30 5 1 5 6
M  V30 6 1 6 7
M  V30 7 1 7 8
M  V30 8 1 6 9
M  V30 9 2 9 10
M  V30 10 1 10 11
M  V30 11 2 11 12
M  V30 12 1 12 13
M  V30 13 2 13 14
M  V30 14 1 2 15
M  V30 15 1 15 16
M  V30 16 1 16 17
M  V30 17 2 17 18
M  V30 18 1 18 19
M  V30 19 2 19 20
M  V30 20 1 20 21
M  V30 21 2 21 22
M  V30 22 1 22 23
M  V30 23 1 23 24
M  V30 24 1 24 25
M  V30 25 1 25 26
M  V30 26 1 26 27
M  V30 27 1 27 28
M  V30 28 1 28 29
M  V30 29 1 29 30
M  V30 30 2 23 31
M  V30 31 1 31 32
M  V30 32 2 32 33
M  V30 33 1 33 34
M  V30 34 1 20 35
M  V30 35 2 35 36
M  V30 36 1 36 37
M  V30 37 2 37 38
M  V30 38 1 14 9
M  V30 39 1 37 15
M  V30 40 1 36 17
M  V30 41 1 33 21
M  V30 42 1 30 25
M  V30 43 1 1 39
M  V30 44 1 1 40
M  V30 45 1 1 41
M  V30 46 1 2 42 CFG=3
M  V30 47 1 5 43
M  V30 48 1 6 44 CFG=1
M  V30 49 1 7 45
M  V30 50 1 7 46
M  V30 51 1 8 47
M  V30 52 1 10 48
M  V30 53 1 11 49
M  V30 54 1 12 50
M  V30 55 1 13 51
M  V30 56 1 14 52
M  V30 57 1 16 53
M  V30 58 1 16 54
M  V30 59 1 18 55
M  V30 60 1 19 56
M  V30 61 1 24 57
M  V30 62 1 25 58
M  V30 63 1 26 59
M  V30 64 1 26 60
M  V30 65 1 27 61
M  V30 66 1 27 62
M  V30 67 1 29 63
M  V30 68 1 29 64
M  V30 69 1 30 65
M  V30 70 1 30 66
M  V30 71 1 32 67
M  V30 72 1 35 68
M  V30 END BOND
M  V30 END CTAB
M  END
>  <Dataset>  (699) 
ChEMBL_Kinases

>  <Ligand_Instance>  (699) 
nan

>  <PDB_ID>  (699) 
nan

>  <Standardized_SMILES>  (699) 
C[C@H](C(=O)N[C@H](CO)c1ccccc1)N1Cc2ccc(-c3nc(NC4CCOCC4)ncc3Cl)cc2C1=O

>  <Name>  (699) 
nan

>  <Pocket>  (699) 
nan

>  <ATP_Site>  (699) 
nan

>  <Peripheral>  (699) 
nan

>  <Num_H_Atoms_ProtBoundConf>  (699) 
nan

>  <Num_Resolved_Atoms>  (699) 
nan

>  <Num_Not_Resolved_Atoms>  (699) 
nan

$$$$
CHEMBL4209617
     RDKit          3D

  0  0  0  0  0  0  0  0  0  0999 V3000
M  V30 BEGIN CTAB
M  V30 COUNTS 32 34 0 0 0
M  V30 BEGIN ATOM
M  V30 1 C -1.329430 -1.569325 2.423701 0
M  V30 2 N -1.086755 -0.451308 1.492487 0
M  V30 3 C 0.171331 -0.391790 0.824042 0
M  V30 4 C 1.090280 -1.360049 0.521540 0
M  V30 5 C 2.203237 -1.039855 -0.120546 0
M  V30 6 C 3.351069 -1.927826 -0.558586 0
M  V30 7 C 4.439262 -1.405882 -1.225597 0
M  V30 8 N 5.205683 -2.518214 -1.422198 0
M  V30 9 N 4.619111 -3.586503 -0.917397 0
M  V30 10 C 3.419824 -3.264500 -0.347909 0
M  V30 11 S 2.154578 0.667400 -0.410132 0
M  V30 12 C 0.477100 0.914293 0.422856 0
M  V30 13 C -0.363337 2.113667 0.640440 0
M  V30 14 O 0.112918 3.183878 0.193824 0
M  V30 15 N -1.590315 1.915084 1.318328 0
M  V30 16 C -2.094919 0.557812 1.259758 0
M  V30 17 C -3.093194 0.445122 2.392493 0
M  V30 18 C -2.750803 0.327485 -0.080784 0
M  V30 19 H -2.336468 -1.975079 2.340744 0
M  V30 20 H -1.068480 -1.186322 3.429693 0
M  V30 21 H -0.612974 -2.386658 2.190149 0
M  V30 22 H 0.944715 -2.397890 0.790547 0
M  V30 23 H 4.669078 -0.395940 -1.532534 0
M  V30 24 H 5.029457 -4.567841 -0.951453 0
M  V30 25 H 2.704320 -3.907346 0.145976 0
M  V30 26 H -1.967817 2.771578 1.769633 0
M  V30 27 H -2.552178 0.215023 3.338350 0
M  V30 28 H -3.613731 1.429438 2.565314 0
M  V30 29 H -3.834422 -0.370281 2.230562 0
M  V30 30 H -2.940406 -0.740156 -0.279474 0
M  V30 31 H -3.673385 0.922338 -0.192735 0
M  V30 32 H -1.985463 0.635350 -0.843715 0
M  V30 END ATOM
M  V30 BEGIN BOND
M  V30 1 1 1 2
M  V30 2 1 2 3
M  V30 3 1 3 4
M  V30 4 2 4 5
M  V30 5 1 5 6
M  V30 6 1 6 7
M  V30 7 2 7 8
M  V30 8 1 8 9
M  V30 9 1 9 10
M  V30 10 1 5 11
M  V30 11 1 11 12
M  V30 12 1 12 13
M  V30 13 2 13 14
M  V30 14 1 13 15
M  V30 15 1 15 16
M  V30 16 1 16 17
M  V30 17 1 16 18
M  V30 18 1 16 2
M  V30 19 2 12 3
M  V30 20 2 10 6
M  V30 21 1 1 19
M  V30 22 1 1 20
M  V30 23 1 1 21
M  V30 24 1 4 22
M  V30 25 1 7 23
M  V30 26 1 9 24
M  V30 27 1 10 25
M  V30 28 1 15 26
M  V30 29 1 17 27
M  V30 30 1 17 28
M  V30 31 1 17 29
M  V30 32 1 18 30
M  V30 33 1 18 31
M  V30 34 1 18 32
M  V30 END BOND
M  V30 END CTAB
M  END
>  <Dataset>  (700) 
ChEMBL_Kinases

>  <Ligand_Instance>  (700) 
nan

>  <PDB_ID>  (700) 
nan

>  <Standardized_SMILES>  (700) 
CN1c2cc(-c3cn[nH]c3)sc2C(=O)NC1(C)C

>  <Name>  (700) 
nan

>  <Pocket>  (700) 
nan

>  <ATP_Site>  (700) 
nan

>  <Peripheral>  (700) 
nan

>  <Num_H_Atoms_ProtBoundConf>  (700) 
nan

>  <Num_Resolved_Atoms>  (700) 
nan

>  <Num_Not_Resolved_Atoms>  (700) 
nan

$$$$
CHEMBL4209583
     RDKit          3D

  0  0  0  0  0  0  0  0  0  0999 V3000
M  V30 BEGIN CTAB
M  V30 COUNTS 44 47 0 0 0
M  V30 BEGIN ATOM
M  V30 1 C -1.052386 -3.983519 4.657793 0
M  V30 2 C 0.261658 -3.302044 4.480820 0
M  V30 3 O 1.142552 -3.179536 5.402406 0
M  V30 4 N 0.577998 -2.750493 3.235099 0
M  V30 5 C 1.800936 -2.079728 2.957605 0
M  V30 6 C 2.025832 -1.499145 1.707166 0
M  V30 7 C 3.185502 -0.830373 1.343345 0
M  V30 8 N 3.327046 -0.237200 0.034926 0
M  V30 9 C 2.123966 -0.344696 -0.713605 0
M  V30 10 N 1.222384 0.572566 -0.330898 0
M  V30 11 C 0.000148 0.682682 -0.880836 0
M  V30 12 C -0.962967 1.686441 -0.420025 0
M  V30 13 C -0.574705 2.464497 0.663789 0
M  V30 14 C -1.380575 3.440568 1.218206 0
M  V30 15 C -2.604676 3.571835 0.597620 0
M  V30 16 C -3.035285 2.814353 -0.491560 0
M  V30 17 C -4.366622 3.023630 -1.117589 0
M  V30 18 F -5.060172 1.814329 -0.969095 0
M  V30 19 F -5.029195 4.046379 -0.452507 0
M  V30 20 F -4.281012 3.246247 -2.479563 0
M  V30 21 N -2.170526 1.887364 -0.955322 0
M  V30 22 N -0.310780 -0.195590 -1.876039 0
M  V30 23 C 0.567659 -1.130927 -2.289318 0
M  V30 24 N 0.576484 -2.125992 -3.220996 0
M  V30 25 C 1.749823 -2.780803 -3.209241 0
M  V30 26 C 2.602880 -2.237827 -2.242105 0
M  V30 27 C 1.817868 -1.234539 -1.718259 0
M  V30 28 C 4.183792 -0.752216 2.327876 0
M  V30 29 C 3.937564 -1.332393 3.551822 0
M  V30 30 N 2.782282 -1.971174 3.844542 0
M  V30 31 H -1.874652 -3.217171 4.648715 0
M  V30 32 H -1.233723 -4.676271 3.826383 0
M  V30 33 H -1.119925 -4.526500 5.616289 0
M  V30 34 H -0.134960 -2.842511 2.459797 0
M  V30 35 H 1.198643 -1.611112 1.006586 0
M  V30 36 H 4.282735 0.169449 -0.152930 0
M  V30 37 H 0.414081 2.324591 1.130239 0
M  V30 38 H -1.101504 4.060042 2.062039 0
M  V30 39 H -3.332351 4.300894 0.932058 0
M  V30 40 H -0.228562 -2.337235 -3.849447 0
M  V30 41 H 2.052835 -3.625665 -3.844326 0
M  V30 42 H 3.608497 -2.482385 -1.934319 0
M  V30 43 H 5.069933 -0.232932 2.018246 0
M  V30 44 H 4.739367 -1.256709 4.302200 0
M  V30 END ATOM
M  V30 BEGIN BOND
M  V30 1 1 1 2
M  V30 2 2 2 3
M  V30 3 1 2 4
M  V30 4 1 4 5
M  V30 5 2 5 6
M  V30 6 1 6 7
M  V30 7 1 7 8
M  V30 8 1 8 9
M  V30 9 2 9 10
M  V30 10 1 10 11
M  V30 11 1 11 12
M  V30 12 2 12 13
M  V30 13 1 13 14
M  V30 14 2 14 15
M  V30 15 1 15 16
M  V30 16 1 16 17
M  V30 17 1 17 18
M  V30 18 1 17 19
M  V30 19 1 17 20
M  V30 20 2 16 21
M  V30 21 2 11 22
M  V30 22 1 22 23
M  V30 23 1 23 24
M  V30 24 1 24 25
M  V30 25 2 25 26
M  V30 26 1 26 27
M  V30 27 2 7 28
M  V30 28 1 28 29
M  V30 29 2 29 30
M  V30 30 1 30 5
M  V30 31 1 27 9
M  V30 32 1 21 12
M  V30 33 2 27 23
M  V30 34 1 1 31
M  V30 35 1 1 32
M  V30 36 1 1 33
M  V30 37 1 4 34
M  V30 38 1 6 35
M  V30 39 1 8 36
M  V30 40 1 13 37
M  V30 41 1 14 38
M  V30 42 1 15 39
M  V30 43 1 24 40
M  V30 44 1 25 41
M  V30 45 1 26 42
M  V30 46 1 28 43
M  V30 47 1 29 44
M  V30 END BOND
M  V30 END CTAB
M  END
>  <Dataset>  (701) 
ChEMBL_Kinases

>  <Ligand_Instance>  (701) 
nan

>  <PDB_ID>  (701) 
nan

>  <Standardized_SMILES>  (701) 
CC(=O)Nc1cc(Nc2nc(-c3cccc(C(F)(F)F)n3)nc3[nH]ccc23)ccn1

>  <Name>  (701) 
nan

>  <Pocket>  (701) 
nan

>  <ATP_Site>  (701) 
nan

>  <Peripheral>  (701) 
nan

>  <Num_H_Atoms_ProtBoundConf>  (701) 
nan

>  <Num_Resolved_Atoms>  (701) 
nan

>  <Num_Not_Resolved_Atoms>  (701) 
nan

$$$$
CHEMBL4781671
     RDKit          3D

  0  0  0  0  0  0  0  0  0  0999 V3000
M  V30 BEGIN CTAB
M  V30 COUNTS 53 56 0 0 0
M  V30 BEGIN ATOM
M  V30 1 C 3.609326 0.689841 5.480253 0
M  V30 2 C 2.827462 -0.576762 5.196826 0
M  V30 3 C 2.063348 -0.477456 3.885343 0
M  V30 4 S 3.233099 -0.223028 2.598130 0
M  V30 5 O 4.170707 -1.416695 2.627471 0
M  V30 6 O 4.092030 0.974291 2.923159 0
M  V30 7 N 2.577885 -0.071751 1.045589 0
M  V30 8 C 1.723117 1.024299 0.908530 0
M  V30 9 C 1.474557 2.112647 1.695170 0
M  V30 10 C 0.542022 3.075250 1.266538 0
M  V30 11 C -0.101600 2.828590 -0.014211 0
M  V30 12 F -0.862831 4.022538 0.089375 0
M  V30 13 C 0.071891 1.683343 -0.977229 0
M  V30 14 C -0.873645 2.303300 -1.792944 0
M  V30 15 O -1.372208 3.397992 -2.033178 0
M  V30 16 C -1.582515 1.420197 -2.740709 0
M  V30 17 N -2.035398 1.737853 -3.958840 0
M  V30 18 N -2.675519 0.692624 -4.518708 0
M  V30 19 C -2.659431 -0.346289 -3.670943 0
M  V30 20 N -3.200442 -1.562908 -3.830181 0
M  V30 21 C -3.110685 -2.486930 -2.848551 0
M  V30 22 C -2.435369 -2.072099 -1.711554 0
M  V30 23 C -2.362310 -3.077015 -0.651457 0
M  V30 24 C -3.525560 -3.722386 -0.319419 0
M  V30 25 C -3.691214 -4.690640 0.647826 0
M  V30 26 C -2.510791 -5.004563 1.328512 0
M  V30 27 C -1.285212 -4.399689 1.057641 0
M  V30 28 C -1.237236 -3.432058 0.055646 0
M  V30 29 C 0.027451 -2.746985 -0.301720 0
M  V30 30 C -1.866229 -0.810909 -1.528491 0
M  V30 31 C -1.980128 0.112801 -2.569178 0
M  V30 32 C 0.984340 1.063286 -0.212759 0
M  V30 33 F 1.115187 0.100923 -1.210362 0
M  V30 34 H 3.533250 0.940179 6.579735 0
M  V30 35 H 4.694060 0.557978 5.280239 0
M  V30 36 H 3.154041 1.552624 4.970091 0
M  V30 37 H 2.056024 -0.651815 6.011119 0
M  V30 38 H 3.499827 -1.456743 5.174026 0
M  V30 39 H 1.327866 0.320417 4.025118 0
M  V30 40 H 1.561739 -1.466792 3.731735 0
M  V30 41 H 2.823175 -0.753697 0.302121 0
M  V30 42 H 2.067957 2.069344 2.582811 0
M  V30 43 H 0.544502 3.819813 2.081748 0
M  V30 44 H -3.062113 0.854003 -5.474062 0
M  V30 45 H -3.529405 -3.474983 -2.931559 0
M  V30 46 H -4.452999 -3.477467 -0.854306 0
M  V30 47 H -4.628535 -5.168172 0.868221 0
M  V30 48 H -2.519953 -5.746708 2.107038 0
M  V30 49 H -0.389102 -4.657207 1.596657 0
M  V30 50 H 0.290654 -1.929633 0.370040 0
M  V30 51 H -0.015897 -2.433814 -1.365755 0
M  V30 52 H 0.857495 -3.505542 -0.262656 0
M  V30 53 H -1.370616 -0.527378 -0.640331 0
M  V30 END ATOM
M  V30 BEGIN BOND
M  V30 1 1 1 2
M  V30 2 1 2 3
M  V30 3 1 3 4
M  V30 4 2 4 5
M  V30 5 2 4 6
M  V30 6 1 4 7
M  V30 7 1 7 8
M  V30 8 2 8 9
M  V30 9 1 9 10
M  V30 10 2 10 11
M  V30 11 1 11 12
M  V30 12 1 11 13
M  V30 13 1 13 14
M  V30 14 2 14 15
M  V30 15 1 14 16
M  V30 16 2 16 17
M  V30 17 1 17 18
M  V30 18 1 18 19
M  V30 19 2 19 20
M  V30 20 1 20 21
M  V30 21 2 21 22
M  V30 22 1 22 23
M  V30 23 2 23 24
M  V30 24 1 24 25
M  V30 25 2 25 26
M  V30 26 1 26 27
M  V30 27 2 27 28
M  V30 28 1 28 29
M  V30 29 1 22 30
M  V30 30 2 30 31
M  V30 31 2 13 32
M  V30 32 1 32 33
M  V30 33 1 32 8
M  V30 34 1 31 16
M  V30 35 1 31 19
M  V30 36 1 28 23
M  V30 37 1 1 34
M  V30 38 1 1 35
M  V30 39 1 1 36
M  V30 40 1 2 37
M  V30 41 1 2 38
M  V30 42 1 3 39
M  V30 43 1 3 40
M  V30 44 1 7 41
M  V30 45 1 9 42
M  V30 46 1 10 43
M  V30 47 1 18 44
M  V30 48 1 21 45
M  V30 49 1 24 46
M  V30 50 1 25 47
M  V30 51 1 26 48
M  V30 52 1 27 49
M  V30 53 1 29 50
M  V30 54 1 29 51
M  V30 55 1 29 52
M  V30 56 1 30 53
M  V30 END BOND
M  V30 END CTAB
M  END
>  <Dataset>  (702) 
ChEMBL_Kinases

>  <Ligand_Instance>  (702) 
nan

>  <PDB_ID>  (702) 
nan

>  <Standardized_SMILES>  (702) 
CCCS(=O)(=O)Nc1ccc(F)c(C(=O)c2n[nH]c3ncc(-c4ccccc4C)cc23)c1F

>  <Name>  (702) 
nan

>  <Pocket>  (702) 
nan

>  <ATP_Site>  (702) 
nan

>  <Peripheral>  (702) 
nan

>  <Num_H_Atoms_ProtBoundConf>  (702) 
nan

>  <Num_Resolved_Atoms>  (702) 
nan

>  <Num_Not_Resolved_Atoms>  (702) 
nan

$$$$
CHEMBL4781698
     RDKit          3D

  0  0  0  0  0  0  0  0  0  0999 V3000
M  V30 BEGIN CTAB
M  V30 COUNTS 51 54 0 0 0
M  V30 BEGIN ATOM
M  V30 1 C 0.196368 -1.440288 4.300697 0
M  V30 2 O 1.181158 -0.619201 3.763021 0
M  V30 3 C 2.457717 -0.988092 3.383200 0
M  V30 4 C 3.053146 -2.215926 3.438396 0
M  V30 5 C 4.340999 -2.441252 3.025135 0
M  V30 6 C 5.111892 -1.418221 2.523800 0
M  V30 7 C 4.551686 -0.140162 2.445419 0
M  V30 8 C 3.253714 0.045163 2.871037 0
M  V30 9 C 2.723763 1.403914 2.746744 0
M  V30 10 C 1.849454 1.626719 1.572038 0
M  V30 11 O 2.573256 1.415528 0.549719 0
M  V30 12 N 0.478704 1.998656 1.388541 0
M  V30 13 C 0.242100 2.060765 -0.063201 0
M  V30 14 C -1.185738 2.441380 -0.238617 0
M  V30 15 C -2.180677 1.457278 0.326107 0
M  V30 16 N -2.107550 0.170294 -0.286492 0
M  V30 17 C -2.907410 -0.010530 -1.379793 0
M  V30 18 O -3.652573 0.917871 -1.792215 0
M  V30 19 C -2.980902 -1.183097 -2.118189 0
M  V30 20 C -3.813529 -1.289531 -3.212785 0
M  V30 21 C -3.812084 -2.497478 -3.879841 0
M  V30 22 F -4.632906 -2.629760 -4.974090 0
M  V30 23 C -3.024055 -3.585520 -3.501646 0
M  V30 24 C -2.215586 -3.425825 -2.407190 0
M  V30 25 C -2.189528 -2.239179 -1.718470 0
M  V30 26 N -1.400031 -2.078035 -0.649367 0
M  V30 27 C -0.550030 -2.904486 -0.052853 0
M  V30 28 S -0.105561 -4.439352 -0.349220 0
M  V30 29 N -0.002124 -2.252258 0.986580 0
M  V30 30 N -0.507330 -1.011959 1.045759 0
M  V30 31 C -1.382425 -0.914174 0.015467 0
M  V30 32 H -0.784712 -1.367432 3.796302 0
M  V30 33 H 0.522338 -2.496342 4.263502 0
M  V30 34 H 0.033293 -1.163147 5.381359 0
M  V30 35 H 2.437201 -3.007209 3.833479 0
M  V30 36 H 4.751028 -3.449323 3.098495 0
M  V30 37 H 6.127417 -1.616897 2.202669 0
M  V30 38 H 5.148431 0.672501 2.053083 0
M  V30 39 H 3.524247 2.183024 2.728267 0
M  V30 40 H 2.101267 1.605662 3.656943 0
M  V30 41 H 0.057269 2.114937 2.346189 0
M  V30 42 H 0.855677 2.912046 -0.425812 0
M  V30 43 H 0.508273 1.086674 -0.500995 0
M  V30 44 H -1.384284 2.672281 -1.304274 0
M  V30 45 H -1.325190 3.414773 0.311105 0
M  V30 46 H -3.189914 1.892631 0.190513 0
M  V30 47 H -2.031017 1.411830 1.440025 0
M  V30 48 H -4.437769 -0.454327 -3.528248 0
M  V30 49 H -3.094692 -4.489226 -4.090210 0
M  V30 50 H -1.646325 -4.293020 -2.179068 0
M  V30 51 H 0.711247 -2.569383 1.693642 0
M  V30 END ATOM
M  V30 BEGIN BOND
M  V30 1 1 1 2
M  V30 2 1 2 3
M  V30 3 2 3 4
M  V30 4 1 4 5
M  V30 5 2 5 6
M  V30 6 1 6 7
M  V30 7 2 7 8
M  V30 8 1 8 9
M  V30 9 1 9 10
M  V30 10 2 10 11
M  V30 11 1 10 12
M  V30 12 1 12 13
M  V30 13 1 13 14
M  V30 14 1 14 15
M  V30 15 1 15 16
M  V30 16 1 16 17
M  V30 17 2 17 18
M  V30 18 1 17 19
M  V30 19 2 19 20
M  V30 20 1 20 21
M  V30 21 1 21 22
M  V30 22 2 21 23
M  V30 23 1 23 24
M  V30 24 2 24 25
M  V30 25 1 25 26
M  V30 26 1 26 27
M  V30 27 2 27 28
M  V30 28 1 27 29
M  V30 29 1 29 30
M  V30 30 2 30 31
M  V30 31 1 8 3
M  V30 32 1 31 16
M  V30 33 1 25 19
M  V30 34 1 31 26
M  V30 35 1 1 32
M  V30 36 1 1 33
M  V30 37 1 1 34
M  V30 38 1 4 35
M  V30 39 1 5 36
M  V30 40 1 6 37
M  V30 41 1 7 38
M  V30 42 1 9 39
M  V30 43 1 9 40
M  V30 44 1 12 41
M  V30 45 1 13 42
M  V30 46 1 13 43
M  V30 47 1 14 44
M  V30 48 1 14 45
M  V30 49 1 15 46
M  V30 50 1 15 47
M  V30 51 1 20 48
M  V30 52 1 23 49
M  V30 53 1 24 50
M  V30 54 1 29 51
M  V30 END BOND
M  V30 END CTAB
M  END
>  <Dataset>  (703) 
ChEMBL_Kinases

>  <Ligand_Instance>  (703) 
nan

>  <PDB_ID>  (703) 
nan

>  <Standardized_SMILES>  (703) 
COc1ccccc1CC(=O)NCCCn1c(=O)c2cc(F)ccc2n2c(=S)[nH]nc12

>  <Name>  (703) 
nan

>  <Pocket>  (703) 
nan

>  <ATP_Site>  (703) 
nan

>  <Peripheral>  (703) 
nan

>  <Num_H_Atoms_ProtBoundConf>  (703) 
nan

>  <Num_Resolved_Atoms>  (703) 
nan

>  <Num_Not_Resolved_Atoms>  (703) 
nan

$$$$
CHEMBL4209902
     RDKit          3D

  0  0  0  0  0  0  0  0  0  0999 V3000
M  V30 BEGIN CTAB
M  V30 COUNTS 74 78 0 0 0
M  V30 BEGIN ATOM
M  V30 1 C 2.215553 -1.311641 5.887347 0
M  V30 2 O 2.118760 -1.842188 4.575021 0
M  V30 3 C 1.707818 -1.031321 3.518748 0
M  V30 4 C 1.380088 0.308478 3.705909 0
M  V30 5 C 0.984273 1.041642 2.615194 0
M  V30 6 C 0.662744 2.420397 2.943039 0
M  V30 7 O 0.803953 2.902394 4.080398 0
M  V30 8 N 0.163265 3.327575 2.002682 0
M  V30 9 C -0.275538 4.677301 1.833533 0
M  V30 10 C 0.423301 5.421470 0.756447 0
M  V30 11 C -0.210657 6.732503 0.455405 0
M  V30 12 N -1.642139 6.667379 0.289513 0
M  V30 13 C -2.023590 6.117738 -0.993210 0
M  V30 14 C -2.292656 5.994378 1.391726 0
M  V30 15 C -1.755479 4.612759 1.519334 0
M  V30 16 C 0.895876 0.520208 1.348019 0
M  V30 17 C 1.239296 -0.827517 1.234184 0
M  V30 18 C 1.640440 -1.608791 2.288262 0
M  V30 19 N 1.919967 -2.960341 1.955484 0
M  V30 20 C 1.879526 -3.530269 0.651277 0
M  V30 21 N 3.034501 -3.745009 -0.031716 0
M  V30 22 C 3.003728 -4.277627 -1.266484 0
M  V30 23 C 1.814501 -4.623976 -1.885126 0
M  V30 24 C 0.656841 -4.394174 -1.171710 0
M  V30 25 N 0.719148 -3.860512 0.063072 0
M  V30 26 N -0.671111 -4.647784 -1.618326 0
M  V30 27 C -1.924266 -4.167748 -1.166985 0
M  V30 28 C -2.796244 -3.511756 -2.212895 0
M  V30 29 C -3.769292 -2.748021 -1.350015 0
M  V30 30 C -3.022386 -2.332281 -0.140928 0
M  V30 31 C -1.719953 -3.068813 -0.139360 0
M  V30 32 C -0.807953 -5.565564 -2.743896 0 CFG=2
M  V30 33 C -0.967515 -7.000874 -2.290252 0
M  V30 34 C 0.391596 -5.518328 -3.620714 0
M  V30 35 O 0.292012 -5.757626 -4.875734 0
M  V30 36 N 1.711230 -5.220383 -3.191936 0
M  V30 37 C 2.937101 -5.454562 -3.925786 0
M  V30 38 H 1.270555 -0.808591 6.155433 0
M  V30 39 H 2.470393 -2.118806 6.598067 0
M  V30 40 H 3.003593 -0.537708 5.959188 0
M  V30 41 H 1.475702 0.641363 4.725398 0
M  V30 42 H 0.032017 2.954857 1.011720 0
M  V30 43 H -0.171201 5.257802 2.796764 0
M  V30 44 H 1.464688 5.667431 1.121948 0
M  V30 45 H 0.460725 4.816464 -0.167735 0
M  V30 46 H 0.189101 7.047283 -0.554127 0
M  V30 47 H 0.039235 7.559709 1.146062 0
M  V30 48 H -2.938862 5.530864 -0.995498 0
M  V30 49 H -2.186272 6.985447 -1.682219 0
M  V30 50 H -1.179101 5.541289 -1.475100 0
M  V30 51 H -3.383189 5.931612 1.122905 0
M  V30 52 H -2.138470 6.553341 2.321698 0
M  V30 53 H -2.313576 4.001326 2.259757 0
M  V30 54 H -1.861024 4.090338 0.533226 0
M  V30 55 H 0.585132 1.109682 0.504200 0
M  V30 56 H 1.156779 -1.209164 0.205835 0
M  V30 57 H 2.182087 -3.590019 2.770036 0
M  V30 58 H 3.903827 -4.474876 -1.866324 0
M  V30 59 H -2.524655 -4.961007 -0.682996 0
M  V30 60 H -2.252329 -2.801199 -2.843141 0
M  V30 61 H -3.335955 -4.211320 -2.861623 0
M  V30 62 H -4.629613 -3.423527 -1.076760 0
M  V30 63 H -4.145340 -1.841698 -1.881688 0
M  V30 64 H -2.794678 -1.232632 -0.220895 0
M  V30 65 H -3.601944 -2.513912 0.805302 0
M  V30 66 H -0.932206 -2.343345 -0.509569 0
M  V30 67 H -1.466025 -3.463781 0.871511 0
M  V30 68 H -1.652541 -5.261986 -3.431045 0
M  V30 69 H -2.025012 -7.247112 -2.061766 0
M  V30 70 H -0.679262 -7.692137 -3.132867 0
M  V30 71 H -0.294405 -7.142652 -1.407849 0
M  V30 72 H 2.724658 -5.622672 -4.986658 0
M  V30 73 H 3.552133 -6.257319 -3.471328 0
M  V30 74 H 3.514506 -4.485667 -3.897916 0
M  V30 END ATOM
M  V30 BEGIN BOND
M  V30 1 1 1 2
M  V30 2 1 2 3
M  V30 3 2 3 4
M  V30 4 1 4 5
M  V30 5 1 5 6
M  V30 6 2 6 7
M  V30 7 1 6 8
M  V30 8 1 8 9
M  V30 9 1 9 10
M  V30 10 1 10 11
M  V30 11 1 11 12
M  V30 12 1 12 13
M  V30 13 1 12 14
M  V30 14 1 14 15
M  V30 15 2 5 16
M  V30 16 1 16 17
M  V30 17 2 17 18
M  V30 18 1 18 19
M  V30 19 1 19 20
M  V30 20 2 20 21
M  V30 21 1 21 22
M  V30 22 2 22 23
M  V30 23 1 23 24
M  V30 24 2 24 25
M  V30 25 1 24 26
M  V30 26 1 26 27
M  V30 27 1 27 28
M  V30 28 1 28 29
M  V30 29 1 29 30
M  V30 30 1 30 31
M  V30 31 1 26 32
M  V30 32 1 32 33
M  V30 33 1 32 34
M  V30 34 2 34 35
M  V30 35 1 34 36
M  V30 36 1 36 37
M  V30 37 1 18 3
M  V30 38 1 25 20
M  V30 39 1 31 27
M  V30 40 1 15 9
M  V30 41 1 36 23
M  V30 42 1 1 38
M  V30 43 1 1 39
M  V30 44 1 1 40
M  V30 45 1 4 41
M  V30 46 1 8 42
M  V30 47 1 9 43
M  V30 48 1 10 44
M  V30 49 1 10 45
M  V30 50 1 11 46
M  V30 51 1 11 47
M  V30 52 1 13 48
M  V30 53 1 13 49
M  V30 54 1 13 50
M  V30 55 1 14 51
M  V30 56 1 14 52
M  V30 57 1 15 53
M  V30 58 1 15 54
M  V30 59 1 16 55
M  V30 60 1 17 56
M  V30 61 1 19 57
M  V30 62 1 22 58
M  V30 63 1 27 59
M  V30 64 1 28 60
M  V30 65 1 28 61
M  V30 66 1 29 62
M  V30 67 1 29 63
M  V30 68 1 30 64
M  V30 69 1 30 65
M  V30 70 1 31 66
M  V30 71 1 31 67
M  V30 72 1 32 68 CFG=3
M  V30 73 1 33 69
M  V30 74 1 33 70
M  V30 75 1 33 71
M  V30 76 1 37 72
M  V30 77 1 37 73
M  V30 78 1 37 74
M  V30 END BOND
M  V30 END CTAB
M  END
>  <Dataset>  (704) 
ChEMBL_Kinases

>  <Ligand_Instance>  (704) 
nan

>  <PDB_ID>  (704) 
nan

>  <Standardized_SMILES>  (704) 
COc1cc(C(=O)NC2CCN(C)CC2)ccc1Nc1ncc2c(n1)N(C1CCCC1)[C@H](C)C(=O)N2C

>  <Name>  (704) 
nan

>  <Pocket>  (704) 
nan

>  <ATP_Site>  (704) 
nan

>  <Peripheral>  (704) 
nan

>  <Num_H_Atoms_ProtBoundConf>  (704) 
nan

>  <Num_Resolved_Atoms>  (704) 
nan

>  <Num_Not_Resolved_Atoms>  (704) 
nan

$$$$
CHEMBL4781117
     RDKit          3D

  0  0  0  0  0  0  0  0  0  0999 V3000
M  V30 BEGIN CTAB
M  V30 COUNTS 79 85 0 0 0
M  V30 BEGIN ATOM
M  V30 1 O 0.468154 -0.691024 4.021781 0
M  V30 2 C -0.067881 -1.462145 3.216561 0
M  V30 3 N -1.497121 -1.627561 3.115053 0
M  V30 4 C -2.332540 -0.861681 3.989133 0
M  V30 5 C -2.208504 0.616430 3.869823 0
M  V30 6 C -2.555019 1.109915 2.468451 0
M  V30 7 N -2.440129 2.528458 2.350039 0
M  V30 8 C -2.536386 3.561652 1.436021 0
M  V30 9 C -2.825185 3.322816 0.116896 0
M  V30 10 C -2.921721 4.369798 -0.775184 0
M  V30 11 N -2.739723 5.642980 -0.394509 0
M  V30 12 C -2.456907 5.897466 0.888548 0
M  V30 13 C -2.276347 7.210160 1.248858 0
M  V30 14 C -1.982127 7.584628 2.542234 0
M  V30 15 C -1.875308 6.576324 3.470776 0
M  V30 16 C -2.063716 5.271845 3.068703 0
M  V30 17 C -2.357709 4.874144 1.784807 0
M  V30 18 C -3.235700 4.124290 -2.204321 0
M  V30 19 C -2.215263 3.092941 -2.706831 0
M  V30 20 C -2.064382 1.948561 -1.738017 0
M  V30 21 C -3.060713 2.061528 -0.587746 0
M  V30 22 C 0.654524 -2.325928 2.242454 0
M  V30 23 S 0.219601 -3.506064 0.989157 0
M  V30 24 C 1.994647 -3.843740 0.524978 0
M  V30 25 C 2.283119 -4.812670 -0.542877 0
M  V30 26 C 3.589207 -5.025978 -0.836773 0
M  V30 27 C 4.031966 -5.895642 -1.809993 0
M  V30 28 N 3.041988 -6.548100 -2.479369 0
M  V30 29 C 1.742818 -6.330262 -2.180816 0
M  V30 30 N 0.794341 -7.080320 -2.966384 0
M  V30 31 C 0.516030 -6.247606 -4.067718 0
M  V30 32 O 0.876137 -5.097881 -4.484587 0
M  V30 33 C -0.323814 -6.257423 -5.305217 0
M  V30 34 C -1.595430 -6.986469 -5.352645 0
M  V30 35 C -0.407280 -7.537754 -6.055900 0
M  V30 36 C 1.296615 -5.471735 -1.219358 0
M  V30 37 N 2.625362 -3.134652 1.257735 0
M  V30 38 C 2.107460 -2.326639 2.161151 0
M  V30 39 O 2.899926 -1.532992 2.976205 0
M  V30 40 C 4.288709 -1.464060 2.972506 0
M  V30 41 C 4.738528 -1.011554 1.599196 0
M  V30 42 C 6.184304 -0.840685 1.282200 0
M  V30 43 C 5.446537 -2.004125 0.707612 0
M  V30 44 H -1.966208 -2.285103 2.428798 0
M  V30 45 H -3.386732 -1.190097 3.928021 0
M  V30 46 H -1.989806 -1.119459 5.035273 0
M  V30 47 H -2.938199 1.074007 4.565224 0
M  V30 48 H -1.204401 0.974966 4.161969 0
M  V30 49 H -3.568610 0.735761 2.184408 0
M  V30 50 H -1.828861 0.586316 1.810368 0
M  V30 51 H -2.208189 2.818770 3.290144 0
M  V30 52 H -2.366281 7.982368 0.498661 0
M  V30 53 H -1.849601 8.631225 2.772124 0
M  V30 54 H -1.645460 6.869811 4.481627 0
M  V30 55 H -1.956795 4.569888 3.877978 0
M  V30 56 H -4.276491 3.772250 -2.350151 0
M  V30 57 H -3.109772 5.013431 -2.822328 0
M  V30 58 H -1.263988 3.624393 -2.806953 0
M  V30 59 H -2.589761 2.707995 -3.679620 0
M  V30 60 H -1.037416 1.930597 -1.368693 0
M  V30 61 H -2.256271 0.989321 -2.270574 0
M  V30 62 H -4.067072 2.157965 -1.113812 0
M  V30 63 H -3.140174 1.154518 -0.016001 0
M  V30 64 H 4.371021 -4.500136 -0.296647 0
M  V30 65 H 5.085136 -6.027969 -2.003492 0
M  V30 66 H 0.206117 -7.921569 -3.142922 0
M  V30 67 H -0.232924 -5.337647 -5.919270 0
M  V30 68 H -1.987328 -7.609707 -4.525078 0
M  V30 69 H -2.419235 -6.540605 -5.981510 0
M  V30 70 H 0.063485 -8.467492 -5.679184 0
M  V30 71 H -0.395632 -7.475014 -7.175412 0
M  V30 72 H 0.265874 -5.308077 -0.991639 0
M  V30 73 H 4.593755 -0.762110 3.757529 0
M  V30 74 H 4.738217 -2.446154 3.203777 0
M  V30 75 H 4.013085 -0.351501 1.080995 0
M  V30 76 H 6.433159 0.026002 0.606721 0
M  V30 77 H 6.954646 -1.070600 2.043550 0
M  V30 78 H 5.245002 -2.029760 -0.378320 0
M  V30 79 H 5.675098 -3.022112 1.105606 0
M  V30 END ATOM
M  V30 BEGIN BOND
M  V30 1 2 1 2
M  V30 2 1 2 3
M  V30 3 1 3 4
M  V30 4 1 4 5
M  V30 5 1 5 6
M  V30 6 1 6 7
M  V30 7 1 7 8
M  V30 8 2 8 9
M  V30 9 1 9 10
M  V30 10 2 10 11
M  V30 11 1 11 12
M  V30 12 2 12 13
M  V30 13 1 13 14
M  V30 14 2 14 15
M  V30 15 1 15 16
M  V30 16 2 16 17
M  V30 17 1 10 18
M  V30 18 1 18 19
M  V30 19 1 19 20
M  V30 20 1 20 21
M  V30 21 1 2 22
M  V30 22 1 22 23
M  V30 23 1 23 24
M  V30 24 1 24 25
M  V30 25 2 25 26
M  V30 26 1 26 27
M  V30 27 2 27 28
M  V30 28 1 28 29
M  V30 29 1 29 30
M  V30 30 1 30 31
M  V30 31 2 31 32
M  V30 32 1 31 33
M  V30 33 1 33 34
M  V30 34 1 34 35
M  V30 35 2 29 36
M  V30 36 2 24 37
M  V30 37 1 37 38
M  V30 38 1 38 39
M  V30 39 1 39 40
M  V30 40 1 40 41
M  V30 41 1 41 42
M  V30 42 1 42 43
M  V30 43 1 17 8
M  V30 44 2 38 22
M  V30 45 1 43 41
M  V30 46 1 21 9
M  V30 47 1 36 25
M  V30 48 1 17 12
M  V30 49 1 35 33
M  V30 50 1 3 44
M  V30 51 1 4 45
M  V30 52 1 4 46
M  V30 53 1 5 47
M  V30 54 1 5 48
M  V30 55 1 6 49
M  V30 56 1 6 50
M  V30 57 1 7 51
M  V30 58 1 13 52
M  V30 59 1 14 53
M  V30 60 1 15 54
M  V30 61 1 16 55
M  V30 62 1 18 56
M  V30 63 1 18 57
M  V30 64 1 19 58
M  V30 65 1 19 59
M  V30 66 1 20 60
M  V30 67 1 20 61
M  V30 68 1 21 62
M  V30 69 1 21 63
M  V30 70 1 26 64
M  V30 71 1 27 65
M  V30 72 1 30 66
M  V30 73 1 33 67
M  V30 74 1 34 68
M  V30 75 1 34 69
M  V30 76 1 35 70
M  V30 77 1 35 71
M  V30 78 1 36 72
M  V30 79 1 40 73
M  V30 80 1 40 74
M  V30 81 1 41 75
M  V30 82 1 42 76
M  V30 83 1 42 77
M  V30 84 1 43 78
M  V30 85 1 43 79
M  V30 END BOND
M  V30 END CTAB
M  END
>  <Dataset>  (705) 
ChEMBL_Kinases

>  <Ligand_Instance>  (705) 
nan

>  <PDB_ID>  (705) 
nan

>  <Standardized_SMILES>  (705) 
O=C(NCCCNc1c2c(nc3ccccc13)CCCC2)c1sc(-c2ccnc(NC(=O)C3CC3)c2)nc1OCC1CC1

>  <Name>  (705) 
nan

>  <Pocket>  (705) 
nan

>  <ATP_Site>  (705) 
nan

>  <Peripheral>  (705) 
nan

>  <Num_H_Atoms_ProtBoundConf>  (705) 
nan

>  <Num_Resolved_Atoms>  (705) 
nan

>  <Num_Not_Resolved_Atoms>  (705) 
nan

$$$$
CHEMBL4211027
     RDKit          3D

  0  0  0  0  0  0  0  0  0  0999 V3000
M  V30 BEGIN CTAB
M  V30 COUNTS 43 46 0 0 0
M  V30 BEGIN ATOM
M  V30 1 C 3.226515 -3.528432 3.168422 0
M  V30 2 O 2.482324 -2.541423 2.540550 0
M  V30 3 C 1.395882 -2.762477 1.710001 0
M  V30 4 C 1.054431 -4.082139 1.513732 0
M  V30 5 C -0.012800 -4.408327 0.703520 0
M  V30 6 C -0.740951 -3.415242 0.087762 0
M  V30 7 C -0.366686 -2.114363 0.310451 0
M  V30 8 C 0.686803 -1.747989 1.107920 0
M  V30 9 C -1.264289 -1.246434 -0.430344 0
M  V30 10 N -1.302060 0.010676 -0.524085 0
M  V30 11 N -0.423511 0.882474 0.112833 0
M  V30 12 C 0.739435 1.224485 -0.624939 0
M  V30 13 C 1.487914 2.367455 -0.448051 0
M  V30 14 C 2.628629 2.701621 -1.144249 0
M  V30 15 C 3.066136 1.816305 -2.107325 0
M  V30 16 C 2.350272 0.657326 -2.322425 0
M  V30 17 C 1.215522 0.372745 -1.596706 0
M  V30 18 C -0.867775 1.289245 1.397752 0
M  V30 19 C -2.181401 1.245563 1.781356 0
M  V30 20 C -2.615055 1.623127 3.030031 0
M  V30 21 C -1.736684 2.076447 3.987694 0
M  V30 22 C -0.406401 2.137317 3.647776 0
M  V30 23 C -0.024626 1.748299 2.386976 0
M  V30 24 C -2.222573 -2.101055 -1.128927 0
M  V30 25 O -3.164248 -1.748774 -1.877193 0
M  V30 26 N -1.862538 -3.441259 -0.780352 0
M  V30 27 H 4.199376 -3.051523 3.484311 0
M  V30 28 H 2.789345 -3.927728 4.102684 0
M  V30 29 H 3.510581 -4.341873 2.473987 0
M  V30 30 H 1.601890 -4.885695 1.979640 0
M  V30 31 H -0.332123 -5.428517 0.508881 0
M  V30 32 H 1.069533 -0.777767 1.354017 0
M  V30 33 H 1.185855 3.099625 0.282402 0
M  V30 34 H 3.173645 3.610870 -0.962073 0
M  V30 35 H 3.962345 2.048745 -2.674934 0
M  V30 36 H 2.739830 0.002284 -3.088696 0
M  V30 37 H 0.754704 -0.552700 -1.858711 0
M  V30 38 H -2.938378 0.895846 1.073422 0
M  V30 39 H -3.684072 1.557783 3.256769 0
M  V30 40 H -2.163489 2.350345 4.936362 0
M  V30 41 H 0.276071 2.493673 4.403802 0
M  V30 42 H 1.042284 1.825435 2.231415 0
M  V30 43 H -2.354694 -4.313356 -1.116669 0
M  V30 END ATOM
M  V30 BEGIN BOND
M  V30 1 1 1 2
M  V30 2 1 2 3
M  V30 3 2 3 4
M  V30 4 1 4 5
M  V30 5 2 5 6
M  V30 6 1 6 7
M  V30 7 2 7 8
M  V30 8 1 7 9
M  V30 9 2 9 10
M  V30 10 1 10 11
M  V30 11 1 11 12
M  V30 12 2 12 13
M  V30 13 1 13 14
M  V30 14 2 14 15
M  V30 15 1 15 16
M  V30 16 2 16 17
M  V30 17 1 11 18
M  V30 18 2 18 19
M  V30 19 1 19 20
M  V30 20 2 20 21
M  V30 21 1 21 22
M  V30 22 2 22 23
M  V30 23 1 9 24
M  V30 24 2 24 25
M  V30 25 1 24 26
M  V30 26 1 8 3
M  V30 27 1 17 12
M  V30 28 1 23 18
M  V30 29 1 26 6
M  V30 30 1 1 27
M  V30 31 1 1 28
M  V30 32 1 1 29
M  V30 33 1 4 30
M  V30 34 1 5 31
M  V30 35 1 8 32
M  V30 36 1 13 33
M  V30 37 1 14 34
M  V30 38 1 15 35
M  V30 39 1 16 36
M  V30 40 1 17 37
M  V30 41 1 19 38
M  V30 42 1 20 39
M  V30 43 1 21 40
M  V30 44 1 22 41
M  V30 45 1 23 42
M  V30 46 1 26 43
M  V30 END BOND
M  V30 END CTAB
M  END
>  <Dataset>  (706) 
ChEMBL_Kinases

>  <Ligand_Instance>  (706) 
nan

>  <PDB_ID>  (706) 
nan

>  <Standardized_SMILES>  (706) 
COc1ccc2c(c1)/C(=N\N(c1ccccc1)c1ccccc1)C(=O)N2

>  <Name>  (706) 
nan

>  <Pocket>  (706) 
nan

>  <ATP_Site>  (706) 
nan

>  <Peripheral>  (706) 
nan

>  <Num_H_Atoms_ProtBoundConf>  (706) 
nan

>  <Num_Resolved_Atoms>  (706) 
nan

>  <Num_Not_Resolved_Atoms>  (706) 
nan

$$$$
CHEMBL4210913
     RDKit          3D

  0  0  0  0  0  0  0  0  0  0999 V3000
M  V30 BEGIN CTAB
M  V30 COUNTS 36 38 0 0 0
M  V30 BEGIN ATOM
M  V30 1 O -1.238136 -2.326194 -0.161482 0
M  V30 2 C -1.076783 -1.683864 0.911394 0
M  V30 3 N -2.157286 -1.239949 1.697989 0
M  V30 4 C -1.825620 -0.530553 2.877747 0
M  V30 5 N -2.567437 0.269176 3.567779 0
M  V30 6 C -3.913480 0.574472 3.221558 0
M  V30 7 C -3.988799 1.355520 2.061411 0
M  V30 8 C -5.231653 1.740187 1.588278 0
M  V30 9 C -6.380517 1.345370 2.271436 0
M  V30 10 C -6.289037 0.576801 3.411630 0
M  V30 11 C -5.051358 0.184688 3.896304 0
M  V30 12 Cl -4.772606 -0.787541 5.325339 0
M  V30 13 S -0.103972 -0.997423 3.213252 0
M  V30 14 C 0.213916 -1.328306 1.460210 0
M  V30 15 C 1.360579 -1.263706 0.806923 0
M  V30 16 C 1.490948 -1.553104 -0.615977 0
M  V30 17 C 2.667452 -1.470963 -1.211020 0
M  V30 18 C 2.940785 -1.727996 -2.604481 0
M  V30 19 C 2.010831 -2.102365 -3.540594 0
M  V30 20 C 2.267085 -2.349375 -4.874480 0
M  V30 21 C 3.563352 -2.213454 -5.323943 0
M  V30 22 C 4.535785 -1.838731 -4.421193 0
M  V30 23 C 4.216376 -1.607032 -3.104920 0
M  V30 24 H -3.189756 -1.392403 1.480169 0
M  V30 25 H -3.153989 1.701640 1.476548 0
M  V30 26 H -5.402706 2.342339 0.703062 0
M  V30 27 H -7.370531 1.630707 1.926024 0
M  V30 28 H -7.132486 0.238116 3.986087 0
M  V30 29 H 2.237802 -0.980784 1.368335 0
M  V30 30 H 0.701308 -1.842702 -1.288595 0
M  V30 31 H 3.505665 -1.177708 -0.567829 0
M  V30 32 H 0.978510 -2.224730 -3.246754 0
M  V30 33 H 1.483409 -2.642118 -5.559994 0
M  V30 34 H 3.753276 -2.409148 -6.369975 0
M  V30 35 H 5.540141 -1.742265 -4.809716 0
M  V30 36 H 5.047534 -1.317865 -2.474874 0
M  V30 END ATOM
M  V30 BEGIN BOND
M  V30 1 2 1 2
M  V30 2 1 2 3
M  V30 3 1 3 4
M  V30 4 2 4 5
M  V30 5 1 5 6
M  V30 6 2 6 7
M  V30 7 1 7 8
M  V30 8 2 8 9
M  V30 9 1 9 10
M  V30 10 2 10 11
M  V30 11 1 11 12
M  V30 12 1 4 13
M  V30 13 1 13 14
M  V30 14 2 14 15
M  V30 15 1 15 16
M  V30 16 2 16 17
M  V30 17 1 17 18
M  V30 18 2 18 19
M  V30 19 1 19 20
M  V30 20 2 20 21
M  V30 21 1 21 22
M  V30 22 2 22 23
M  V30 23 1 14 2
M  V30 24 1 23 18
M  V30 25 1 11 6
M  V30 26 1 3 24
M  V30 27 1 7 25
M  V30 28 1 8 26
M  V30 29 1 9 27
M  V30 30 1 10 28
M  V30 31 1 15 29
M  V30 32 1 16 30
M  V30 33 1 17 31
M  V30 34 1 19 32
M  V30 35 1 20 33
M  V30 36 1 21 34
M  V30 37 1 22 35
M  V30 38 1 23 36
M  V30 END BOND
M  V30 END CTAB
M  END
>  <Dataset>  (707) 
ChEMBL_Kinases

>  <Ligand_Instance>  (707) 
nan

>  <PDB_ID>  (707) 
nan

>  <Standardized_SMILES>  (707) 
O=C1N/C(=N\c2ccccc2Cl)S/C1=C/C=C/c1ccccc1

>  <Name>  (707) 
nan

>  <Pocket>  (707) 
nan

>  <ATP_Site>  (707) 
nan

>  <Peripheral>  (707) 
nan

>  <Num_H_Atoms_ProtBoundConf>  (707) 
nan

>  <Num_Resolved_Atoms>  (707) 
nan

>  <Num_Not_Resolved_Atoms>  (707) 
nan

$$$$
CHEMBL4210881
     RDKit          3D

  0  0  0  0  0  0  0  0  0  0999 V3000
M  V30 BEGIN CTAB
M  V30 COUNTS 68 71 0 0 0
M  V30 BEGIN ATOM
M  V30 1 C 0.704159 -2.968833 4.034108 0
M  V30 2 C 1.123213 -4.046199 3.041513 0
M  V30 3 N -0.072884 -4.361683 2.263302 0
M  V30 4 C -0.216999 -5.872300 2.407519 0
M  V30 5 C -0.529735 -6.239225 3.810197 0
M  V30 6 C 0.177342 -4.177323 0.872830 0 CFG=1
M  V30 7 C 0.735357 -5.371908 0.112494 0
M  V30 8 C -0.771271 -3.342338 0.105773 0
M  V30 9 N -0.834311 -1.940353 0.453884 0
M  V30 10 C -1.724809 -1.377209 -0.566634 0
M  V30 11 O -2.335507 -1.976152 -1.449788 0
M  V30 12 C -2.029818 0.089444 -0.738672 0
M  V30 13 C -0.981513 0.510998 -1.674013 0
M  V30 14 C -0.671649 1.847233 -2.203028 0
M  V30 15 O 0.310962 1.657044 -2.960919 0
M  V30 16 C 1.328455 1.479894 -3.749663 0
M  V30 17 C 1.733564 -0.014626 -3.876752 0
M  V30 18 O 0.623092 -0.647642 -4.441059 0
M  V30 19 C 0.759312 -1.985597 -4.686514 0
M  V30 20 N -1.570212 2.615506 -1.636231 0
M  V30 21 C -2.523168 2.301188 -0.797326 0
M  V30 22 C -3.191886 3.431287 -0.064128 0
M  V30 23 C -4.279636 4.192068 0.315050 0
M  V30 24 N -3.934419 4.996215 1.315840 0
M  V30 25 N -2.696130 4.876015 1.684123 0
M  V30 26 C -1.877473 5.334079 2.628303 0
M  V30 27 C -0.583058 4.880566 2.803652 0
M  V30 28 C -0.079796 3.963199 2.025923 0
M  V30 29 C 1.038084 3.000234 1.919337 0
M  V30 30 C 1.828498 2.419250 0.959682 0
M  V30 31 C 2.732391 1.568846 1.366562 0
M  V30 32 C 2.915719 1.257517 2.692637 0
M  V30 33 S 1.727142 2.203551 3.495149 0
M  V30 34 N -0.896961 3.504663 1.066634 0
M  V30 35 C -2.190099 3.929906 0.874486 0
M  V30 36 C -2.870235 1.106244 -0.277374 0
M  V30 37 H 0.747681 -3.356419 5.065679 0
M  V30 38 H -0.345512 -2.639949 3.825655 0
M  V30 39 H 1.420724 -2.116170 4.002018 0
M  V30 40 H 1.918579 -3.667505 2.335011 0
M  V30 41 H 1.543612 -4.908891 3.551540 0
M  V30 42 H 0.739839 -6.276432 2.051947 0
M  V30 43 H -1.095105 -6.098787 1.768463 0
M  V30 44 H 0.011576 -5.636590 4.592330 0
M  V30 45 H -0.192387 -7.306247 3.930477 0
M  V30 46 H -1.596599 -6.171630 4.048293 0
M  V30 47 H 1.155847 -3.504709 0.889333 0
M  V30 48 H 1.747292 -5.580100 0.452167 0
M  V30 49 H 0.080476 -6.263106 0.153713 0
M  V30 50 H 0.836310 -5.019496 -0.951058 0
M  V30 51 H -1.792743 -3.820439 0.052459 0
M  V30 52 H -0.396001 -3.390167 -0.982206 0
M  V30 53 H -0.492348 -1.244346 1.159429 0
M  V30 54 H -0.329260 -0.328712 -2.024471 0
M  V30 55 H 2.292297 2.036709 -3.501950 0
M  V30 56 H 1.102851 1.746142 -4.811260 0
M  V30 57 H 1.966569 -0.408993 -2.865586 0
M  V30 58 H 2.590143 -0.072536 -4.515950 0
M  V30 59 H 1.011465 -2.595456 -3.834879 0
M  V30 60 H -0.234337 -2.338510 -5.108222 0
M  V30 61 H 1.579977 -2.159895 -5.462073 0
M  V30 62 H -5.066622 3.862026 -0.340682 0
M  V30 63 H -2.215729 6.083952 3.298564 0
M  V30 64 H 0.170676 5.157726 3.508924 0
M  V30 65 H 1.617316 2.743659 -0.072840 0
M  V30 66 H 3.413558 1.087078 0.664999 0
M  V30 67 H 3.634316 0.524088 3.159194 0
M  V30 68 H -3.517403 0.639285 0.368859 0
M  V30 END ATOM
M  V30 BEGIN BOND
M  V30 1 1 1 2
M  V30 2 1 2 3
M  V30 3 1 3 4
M  V30 4 1 4 5
M  V30 5 1 3 6
M  V30 6 1 6 7
M  V30 7 1 6 8
M  V30 8 1 8 9
M  V30 9 1 9 10
M  V30 10 2 10 11
M  V30 11 1 10 12
M  V30 12 2 12 13
M  V30 13 1 13 14
M  V30 14 1 14 15
M  V30 15 1 15 16
M  V30 16 1 16 17
M  V30 17 1 17 18
M  V30 18 1 18 19
M  V30 19 2 14 20
M  V30 20 1 20 21
M  V30 21 1 21 22
M  V30 22 1 22 23
M  V30 23 2 23 24
M  V30 24 1 24 25
M  V30 25 1 25 26
M  V30 26 2 26 27
M  V30 27 1 27 28
M  V30 28 1 28 29
M  V30 29 2 29 30
M  V30 30 1 30 31
M  V30 31 2 31 32
M  V30 32 1 32 33
M  V30 33 2 28 34
M  V30 34 1 34 35
M  V30 35 2 21 36
M  V30 36 1 36 12
M  V30 37 2 35 22
M  V30 38 1 35 25
M  V30 39 1 33 29
M  V30 40 1 1 37
M  V30 41 1 1 38
M  V30 42 1 1 39
M  V30 43 1 2 40
M  V30 44 1 2 41
M  V30 45 1 4 42
M  V30 46 1 4 43
M  V30 47 1 5 44
M  V30 48 1 5 45
M  V30 49 1 5 46
M  V30 50 1 6 47 CFG=1
M  V30 51 1 7 48
M  V30 52 1 7 49
M  V30 53 1 7 50
M  V30 54 1 8 51
M  V30 55 1 8 52
M  V30 56 1 9 53
M  V30 57 1 13 54
M  V30 58 1 16 55
M  V30 59 1 16 56
M  V30 60 1 17 57
M  V30 61 1 17 58
M  V30 62 1 19 59
M  V30 63 1 19 60
M  V30 64 1 19 61
M  V30 65 1 23 62
M  V30 66 1 26 63
M  V30 67 1 27 64
M  V30 68 1 30 65
M  V30 69 1 31 66
M  V30 70 1 32 67
M  V30 71 1 36 68
M  V30 END BOND
M  V30 END CTAB
M  END
>  <Dataset>  (708) 
ChEMBL_Kinases

>  <Ligand_Instance>  (708) 
nan

>  <PDB_ID>  (708) 
nan

>  <Standardized_SMILES>  (708) 
CCN(CC)[C@@H](C)CNC(=O)c1cc(OCCOC)nc(-c2cnn3ccc(-c4cccs4)nc23)c1

>  <Name>  (708) 
nan

>  <Pocket>  (708) 
nan

>  <ATP_Site>  (708) 
nan

>  <Peripheral>  (708) 
nan

>  <Num_H_Atoms_ProtBoundConf>  (708) 
nan

>  <Num_Resolved_Atoms>  (708) 
nan

>  <Num_Not_Resolved_Atoms>  (708) 
nan

$$$$
CHEMBL4210682
     RDKit          3D

  0  0  0  0  0  0  0  0  0  0999 V3000
M  V30 BEGIN CTAB
M  V30 COUNTS 63 66 0 0 0
M  V30 BEGIN ATOM
M  V30 1 C 2.014678 1.500558 3.237904 0
M  V30 2 N 2.968105 1.334621 4.293962 0
M  V30 3 C 3.760905 0.162635 4.563544 0
M  V30 4 O 4.594705 0.078254 5.540916 0
M  V30 5 C 3.921416 -1.165772 3.959290 0
M  V30 6 N 3.099976 -1.385744 2.781961 0
M  V30 7 C 3.546628 -1.114640 1.409326 0
M  V30 8 C 2.376324 -1.474149 0.568527 0
M  V30 9 C 2.271608 -1.384815 -0.803942 0
M  V30 10 C 1.080318 -1.787114 -1.402921 0
M  V30 11 C -0.003831 -2.271196 -0.699268 0
M  V30 12 C -1.239083 -2.684033 -1.356997 0
M  V30 13 N -1.805105 -1.933567 -2.320547 0
M  V30 14 C -2.928536 -2.233844 -2.971875 0
M  V30 15 N -3.460164 -1.385172 -3.979018 0
M  V30 16 C -4.680215 -1.743196 -4.660645 0
M  V30 17 C -5.870861 -1.879183 -3.746823 0
M  V30 18 C -7.007508 -2.458718 -4.581555 0
M  V30 19 O -7.329340 -1.508591 -5.553314 0
M  V30 20 C -6.289908 -1.302049 -6.443725 0
M  V30 21 C -5.030954 -0.803607 -5.767605 0
M  V30 22 N -3.523390 -3.383889 -2.618496 0
M  V30 23 C -3.045719 -4.209326 -1.670011 0
M  V30 24 C -1.879587 -3.858915 -1.021202 0
M  V30 25 Cl -1.234670 -4.915367 0.217308 0
M  V30 26 C 0.156428 -2.338527 0.669184 0
M  V30 27 C 1.315625 -1.952091 1.307379 0
M  V30 28 C 1.755087 -1.903306 2.697131 0
M  V30 29 O 1.090530 -2.251973 3.707327 0
M  V30 30 C 3.253503 2.381865 5.254066 0
M  V30 31 C 2.435404 3.615608 4.986967 0
M  V30 32 C 4.712837 2.806300 5.208981 0
M  V30 33 C 2.900420 1.867534 6.647153 0
M  V30 34 H 1.569507 2.523680 3.326203 0
M  V30 35 H 1.148057 0.813233 3.406733 0
M  V30 36 H 2.428360 1.433631 2.214930 0
M  V30 37 H 4.961591 -1.411352 3.648162 0
M  V30 38 H 3.585326 -1.957514 4.699048 0
M  V30 39 H 4.336049 -1.907820 1.225445 0
M  V30 40 H 3.937201 -0.113248 1.259267 0
M  V30 41 H 3.087818 -1.011781 -1.423440 0
M  V30 42 H 1.015587 -1.709506 -2.489164 0
M  V30 43 H -2.947956 -0.505788 -4.208066 0
M  V30 44 H -4.471308 -2.745067 -5.138629 0
M  V30 45 H -6.208782 -0.825533 -3.519716 0
M  V30 46 H -5.695904 -2.444717 -2.833007 0
M  V30 47 H -6.653852 -3.405924 -5.023432 0
M  V30 48 H -7.927203 -2.619305 -3.975968 0
M  V30 49 H -6.066603 -2.275749 -6.938022 0
M  V30 50 H -6.679529 -0.584138 -7.203447 0
M  V30 51 H -5.199458 0.201850 -5.336508 0
M  V30 52 H -4.221162 -0.811461 -6.522410 0
M  V30 53 H -3.527770 -5.116030 -1.401360 0
M  V30 54 H -0.615776 -2.695202 1.301729 0
M  V30 55 H 2.736987 4.016919 3.999254 0
M  V30 56 H 1.343552 3.450725 5.097334 0
M  V30 57 H 2.791401 4.396091 5.717527 0
M  V30 58 H 4.852185 3.822569 4.783097 0
M  V30 59 H 5.127194 2.839599 6.258603 0
M  V30 60 H 5.343258 2.115799 4.627246 0
M  V30 61 H 3.744757 2.000638 7.360315 0
M  V30 62 H 2.652080 0.782251 6.632986 0
M  V30 63 H 1.973302 2.391991 7.022607 0
M  V30 END ATOM
M  V30 BEGIN BOND
M  V30 1 1 1 2
M  V30 2 1 2 3
M  V30 3 2 3 4
M  V30 4 1 3 5
M  V30 5 1 5 6
M  V30 6 1 6 7
M  V30 7 1 7 8
M  V30 8 2 8 9
M  V30 9 1 9 10
M  V30 10 2 10 11
M  V30 11 1 11 12
M  V30 12 2 12 13
M  V30 13 1 13 14
M  V30 14 1 14 15
M  V30 15 1 15 16
M  V30 16 1 16 17
M  V30 17 1 17 18
M  V30 18 1 18 19
M  V30 19 1 19 20
M  V30 20 1 20 21
M  V30 21 2 14 22
M  V30 22 1 22 23
M  V30 23 2 23 24
M  V30 24 1 24 25
M  V30 25 1 11 26
M  V30 26 2 26 27
M  V30 27 1 27 28
M  V30 28 2 28 29
M  V30 29 1 2 30
M  V30 30 1 30 31
M  V30 31 1 30 32
M  V30 32 1 30 33
M  V30 33 1 28 6
M  V30 34 1 27 8
M  V30 35 1 24 12
M  V30 36 1 21 16
M  V30 37 1 1 34
M  V30 38 1 1 35
M  V30 39 1 1 36
M  V30 40 1 5 37
M  V30 41 1 5 38
M  V30 42 1 7 39
M  V30 43 1 7 40
M  V30 44 1 9 41
M  V30 45 1 10 42
M  V30 46 1 15 43
M  V30 47 1 16 44
M  V30 48 1 17 45
M  V30 49 1 17 46
M  V30 50 1 18 47
M  V30 51 1 18 48
M  V30 52 1 20 49
M  V30 53 1 20 50
M  V30 54 1 21 51
M  V30 55 1 21 52
M  V30 56 1 23 53
M  V30 57 1 26 54
M  V30 58 1 31 55
M  V30 59 1 31 56
M  V30 60 1 31 57
M  V30 61 1 32 58
M  V30 62 1 32 59
M  V30 63 1 32 60
M  V30 64 1 33 61
M  V30 65 1 33 62
M  V30 66 1 33 63
M  V30 END BOND
M  V30 END CTAB
M  END
>  <Dataset>  (709) 
ChEMBL_Kinases

>  <Ligand_Instance>  (709) 
nan

>  <PDB_ID>  (709) 
nan

>  <Standardized_SMILES>  (709) 
CN(C(=O)CN1Cc2ccc(-c3nc(NC4CCOCC4)ncc3Cl)cc2C1=O)C(C)(C)C

>  <Name>  (709) 
nan

>  <Pocket>  (709) 
nan

>  <ATP_Site>  (709) 
nan

>  <Peripheral>  (709) 
nan

>  <Num_H_Atoms_ProtBoundConf>  (709) 
nan

>  <Num_Resolved_Atoms>  (709) 
nan

>  <Num_Not_Resolved_Atoms>  (709) 
nan

$$$$
CHEMBL4210617
     RDKit          3D

  0  0  0  0  0  0  0  0  0  0999 V3000
M  V30 BEGIN CTAB
M  V30 COUNTS 47 49 0 0 0
M  V30 BEGIN ATOM
M  V30 1 O 1.335763 0.134026 0.080622 0
M  V30 2 C 0.099962 0.311852 -0.176184 0
M  V30 3 N -0.093833 0.333233 -1.588234 0
M  V30 4 C 1.097631 0.156847 -2.383677 0
M  V30 5 C 1.462121 -1.144908 -2.739350 0
M  V30 6 C 2.614438 -1.325813 -3.509555 0
M  V30 7 C 3.347837 -0.201346 -3.888149 0
M  V30 8 F 4.479054 -0.281212 -4.635454 0
M  V30 9 C 2.959514 1.066966 -3.519891 0
M  V30 10 C 1.824967 1.278253 -2.758578 0
M  V30 11 F 1.372347 2.488431 -2.353481 0
M  V30 12 C -1.091032 0.488374 0.658985 0 CFG=2
M  V30 13 N -0.807129 0.454030 2.076097 0
M  V30 14 C 0.097466 1.457809 2.524927 0
M  V30 15 C 0.257430 1.243434 4.035044 0
M  V30 16 C 0.801728 -0.120625 4.304070 0
M  V30 17 C 2.199133 -0.139512 4.339114 0
M  V30 18 C 2.865542 -1.333446 4.578873 0
M  V30 19 C 2.143860 -2.493751 4.781025 0
M  V30 20 F 2.764983 -3.688027 5.019831 0
M  V30 21 C 0.764220 -2.455826 4.742799 0
M  V30 22 C 0.073961 -1.274226 4.504823 0
M  V30 23 C -2.122462 -0.564533 0.408126 0
M  V30 24 C -3.226492 -0.325967 -0.387927 0
M  V30 25 C -4.203012 -1.278795 -0.642433 0
M  V30 26 C -4.075638 -2.537405 -0.075010 0
M  V30 27 C -2.969246 -2.803910 0.733341 0
M  V30 28 C -2.002082 -1.831028 0.974137 0
M  V30 29 H -1.054793 0.470456 -2.011460 0
M  V30 30 H 0.900337 -2.002147 -2.448971 0
M  V30 31 H 2.966956 -2.304937 -3.828342 0
M  V30 32 H 3.531659 1.944729 -3.815188 0
M  V30 33 H -1.558832 1.481945 0.459957 0
M  V30 34 H -1.668802 0.473198 2.627331 0
M  V30 35 H -0.369079 2.474340 2.429772 0
M  V30 36 H 1.052030 1.492022 1.999897 0
M  V30 37 H 0.855166 2.025772 4.512623 0
M  V30 38 H -0.774325 1.259328 4.448368 0
M  V30 39 H 2.868512 0.682297 4.199505 0
M  V30 40 H 3.942010 -1.435872 4.622415 0
M  V30 41 H 0.126797 -3.327199 4.892465 0
M  V30 42 H -0.996188 -1.155211 4.458303 0
M  V30 43 H -3.362155 0.636497 -0.846243 0
M  V30 44 H -5.068400 -1.096550 -1.264584 0
M  V30 45 H -4.781475 -3.340580 -0.214756 0
M  V30 46 H -2.845679 -3.794246 1.194705 0
M  V30 47 H -1.144684 -2.041036 1.601910 0
M  V30 END ATOM
M  V30 BEGIN BOND
M  V30 1 2 1 2
M  V30 2 1 2 3
M  V30 3 1 3 4
M  V30 4 2 4 5
M  V30 5 1 5 6
M  V30 6 2 6 7
M  V30 7 1 7 8
M  V30 8 1 7 9
M  V30 9 2 9 10
M  V30 10 1 10 11
M  V30 11 1 2 12
M  V30 12 1 12 13
M  V30 13 1 13 14
M  V30 14 1 14 15
M  V30 15 1 15 16
M  V30 16 2 16 17
M  V30 17 1 17 18
M  V30 18 2 18 19
M  V30 19 1 19 20
M  V30 20 1 19 21
M  V30 21 2 21 22
M  V30 22 1 12 23
M  V30 23 2 23 24
M  V30 24 1 24 25
M  V30 25 2 25 26
M  V30 26 1 26 27
M  V30 27 2 27 28
M  V30 28 1 10 4
M  V30 29 1 22 16
M  V30 30 1 28 23
M  V30 31 1 3 29
M  V30 32 1 5 30
M  V30 33 1 6 31
M  V30 34 1 9 32
M  V30 35 1 12 33 CFG=3
M  V30 36 1 13 34
M  V30 37 1 14 35
M  V30 38 1 14 36
M  V30 39 1 15 37
M  V30 40 1 15 38
M  V30 41 1 17 39
M  V30 42 1 18 40
M  V30 43 1 21 41
M  V30 44 1 22 42
M  V30 45 1 24 43
M  V30 46 1 25 44
M  V30 47 1 26 45
M  V30 48 1 27 46
M  V30 49 1 28 47
M  V30 END BOND
M  V30 END CTAB
M  END
>  <Dataset>  (710) 
ChEMBL_Kinases

>  <Ligand_Instance>  (710) 
nan

>  <PDB_ID>  (710) 
nan

>  <Standardized_SMILES>  (710) 
O=C(Nc1ccc(F)cc1F)[C@H](NCCc1ccc(F)cc1)c1ccccc1

>  <Name>  (710) 
nan

>  <Pocket>  (710) 
nan

>  <ATP_Site>  (710) 
nan

>  <Peripheral>  (710) 
nan

>  <Num_H_Atoms_ProtBoundConf>  (710) 
nan

>  <Num_Resolved_Atoms>  (710) 
nan

>  <Num_Not_Resolved_Atoms>  (710) 
nan

$$$$
CHEMBL4210571
     RDKit          3D

  0  0  0  0  0  0  0  0  0  0999 V3000
M  V30 BEGIN CTAB
M  V30 COUNTS 70 73 0 0 0
M  V30 BEGIN ATOM
M  V30 1 C 0.745972 0.995886 5.564170 0
M  V30 2 O 0.057384 0.534680 4.450788 0
M  V30 3 C 0.502000 0.409036 3.164087 0
M  V30 4 C 1.768941 0.730533 2.719933 0
M  V30 5 C 2.158742 0.578065 1.387700 0
M  V30 6 C 3.506089 0.932356 0.924726 0
M  V30 7 O 3.751622 0.598827 -0.272846 0
M  V30 8 N 4.461724 1.588477 1.719658 0
M  V30 9 C 5.804776 1.946628 1.264100 0
M  V30 10 C 5.621392 2.874341 0.081817 0
M  V30 11 N 6.902907 3.305493 -0.456791 0
M  V30 12 C 6.625761 4.183581 -1.581966 0
M  V30 13 C 7.673829 2.150552 -0.857437 0
M  V30 14 C 1.194778 0.083768 0.534986 0
M  V30 15 C -0.082108 -0.250118 0.933224 0
M  V30 16 C -0.439222 -0.087086 2.269660 0
M  V30 17 N -1.752842 -0.461407 2.694797 0
M  V30 18 C -2.717619 -0.858178 1.702605 0
M  V30 19 N -3.634816 0.146355 1.655553 0
M  V30 20 C -4.701066 0.133466 0.820006 0
M  V30 21 C -4.879031 -0.943440 -0.031282 0
M  V30 22 C -3.914232 -1.922594 0.068577 0
M  V30 23 N -2.846515 -1.926614 0.895547 0
M  V30 24 N -4.000016 -3.066016 -0.783799 0
M  V30 25 C -3.482655 -4.353350 -0.519269 0
M  V30 26 C -2.439570 -4.656038 -1.594266 0
M  V30 27 C -1.166893 -5.033779 -0.879226 0
M  V30 28 C -1.383459 -4.765393 0.576642 0
M  V30 29 C -2.888786 -4.707197 0.748771 0
M  V30 30 C -4.689240 -2.900781 -2.077090 0 CFG=2
M  V30 31 C -3.855310 -1.908283 -2.894718 0
M  V30 32 C -6.005355 -2.255753 -1.767650 0
M  V30 33 O -7.165712 -2.620315 -2.148132 0
M  V30 34 N -5.936401 -1.084709 -0.941573 0
M  V30 35 C -6.938220 -0.024318 -1.013512 0
M  V30 36 H 1.632582 1.560363 5.242348 0
M  V30 37 H 1.011734 0.102126 6.193407 0
M  V30 38 H 0.027167 1.654715 6.128695 0
M  V30 39 H 2.467540 1.112257 3.449929 0
M  V30 40 H 4.201467 1.844603 2.712476 0
M  V30 41 H 6.360305 2.428224 2.079831 0
M  V30 42 H 6.314233 1.010015 0.909363 0
M  V30 43 H 5.113567 2.371724 -0.767243 0
M  V30 44 H 4.975724 3.733309 0.339674 0
M  V30 45 H 6.337767 5.196393 -1.221873 0
M  V30 46 H 5.721020 3.772434 -2.089719 0
M  V30 47 H 7.425892 4.170490 -2.324471 0
M  V30 48 H 7.019408 1.261490 -0.973487 0
M  V30 49 H 8.228271 2.352168 -1.797246 0
M  V30 50 H 8.398452 1.911702 -0.051203 0
M  V30 51 H 1.457172 -0.055578 -0.521863 0
M  V30 52 H -0.841796 -0.637944 0.262231 0
M  V30 53 H -1.982021 -0.442045 3.709437 0
M  V30 54 H -5.445826 0.916124 0.761449 0
M  V30 55 H -4.332227 -5.063580 -0.761645 0
M  V30 56 H -2.190395 -3.728745 -2.188483 0
M  V30 57 H -2.758734 -5.394605 -2.328175 0
M  V30 58 H -0.996556 -6.125096 -1.109149 0
M  V30 59 H -0.282105 -4.501489 -1.256326 0
M  V30 60 H -0.925901 -5.643760 1.123505 0
M  V30 61 H -0.851046 -3.885575 0.973597 0
M  V30 62 H -3.184697 -4.166458 1.665543 0
M  V30 63 H -3.161949 -5.778188 1.005392 0
M  V30 64 H -4.815176 -3.827062 -2.624400 0
M  V30 65 H -4.487019 -1.031406 -3.186608 0
M  V30 66 H -3.374624 -2.364875 -3.764126 0
M  V30 67 H -3.034162 -1.477506 -2.257084 0
M  V30 68 H -7.621445 -0.132051 -0.122845 0
M  V30 69 H -6.497459 0.990989 -0.978840 0
M  V30 70 H -7.484239 -0.134165 -1.971378 0
M  V30 END ATOM
M  V30 BEGIN BOND
M  V30 1 1 1 2
M  V30 2 1 2 3
M  V30 3 2 3 4
M  V30 4 1 4 5
M  V30 5 1 5 6
M  V30 6 2 6 7
M  V30 7 1 6 8
M  V30 8 1 8 9
M  V30 9 1 9 10
M  V30 10 1 10 11
M  V30 11 1 11 12
M  V30 12 1 11 13
M  V30 13 2 5 14
M  V30 14 1 14 15
M  V30 15 2 15 16
M  V30 16 1 16 17
M  V30 17 1 17 18
M  V30 18 2 18 19
M  V30 19 1 19 20
M  V30 20 2 20 21
M  V30 21 1 21 22
M  V30 22 2 22 23
M  V30 23 1 22 24
M  V30 24 1 24 25
M  V30 25 1 25 26
M  V30 26 1 26 27
M  V30 27 1 27 28
M  V30 28 1 28 29
M  V30 29 1 24 30
M  V30 30 1 30 31
M  V30 31 1 30 32
M  V30 32 2 32 33
M  V30 33 1 32 34
M  V30 34 1 34 35
M  V30 35 1 16 3
M  V30 36 1 23 18
M  V30 37 1 29 25
M  V30 38 1 34 21
M  V30 39 1 1 36
M  V30 40 1 1 37
M  V30 41 1 1 38
M  V30 42 1 4 39
M  V30 43 1 8 40
M  V30 44 1 9 41
M  V30 45 1 9 42
M  V30 46 1 10 43
M  V30 47 1 10 44
M  V30 48 1 12 45
M  V30 49 1 12 46
M  V30 50 1 12 47
M  V30 51 1 13 48
M  V30 52 1 13 49
M  V30 53 1 13 50
M  V30 54 1 14 51
M  V30 55 1 15 52
M  V30 56 1 17 53
M  V30 57 1 20 54
M  V30 58 1 25 55
M  V30 59 1 26 56
M  V30 60 1 26 57
M  V30 61 1 27 58
M  V30 62 1 27 59
M  V30 63 1 28 60
M  V30 64 1 28 61
M  V30 65 1 29 62
M  V30 66 1 29 63
M  V30 67 1 30 64 CFG=3
M  V30 68 1 31 65
M  V30 69 1 31 66
M  V30 70 1 31 67
M  V30 71 1 35 68
M  V30 72 1 35 69
M  V30 73 1 35 70
M  V30 END BOND
M  V30 END CTAB
M  END
>  <Dataset>  (711) 
ChEMBL_Kinases

>  <Ligand_Instance>  (711) 
nan

>  <PDB_ID>  (711) 
nan

>  <Standardized_SMILES>  (711) 
COc1cc(C(=O)NCCN(C)C)ccc1Nc1ncc2c(n1)N(C1CCCC1)[C@H](C)C(=O)N2C

>  <Name>  (711) 
nan

>  <Pocket>  (711) 
nan

>  <ATP_Site>  (711) 
nan

>  <Peripheral>  (711) 
nan

>  <Num_H_Atoms_ProtBoundConf>  (711) 
nan

>  <Num_Resolved_Atoms>  (711) 
nan

>  <Num_Not_Resolved_Atoms>  (711) 
nan

$$$$
CHEMBL4210568
     RDKit          3D

  0  0  0  0  0  0  0  0  0  0999 V3000
M  V30 BEGIN CTAB
M  V30 COUNTS 55 58 0 0 0
M  V30 BEGIN ATOM
M  V30 1 C 1.585725 -1.513237 4.281254 0
M  V30 2 C 2.965308 -0.940234 4.063723 0
M  V30 3 N 3.050884 -0.371305 2.696875 0
M  V30 4 C 4.436746 0.144052 2.628906 0
M  V30 5 C 4.593036 1.324368 3.559729 0
M  V30 6 C 2.891059 -1.489322 1.814418 0
M  V30 7 C 2.860656 -1.175044 0.355721 0
M  V30 8 N 1.737291 -0.331494 0.026289 0
M  V30 9 C 1.280027 0.938690 0.382913 0
M  V30 10 O 1.988337 1.568932 1.204939 0
M  V30 11 C 0.087482 1.579691 -0.099727 0
M  V30 12 C -0.205019 2.826290 0.377661 0
M  V30 13 C -1.339582 3.535264 -0.028428 0
M  V30 14 C -2.219543 2.996880 -0.939110 0
M  V30 15 C -1.941251 1.732487 -1.436501 0
M  V30 16 C -2.809052 1.053566 -2.414572 0
M  V30 17 C -3.413638 1.557382 -3.570031 0
M  V30 18 N -4.101641 0.535926 -4.107514 0
M  V30 19 N -3.979124 -0.564352 -3.387120 0
M  V30 20 C -4.491061 -1.800477 -3.556782 0
M  V30 21 C -4.173482 -2.759328 -2.613060 0
M  V30 22 C -3.366023 -2.487655 -1.530016 0
M  V30 23 C -3.000715 -3.471965 -0.502722 0
M  V30 24 C -3.365383 -4.755118 -0.426258 0
M  V30 25 C -2.954751 -5.552549 0.577813 0
M  V30 26 C -2.112643 -4.916536 1.532594 0
M  V30 27 S -1.987145 -3.147404 0.861311 0
M  V30 28 N -2.886575 -1.237002 -1.416279 0
M  V30 29 C -3.182922 -0.287454 -2.323924 0
M  V30 30 C -0.797354 1.051063 -1.008635 0
M  V30 31 H 1.547882 -2.605654 4.080198 0
M  V30 32 H 1.305659 -1.353641 5.353196 0
M  V30 33 H 0.853061 -1.022805 3.597745 0
M  V30 34 H 3.713190 -1.744267 4.157068 0
M  V30 35 H 3.144707 -0.075421 4.738068 0
M  V30 36 H 4.716855 0.431370 1.606811 0
M  V30 37 H 5.089202 -0.671180 3.016307 0
M  V30 38 H 3.631246 1.880152 3.669965 0
M  V30 39 H 4.899935 1.046746 4.578781 0
M  V30 40 H 5.368235 2.043080 3.165771 0
M  V30 41 H 3.619500 -2.300876 2.052594 0
M  V30 42 H 1.893150 -1.950440 2.077658 0
M  V30 43 H 2.858213 -2.120145 -0.191118 0
M  V30 44 H 3.813906 -0.632309 0.082459 0
M  V30 45 H 1.076126 -0.773137 -0.664682 0
M  V30 46 H 0.418800 3.361152 1.106460 0
M  V30 47 H -1.546352 4.518551 0.364987 0
M  V30 48 H -3.114877 3.481564 -1.300912 0
M  V30 49 H -3.301684 2.579805 -3.899863 0
M  V30 50 H -5.135325 -2.081443 -4.388807 0
M  V30 51 H -4.559816 -3.765547 -2.705355 0
M  V30 52 H -4.022461 -5.183197 -1.204165 0
M  V30 53 H -3.188397 -6.596088 0.734652 0
M  V30 54 H -1.676714 -5.528649 2.484763 0
M  V30 55 H -0.608609 0.077327 -1.408800 0
M  V30 END ATOM
M  V30 BEGIN BOND
M  V30 1 1 1 2
M  V30 2 1 2 3
M  V30 3 1 3 4
M  V30 4 1 4 5
M  V30 5 1 3 6
M  V30 6 1 6 7
M  V30 7 1 7 8
M  V30 8 1 8 9
M  V30 9 2 9 10
M  V30 10 1 9 11
M  V30 11 2 11 12
M  V30 12 1 12 13
M  V30 13 2 13 14
M  V30 14 1 14 15
M  V30 15 1 15 16
M  V30 16 1 16 17
M  V30 17 2 17 18
M  V30 18 1 18 19
M  V30 19 1 19 20
M  V30 20 2 20 21
M  V30 21 1 21 22
M  V30 22 1 22 23
M  V30 23 2 23 24
M  V30 24 1 24 25
M  V30 25 2 25 26
M  V30 26 1 26 27
M  V30 27 2 22 28
M  V30 28 1 28 29
M  V30 29 2 15 30
M  V30 30 1 30 11
M  V30 31 2 29 16
M  V30 32 1 29 19
M  V30 33 1 27 23
M  V30 34 1 1 31
M  V30 35 1 1 32
M  V30 36 1 1 33
M  V30 37 1 2 34
M  V30 38 1 2 35
M  V30 39 1 4 36
M  V30 40 1 4 37
M  V30 41 1 5 38
M  V30 42 1 5 39
M  V30 43 1 5 40
M  V30 44 1 6 41
M  V30 45 1 6 42
M  V30 46 1 7 43
M  V30 47 1 7 44
M  V30 48 1 8 45
M  V30 49 1 12 46
M  V30 50 1 13 47
M  V30 51 1 14 48
M  V30 52 1 17 49
M  V30 53 1 20 50
M  V30 54 1 21 51
M  V30 55 1 24 52
M  V30 56 1 25 53
M  V30 57 1 26 54
M  V30 58 1 30 55
M  V30 END BOND
M  V30 END CTAB
M  END
>  <Dataset>  (712) 
ChEMBL_Kinases

>  <Ligand_Instance>  (712) 
nan

>  <PDB_ID>  (712) 
nan

>  <Standardized_SMILES>  (712) 
CCN(CC)CCNC(=O)c1cccc(-c2cnn3ccc(-c4cccs4)nc23)c1

>  <Name>  (712) 
nan

>  <Pocket>  (712) 
nan

>  <ATP_Site>  (712) 
nan

>  <Peripheral>  (712) 
nan

>  <Num_H_Atoms_ProtBoundConf>  (712) 
nan

>  <Num_Resolved_Atoms>  (712) 
nan

>  <Num_Not_Resolved_Atoms>  (712) 
nan

$$$$
CHEMBL4210511
     RDKit          3D

  0  0  0  0  0  0  0  0  0  0999 V3000
M  V30 BEGIN CTAB
M  V30 COUNTS 34 36 0 0 0
M  V30 BEGIN ATOM
M  V30 1 C -1.496226 -1.068026 2.834170 0
M  V30 2 N -1.205542 -0.066819 1.800823 0
M  V30 3 C -0.101208 -0.219935 0.924653 0
M  V30 4 C 0.542816 -1.317603 0.470996 0
M  V30 5 C 1.578405 -1.160640 -0.369792 0
M  V30 6 C 2.460444 -2.128030 -1.022506 0
M  V30 7 C 2.245279 -3.467911 -0.772322 0
M  V30 8 C 3.115027 -4.319816 -1.421848 0
M  V30 9 N 4.102875 -3.911244 -2.238998 0
M  V30 10 C 4.298915 -2.605461 -2.471847 0
M  V30 11 C 3.462488 -1.669374 -1.853949 0
M  V30 12 S 1.709090 0.634894 -0.578449 0
M  V30 13 C 0.380945 1.045012 0.464388 0
M  V30 14 C -0.225737 2.304762 0.876391 0
M  V30 15 O 0.319882 3.325527 0.381204 0
M  V30 16 N -1.355372 2.343655 1.777523 0
M  V30 17 C -2.093405 1.076929 1.718604 0
M  V30 18 C -3.146679 1.062251 2.764327 0
M  V30 19 C -2.750621 1.030517 0.355847 0
M  V30 20 H -0.652771 -1.761026 2.950772 0
M  V30 21 H -1.603400 -0.512170 3.788165 0
M  V30 22 H -2.389951 -1.671310 2.578632 0
M  V30 23 H 0.282911 -2.331875 0.739690 0
M  V30 24 H 1.454236 -3.783103 -0.118660 0
M  V30 25 H 2.992227 -5.394473 -1.261171 0
M  V30 26 H 5.068822 -2.203295 -3.113556 0
M  V30 27 H 3.603008 -0.597547 -2.028693 0
M  V30 28 H -1.472843 3.227128 2.312029 0
M  V30 29 H -2.746766 1.177298 3.790911 0
M  V30 30 H -3.849877 0.226957 2.630747 0
M  V30 31 H -3.753457 2.001744 2.605442 0
M  V30 32 H -2.107616 0.558128 -0.413488 0
M  V30 33 H -3.751875 0.554339 0.376210 0
M  V30 34 H -2.915631 2.077035 -0.018003 0
M  V30 END ATOM
M  V30 BEGIN BOND
M  V30 1 1 1 2
M  V30 2 1 2 3
M  V30 3 1 3 4
M  V30 4 2 4 5
M  V30 5 1 5 6
M  V30 6 2 6 7
M  V30 7 1 7 8
M  V30 8 2 8 9
M  V30 9 1 9 10
M  V30 10 2 10 11
M  V30 11 1 5 12
M  V30 12 1 12 13
M  V30 13 1 13 14
M  V30 14 2 14 15
M  V30 15 1 14 16
M  V30 16 1 16 17
M  V30 17 1 17 18
M  V30 18 1 17 19
M  V30 19 1 17 2
M  V30 20 2 13 3
M  V30 21 1 11 6
M  V30 22 1 1 20
M  V30 23 1 1 21
M  V30 24 1 1 22
M  V30 25 1 4 23
M  V30 26 1 7 24
M  V30 27 1 8 25
M  V30 28 1 10 26
M  V30 29 1 11 27
M  V30 30 1 16 28
M  V30 31 1 18 29
M  V30 32 1 18 30
M  V30 33 1 18 31
M  V30 34 1 19 32
M  V30 35 1 19 33
M  V30 36 1 19 34
M  V30 END BOND
M  V30 END CTAB
M  END
>  <Dataset>  (713) 
ChEMBL_Kinases

>  <Ligand_Instance>  (713) 
nan

>  <PDB_ID>  (713) 
nan

>  <Standardized_SMILES>  (713) 
CN1c2cc(-c3ccncc3)sc2C(=O)NC1(C)C

>  <Name>  (713) 
nan

>  <Pocket>  (713) 
nan

>  <ATP_Site>  (713) 
nan

>  <Peripheral>  (713) 
nan

>  <Num_H_Atoms_ProtBoundConf>  (713) 
nan

>  <Num_Resolved_Atoms>  (713) 
nan

>  <Num_Not_Resolved_Atoms>  (713) 
nan

$$$$
CHEMBL4210498
     RDKit          3D

  0  0  0  0  0  0  0  0  0  0999 V3000
M  V30 BEGIN CTAB
M  V30 COUNTS 30 32 0 0 0
M  V30 BEGIN ATOM
M  V30 1 O 1.674506 -4.467788 0.122000 0
M  V30 2 C 1.834601 -3.287965 0.469077 0
M  V30 3 N 3.082799 -2.801357 1.005437 0
M  V30 4 C 2.992042 -1.418204 1.319715 0
M  V30 5 C 3.862146 -0.484972 1.841540 0
M  V30 6 C 3.487158 0.833567 2.045183 0
M  V30 7 C 2.207166 1.201331 1.711022 0
M  V30 8 F 1.829323 2.494859 1.907471 0
M  V30 9 C 1.337864 0.262229 1.188001 0
M  V30 10 C 1.729799 -1.022832 0.998333 0
M  V30 11 C 0.928671 -2.117491 0.459246 0
M  V30 12 N -0.246888 -2.268605 0.030594 0
M  V30 13 N -1.281129 -1.392668 -0.095270 0
M  V30 14 C -1.468765 -0.321812 -1.086033 0
M  V30 15 C -2.488728 0.620169 -0.545343 0
M  V30 16 O -2.365165 0.889502 0.798840 0
M  V30 17 C -2.392668 -0.200781 1.616740 0
M  V30 18 C -2.357778 -1.518351 0.869829 0
M  V30 19 H 3.963016 -3.337993 1.164582 0
M  V30 20 H 4.878307 -0.787807 2.104112 0
M  V30 21 H 4.170438 1.567655 2.455270 0
M  V30 22 H 0.364304 0.606805 0.950001 0
M  V30 23 H -1.869537 -0.756717 -2.027403 0
M  V30 24 H -0.491344 0.116534 -1.297955 0
M  V30 25 H -2.319103 1.600341 -1.067132 0
M  V30 26 H -3.523198 0.322415 -0.840097 0
M  V30 27 H -1.475247 -0.187381 2.265838 0
M  V30 28 H -3.265049 -0.241850 2.298293 0
M  V30 29 H -3.357028 -1.568281 0.344559 0
M  V30 30 H -2.237638 -2.349694 1.576453 0
M  V30 END ATOM
M  V30 BEGIN BOND
M  V30 1 2 1 2
M  V30 2 1 2 3
M  V30 3 1 3 4
M  V30 4 2 4 5
M  V30 5 1 5 6
M  V30 6 2 6 7
M  V30 7 1 7 8
M  V30 8 1 7 9
M  V30 9 2 9 10
M  V30 10 1 10 11
M  V30 11 2 11 12 CFG=2
M  V30 12 1 12 13
M  V30 13 1 13 14
M  V30 14 1 14 15
M  V30 15 1 15 16
M  V30 16 1 16 17
M  V30 17 1 17 18
M  V30 18 1 11 2
M  V30 19 1 18 13
M  V30 20 1 10 4
M  V30 21 1 3 19
M  V30 22 1 5 20
M  V30 23 1 6 21
M  V30 24 1 9 22
M  V30 25 1 14 23
M  V30 26 1 14 24
M  V30 27 1 15 25
M  V30 28 1 15 26
M  V30 29 1 17 27
M  V30 30 1 17 28
M  V30 31 1 18 29
M  V30 32 1 18 30
M  V30 END BOND
M  V30 END CTAB
M  END
>  <Dataset>  (714) 
ChEMBL_Kinases

>  <Ligand_Instance>  (714) 
nan

>  <PDB_ID>  (714) 
nan

>  <Standardized_SMILES>  (714) 
O=C1Nc2ccc(F)cc2C1=NN1CCOCC1

>  <Name>  (714) 
nan

>  <Pocket>  (714) 
nan

>  <ATP_Site>  (714) 
nan

>  <Peripheral>  (714) 
nan

>  <Num_H_Atoms_ProtBoundConf>  (714) 
nan

>  <Num_Resolved_Atoms>  (714) 
nan

>  <Num_Not_Resolved_Atoms>  (714) 
nan

$$$$
CHEMBL4210482
     RDKit          3D

  0  0  0  0  0  0  0  0  0  0999 V3000
M  V30 BEGIN CTAB
M  V30 COUNTS 59 63 0 0 0
M  V30 BEGIN ATOM
M  V30 1 C 1.494351 -4.224841 2.523864 0
M  V30 2 C 1.389419 -2.774405 2.831690 0
M  V30 3 C 1.816680 -2.237086 4.029211 0
M  V30 4 C 1.727001 -0.892979 4.332059 0
M  V30 5 C 1.185844 -0.033418 3.401167 0
M  V30 6 N 1.033416 1.383650 3.585939 0
M  V30 7 C 2.101048 2.232454 3.182347 0
M  V30 8 O 3.101080 1.654626 2.690831 0
M  V30 9 C 2.103395 3.684758 3.301354 0
M  V30 10 C 3.233782 4.336126 2.853604 0
M  V30 11 C 3.209464 5.718195 2.978631 0
M  V30 12 C 2.155711 6.437761 3.505692 0
M  V30 13 C 1.035284 5.740976 3.945270 0
M  V30 14 C -0.102745 6.494523 4.512527 0
M  V30 15 F -1.268752 5.856110 4.073896 0
M  V30 16 F -0.104148 6.564643 5.874392 0
M  V30 17 F -0.152637 7.765856 3.932279 0
M  V30 18 C 1.030742 4.368661 3.833855 0
M  V30 19 C 0.760047 -0.596505 2.197243 0
M  V30 20 C 0.850344 -1.955794 1.890057 0
M  V30 21 N 0.368354 -2.364690 0.614173 0
M  V30 22 C -1.037739 -2.700425 0.744053 0
M  V30 23 C -1.645363 -3.141364 -0.530625 0
M  V30 24 C -2.984065 -3.473056 -0.461924 0
M  V30 25 N -3.600622 -3.884340 -1.592691 0
M  V30 26 C -2.938759 -3.977675 -2.783707 0
M  V30 27 N -3.599122 -4.414179 -3.976949 0
M  V30 28 C -2.898255 -4.514194 -5.243547 0
M  V30 29 C -3.730234 -4.992790 -6.426651 0
M  V30 30 C -3.196285 -3.596668 -6.368994 0
M  V30 31 N -1.617645 -3.649176 -2.846268 0
M  V30 32 C -0.962816 -3.230792 -1.728183 0
M  V30 33 N 0.406123 -2.888594 -1.785183 0
M  V30 34 C 1.165783 -2.961266 -2.997266 0
M  V30 35 C 1.088605 -2.450478 -0.610908 0
M  V30 36 O 2.296954 -2.119698 -0.532048 0
M  V30 37 H 1.494457 -4.387577 1.433705 0
M  V30 38 H 0.688662 -4.775893 3.048219 0
M  V30 39 H 2.447024 -4.577281 2.992935 0
M  V30 40 H 2.248469 -2.918790 4.773538 0
M  V30 41 H 2.054470 -0.460230 5.257868 0
M  V30 42 H 0.185733 1.828334 3.998858 0
M  V30 43 H 4.107567 3.862079 2.426698 0
M  V30 44 H 4.090522 6.275235 2.633723 0
M  V30 45 H 2.243090 7.520597 3.556420 0
M  V30 46 H 0.148194 3.857812 4.183256 0
M  V30 47 H 0.329000 0.087644 1.455555 0
M  V30 48 H -1.089901 -3.574943 1.448197 0
M  V30 49 H -1.604916 -1.883249 1.228781 0
M  V30 50 H -3.561525 -3.417526 0.460737 0
M  V30 51 H -4.610602 -4.659731 -3.902281 0
M  V30 52 H -1.886587 -5.001786 -5.240324 0
M  V30 53 H -4.840305 -5.133644 -6.277187 0
M  V30 54 H -3.304153 -5.666504 -7.172687 0
M  V30 55 H -3.964405 -2.806542 -6.231138 0
M  V30 56 H -2.356359 -3.353675 -7.070078 0
M  V30 57 H 1.822853 -3.875901 -2.952453 0
M  V30 58 H 1.854290 -2.102019 -3.129792 0
M  V30 59 H 0.459051 -3.015277 -3.862194 0
M  V30 END ATOM
M  V30 BEGIN BOND
M  V30 1 1 1 2
M  V30 2 2 2 3
M  V30 3 1 3 4
M  V30 4 2 4 5
M  V30 5 1 5 6
M  V30 6 1 6 7
M  V30 7 2 7 8
M  V30 8 1 7 9
M  V30 9 2 9 10
M  V30 10 1 10 11
M  V30 11 2 11 12
M  V30 12 1 12 13
M  V30 13 1 13 14
M  V30 14 1 14 15
M  V30 15 1 14 16
M  V30 16 1 14 17
M  V30 17 2 13 18
M  V30 18 1 5 19
M  V30 19 2 19 20
M  V30 20 1 20 21
M  V30 21 1 21 22
M  V30 22 1 22 23
M  V30 23 2 23 24
M  V30 24 1 24 25
M  V30 25 2 25 26
M  V30 26 1 26 27
M  V30 27 1 27 28
M  V30 28 1 28 29
M  V30 29 1 29 30
M  V30 30 1 26 31
M  V30 31 2 31 32
M  V30 32 1 32 33
M  V30 33 1 33 34
M  V30 34 1 33 35
M  V30 35 2 35 36
M  V30 36 1 20 2
M  V30 37 1 35 21
M  V30 38 1 18 9
M  V30 39 1 32 23
M  V30 40 1 30 28
M  V30 41 1 1 37
M  V30 42 1 1 38
M  V30 43 1 1 39
M  V30 44 1 3 40
M  V30 45 1 4 41
M  V30 46 1 6 42
M  V30 47 1 10 43
M  V30 48 1 11 44
M  V30 49 1 12 45
M  V30 50 1 18 46
M  V30 51 1 19 47
M  V30 52 1 22 48
M  V30 53 1 22 49
M  V30 54 1 24 50
M  V30 55 1 27 51
M  V30 56 1 28 52
M  V30 57 1 29 53
M  V30 58 1 29 54
M  V30 59 1 30 55
M  V30 60 1 30 56
M  V30 61 1 34 57
M  V30 62 1 34 58
M  V30 63 1 34 59
M  V30 END BOND
M  V30 END CTAB
M  END
>  <Dataset>  (715) 
ChEMBL_Kinases

>  <Ligand_Instance>  (715) 
nan

>  <PDB_ID>  (715) 
nan

>  <Standardized_SMILES>  (715) 
Cc1ccc(NC(=O)c2cccc(C(F)(F)F)c2)cc1N1Cc2cnc(NC3CC3)nc2N(C)C1=O

>  <Name>  (715) 
nan

>  <Pocket>  (715) 
nan

>  <ATP_Site>  (715) 
nan

>  <Peripheral>  (715) 
nan

>  <Num_H_Atoms_ProtBoundConf>  (715) 
nan

>  <Num_Resolved_Atoms>  (715) 
nan

>  <Num_Not_Resolved_Atoms>  (715) 
nan

$$$$
CHEMBL4210246
     RDKit          3D

  0  0  0  0  0  0  0  0  0  0999 V3000
M  V30 BEGIN CTAB
M  V30 COUNTS 37 40 0 0 0
M  V30 BEGIN ATOM
M  V30 1 C 1.258244 -5.728384 3.446801 0
M  V30 2 C 1.766352 -4.459714 2.862656 0
M  V30 3 C 3.079886 -4.078291 3.141604 0
M  V30 4 C 3.443225 -2.891831 2.551504 0
M  V30 5 C 2.659226 -2.089995 1.749516 0
M  V30 6 C 1.378445 -2.549175 1.531393 0
M  V30 7 C 0.463269 -1.777409 0.696613 0
M  V30 8 N 0.819828 -0.600113 0.109571 0
M  V30 9 C -0.052018 0.086814 -0.655896 0
M  V30 10 N 0.350515 1.314624 -1.256133 0
M  V30 11 C 0.255484 2.645274 -0.742057 0
M  V30 12 C -0.487559 3.605332 -1.432929 0
M  V30 13 C -0.615967 4.904370 -0.987178 0
M  V30 14 N -0.010792 5.253240 0.139474 0
M  V30 15 C 0.713219 4.352524 0.829978 0
M  V30 16 C 0.876958 3.035471 0.430865 0
M  V30 17 F 1.601284 2.137715 1.123321 0
M  V30 18 C -1.335115 -0.366590 -0.878555 0
M  V30 19 C -2.444011 0.070902 -1.582905 0
M  V30 20 C -3.423977 -0.878032 -1.380982 0
M  V30 21 N -2.970767 -1.884545 -0.582206 0
M  V30 22 C -1.697993 -1.572220 -0.276498 0
M  V30 23 N -0.787186 -2.209720 0.473717 0
M  V30 24 N 0.953069 -3.721028 2.088184 0
M  V30 25 H 0.694960 -5.423134 4.376213 0
M  V30 26 H 0.476349 -6.151152 2.781645 0
M  V30 27 H 2.052296 -6.443288 3.699316 0
M  V30 28 H 3.759710 -4.642743 3.756256 0
M  V30 29 H 4.463749 -2.542683 2.735636 0
M  V30 30 H 3.045611 -1.172034 1.334185 0
M  V30 31 H 0.722386 0.913657 -2.163454 0
M  V30 32 H -0.963929 3.278070 -2.346047 0
M  V30 33 H -1.222169 5.554708 -1.617100 0
M  V30 34 H 1.217789 4.613155 1.754253 0
M  V30 35 H -2.449331 0.980554 -2.146477 0
M  V30 36 H -4.434973 -0.818626 -1.813605 0
M  V30 37 H -3.558420 -2.702129 -0.307706 0
M  V30 END ATOM
M  V30 BEGIN BOND
M  V30 1 1 1 2
M  V30 2 2 2 3
M  V30 3 1 3 4
M  V30 4 2 4 5
M  V30 5 1 5 6
M  V30 6 1 6 7
M  V30 7 2 7 8
M  V30 8 1 8 9
M  V30 9 1 9 10
M  V30 10 1 10 11
M  V30 11 2 11 12
M  V30 12 1 12 13
M  V30 13 2 13 14
M  V30 14 1 14 15
M  V30 15 2 15 16
M  V30 16 1 16 17
M  V30 17 2 9 18
M  V30 18 1 18 19
M  V30 19 2 19 20
M  V30 20 1 20 21
M  V30 21 1 21 22
M  V30 22 2 22 23
M  V30 23 2 6 24
M  V30 24 1 24 2
M  V30 25 1 23 7
M  V30 26 1 16 11
M  V30 27 1 22 18
M  V30 28 1 1 25
M  V30 29 1 1 26
M  V30 30 1 1 27
M  V30 31 1 3 28
M  V30 32 1 4 29
M  V30 33 1 5 30
M  V30 34 1 10 31
M  V30 35 1 12 32
M  V30 36 1 13 33
M  V30 37 1 15 34
M  V30 38 1 19 35
M  V30 39 1 20 36
M  V30 40 1 21 37
M  V30 END BOND
M  V30 END CTAB
M  END
>  <Dataset>  (716) 
ChEMBL_Kinases

>  <Ligand_Instance>  (716) 
nan

>  <PDB_ID>  (716) 
nan

>  <Standardized_SMILES>  (716) 
Cc1cccc(-c2nc(Nc3ccncc3F)c3cc[nH]c3n2)n1

>  <Name>  (716) 
nan

>  <Pocket>  (716) 
nan

>  <ATP_Site>  (716) 
nan

>  <Peripheral>  (716) 
nan

>  <Num_H_Atoms_ProtBoundConf>  (716) 
nan

>  <Num_Resolved_Atoms>  (716) 
nan

>  <Num_Not_Resolved_Atoms>  (716) 
nan

$$$$
CHEMBL4210414
     RDKit          3D

  0  0  0  0  0  0  0  0  0  0999 V3000
M  V30 BEGIN CTAB
M  V30 COUNTS 72 76 0 0 0
M  V30 BEGIN ATOM
M  V30 1 C 4.232557 -2.047605 4.029572 0
M  V30 2 O 3.254123 -2.472305 3.101126 0
M  V30 3 C 2.760967 -1.542542 2.197730 0
M  V30 4 C 3.197847 -0.215874 2.181048 0
M  V30 5 C 2.701176 0.700451 1.279510 0
M  V30 6 C 3.201665 2.066788 1.314987 0
M  V30 7 O 4.109236 2.356714 2.138834 0
M  V30 8 N 2.736532 3.107801 0.480495 0
M  V30 9 C 3.202652 4.480699 0.475944 0
M  V30 10 C 3.634404 4.821117 -0.933507 0
M  V30 11 C 2.422809 4.969645 -1.828821 0
M  V30 12 C 1.772281 6.297435 -1.531246 0
M  V30 13 C 2.042857 6.639764 -0.083824 0
M  V30 14 C 2.029898 5.386831 0.800237 0
M  V30 15 C 1.748404 0.291302 0.372434 0
M  V30 16 C 1.340160 -1.030613 0.418979 0
M  V30 17 C 1.808607 -1.980406 1.302135 0
M  V30 18 N 1.275967 -3.292690 1.220759 0
M  V30 19 C 0.311662 -3.645551 0.238956 0
M  V30 20 N 0.822328 -4.194887 -0.897568 0
M  V30 21 C -0.001037 -4.567760 -1.907317 0
M  V30 22 C -1.349375 -4.368673 -1.733063 0
M  V30 23 C -1.910169 -3.816180 -0.601903 0
M  V30 24 N -1.016562 -3.482424 0.335312 0
M  V30 25 N -3.302405 -3.580012 -0.373059 0
M  V30 26 C -3.866372 -3.446153 0.913424 0
M  V30 27 C -2.924020 -3.549470 2.085425 0
M  V30 28 C -3.923588 -3.324081 3.238838 0
M  V30 29 C -4.918223 -2.316163 2.672393 0
M  V30 30 C -4.532953 -2.122358 1.213848 0
M  V30 31 C -4.087390 -3.488672 -1.613246 0 CFG=2
M  V30 32 C -5.558475 -3.540597 -1.402077 0
M  V30 33 C -3.601898 -4.540120 -2.540036 0
M  V30 34 O -4.469770 -5.256632 -3.120598 0
M  V30 35 N -2.227988 -4.769373 -2.795901 0
M  V30 36 C -1.767699 -5.354488 -4.022281 0
M  V30 37 H 4.649237 -2.914655 4.600780 0
M  V30 38 H 3.771431 -1.350186 4.785528 0
M  V30 39 H 5.066771 -1.470366 3.554658 0
M  V30 40 H 3.947769 0.100781 2.896777 0
M  V30 41 H 1.983465 2.868297 -0.199665 0
M  V30 42 H 4.033338 4.636521 1.192288 0
M  V30 43 H 4.202226 3.943374 -1.361057 0
M  V30 44 H 4.241705 5.738782 -1.002958 0
M  V30 45 H 2.766525 4.922258 -2.904364 0
M  V30 46 H 1.689431 4.166364 -1.727630 0
M  V30 47 H 0.661842 6.275395 -1.734642 0
M  V30 48 H 2.220179 7.057864 -2.200960 0
M  V30 49 H 1.316576 7.346966 0.337926 0
M  V30 50 H 3.057758 7.125021 -0.082069 0
M  V30 51 H 1.053028 4.896655 0.622606 0
M  V30 52 H 2.057075 5.745291 1.851268 0
M  V30 53 H 1.324392 0.961098 -0.354892 0
M  V30 54 H 0.589308 -1.321036 -0.307768 0
M  V30 55 H 1.582586 -4.054161 1.892219 0
M  V30 56 H 0.376403 -5.006277 -2.820323 0
M  V30 57 H -4.643825 -4.235759 1.093179 0
M  V30 58 H -2.211541 -2.713915 2.179218 0
M  V30 59 H -2.404967 -4.509232 2.184366 0
M  V30 60 H -4.417957 -4.273652 3.529599 0
M  V30 61 H -3.436981 -2.868470 4.108759 0
M  V30 62 H -4.911491 -1.358743 3.235265 0
M  V30 63 H -5.921474 -2.788070 2.665983 0
M  V30 64 H -3.789491 -1.300290 1.164648 0
M  V30 65 H -5.443477 -1.934360 0.618817 0
M  V30 66 H -3.824406 -2.494234 -2.067717 0
M  V30 67 H -5.966546 -4.195704 -2.228501 0
M  V30 68 H -6.002442 -2.542597 -1.614794 0
M  V30 69 H -5.902884 -4.011334 -0.473782 0
M  V30 70 H -2.568761 -5.278228 -4.782087 0
M  V30 71 H -1.519442 -6.435817 -3.935121 0
M  V30 72 H -0.891298 -4.818631 -4.472464 0
M  V30 END ATOM
M  V30 BEGIN BOND
M  V30 1 1 1 2
M  V30 2 1 2 3
M  V30 3 2 3 4
M  V30 4 1 4 5
M  V30 5 1 5 6
M  V30 6 2 6 7
M  V30 7 1 6 8
M  V30 8 1 8 9
M  V30 9 1 9 10
M  V30 10 1 10 11
M  V30 11 1 11 12
M  V30 12 1 12 13
M  V30 13 1 13 14
M  V30 14 2 5 15
M  V30 15 1 15 16
M  V30 16 2 16 17
M  V30 17 1 17 18
M  V30 18 1 18 19
M  V30 19 2 19 20
M  V30 20 1 20 21
M  V30 21 2 21 22
M  V30 22 1 22 23
M  V30 23 2 23 24
M  V30 24 1 23 25
M  V30 25 1 25 26
M  V30 26 1 26 27
M  V30 27 1 27 28
M  V30 28 1 28 29
M  V30 29 1 29 30
M  V30 30 1 25 31
M  V30 31 1 31 32
M  V30 32 1 31 33
M  V30 33 2 33 34
M  V30 34 1 33 35
M  V30 35 1 35 36
M  V30 36 1 17 3
M  V30 37 1 24 19
M  V30 38 1 30 26
M  V30 39 1 14 9
M  V30 40 1 35 22
M  V30 41 1 1 37
M  V30 42 1 1 38
M  V30 43 1 1 39
M  V30 44 1 4 40
M  V30 45 1 8 41
M  V30 46 1 9 42
M  V30 47 1 10 43
M  V30 48 1 10 44
M  V30 49 1 11 45
M  V30 50 1 11 46
M  V30 51 1 12 47
M  V30 52 1 12 48
M  V30 53 1 13 49
M  V30 54 1 13 50
M  V30 55 1 14 51
M  V30 56 1 14 52
M  V30 57 1 15 53
M  V30 58 1 16 54
M  V30 59 1 18 55
M  V30 60 1 21 56
M  V30 61 1 26 57
M  V30 62 1 27 58
M  V30 63 1 27 59
M  V30 64 1 28 60
M  V30 65 1 28 61
M  V30 66 1 29 62
M  V30 67 1 29 63
M  V30 68 1 30 64
M  V30 69 1 30 65
M  V30 70 1 31 66 CFG=3
M  V30 71 1 32 67
M  V30 72 1 32 68
M  V30 73 1 32 69
M  V30 74 1 36 70
M  V30 75 1 36 71
M  V30 76 1 36 72
M  V30 END BOND
M  V30 END CTAB
M  END
>  <Dataset>  (717) 
ChEMBL_Kinases

>  <Ligand_Instance>  (717) 
nan

>  <PDB_ID>  (717) 
nan

>  <Standardized_SMILES>  (717) 
COc1cc(C(=O)NC2CCCCC2)ccc1Nc1ncc2c(n1)N(C1CCCC1)[C@H](C)C(=O)N2C

>  <Name>  (717) 
nan

>  <Pocket>  (717) 
nan

>  <ATP_Site>  (717) 
nan

>  <Peripheral>  (717) 
nan

>  <Num_H_Atoms_ProtBoundConf>  (717) 
nan

>  <Num_Resolved_Atoms>  (717) 
nan

>  <Num_Not_Resolved_Atoms>  (717) 
nan

$$$$
CHEMBL4781239
     RDKit          3D

  0  0  0  0  0  0  0  0  0  0999 V3000
M  V30 BEGIN CTAB
M  V30 COUNTS 48 51 0 0 0
M  V30 BEGIN ATOM
M  V30 1 C 1.748559 -8.235771 -2.292265 0
M  V30 2 O 1.594337 -7.619937 -1.033881 0
M  V30 3 C 1.388232 -6.261743 -0.877775 0
M  V30 4 C 1.299666 -5.303760 -1.861894 0
M  V30 5 C 1.093088 -3.974893 -1.620331 0
M  V30 6 C 0.960043 -3.526404 -0.323951 0
M  V30 7 N 0.740766 -2.179325 0.070916 0
M  V30 8 C 1.630460 -1.117888 0.390724 0
M  V30 9 O 2.878846 -1.229932 0.367185 0
M  V30 10 N 0.942508 0.062975 0.734198 0
M  V30 11 C 1.690922 1.264614 1.095871 0
M  V30 12 C 1.386426 1.523914 2.538767 0
M  V30 13 C 0.222457 2.390217 2.817925 0
M  V30 14 N -0.435885 2.864584 1.593338 0
M  V30 15 C -1.839571 2.653732 1.426973 0
M  V30 16 N -2.344059 1.926670 0.385663 0
M  V30 17 C -3.664020 1.730153 0.232963 0
M  V30 18 N -4.538965 2.264921 1.134409 0
M  V30 19 C -4.018982 2.980267 2.156275 0
M  V30 20 N -4.651287 3.612627 3.177936 0
M  V30 21 N -3.773647 4.207576 3.978940 0
M  V30 22 C -2.513433 3.983742 3.504902 0
M  V30 23 C -2.683945 3.218977 2.370891 0
M  V30 24 C 0.558444 3.497447 0.742767 0
M  V30 25 C 1.387042 2.371000 0.166544 0
M  V30 26 C 1.048485 -4.485084 0.667667 0
M  V30 27 C 1.256552 -5.830703 0.444537 0
M  V30 28 H 0.760055 -8.651687 -2.580176 0
M  V30 29 H 2.447343 -9.096341 -2.213295 0
M  V30 30 H 2.186872 -7.550571 -3.024277 0
M  V30 31 H 1.406284 -5.673528 -2.879509 0
M  V30 32 H 1.027968 -3.249414 -2.401039 0
M  V30 33 H -0.294343 -2.146575 0.072070 0
M  V30 34 H -0.090446 0.199963 0.765850 0
M  V30 35 H 2.764983 0.991394 1.011707 0
M  V30 36 H 2.294711 1.964253 2.997802 0
M  V30 37 H 1.248294 0.557849 3.104768 0
M  V30 38 H 0.555010 3.318222 3.324421 0
M  V30 39 H -0.496251 1.901202 3.494046 0
M  V30 40 H -3.905524 1.135113 -0.637379 0
M  V30 41 H -5.687391 3.663349 3.368105 0
M  V30 42 H -1.552875 4.311241 3.894169 0
M  V30 43 H 0.034378 3.996134 -0.109148 0
M  V30 44 H 1.191798 4.204649 1.308498 0
M  V30 45 H 2.333210 2.843993 -0.190555 0
M  V30 46 H 0.893162 2.024475 -0.787267 0
M  V30 47 H 0.948786 -4.169075 1.710298 0
M  V30 48 H 1.314962 -6.529835 1.276348 0
M  V30 END ATOM
M  V30 BEGIN BOND
M  V30 1 1 1 2
M  V30 2 1 2 3
M  V30 3 2 3 4
M  V30 4 1 4 5
M  V30 5 2 5 6
M  V30 6 1 6 7
M  V30 7 1 7 8
M  V30 8 2 8 9
M  V30 9 1 8 10
M  V30 10 1 10 11
M  V30 11 1 11 12
M  V30 12 1 12 13
M  V30 13 1 13 14
M  V30 14 1 14 15
M  V30 15 2 15 16
M  V30 16 1 16 17
M  V30 17 2 17 18
M  V30 18 1 18 19
M  V30 19 1 19 20
M  V30 20 1 20 21
M  V30 21 2 21 22
M  V30 22 1 22 23
M  V30 23 1 14 24
M  V30 24 1 24 25
M  V30 25 1 6 26
M  V30 26 2 26 27
M  V30 27 1 27 3
M  V30 28 1 25 11
M  V30 29 1 23 15
M  V30 30 2 23 19
M  V30 31 1 1 28
M  V30 32 1 1 29
M  V30 33 1 1 30
M  V30 34 1 4 31
M  V30 35 1 5 32
M  V30 36 1 7 33
M  V30 37 1 10 34
M  V30 38 1 11 35
M  V30 39 1 12 36
M  V30 40 1 12 37
M  V30 41 1 13 38
M  V30 42 1 13 39
M  V30 43 1 17 40
M  V30 44 1 20 41
M  V30 45 1 22 42
M  V30 46 1 24 43
M  V30 47 1 24 44
M  V30 48 1 25 45
M  V30 49 1 25 46
M  V30 50 1 26 47
M  V30 51 1 27 48
M  V30 END BOND
M  V30 END CTAB
M  END
>  <Dataset>  (718) 
ChEMBL_Kinases

>  <Ligand_Instance>  (718) 
nan

>  <PDB_ID>  (718) 
nan

>  <Standardized_SMILES>  (718) 
COc1ccc(NC(=O)NC2CCN(c3ncnc4[nH]ncc34)CC2)cc1

>  <Name>  (718) 
nan

>  <Pocket>  (718) 
nan

>  <ATP_Site>  (718) 
nan

>  <Peripheral>  (718) 
nan

>  <Num_H_Atoms_ProtBoundConf>  (718) 
nan

>  <Num_Resolved_Atoms>  (718) 
nan

>  <Num_Not_Resolved_Atoms>  (718) 
nan

$$$$
CHEMBL4781252
     RDKit          3D

  0  0  0  0  0  0  0  0  0  0999 V3000
M  V30 BEGIN CTAB
M  V30 COUNTS 36 38 0 0 0
M  V30 BEGIN ATOM
M  V30 1 C -0.175775 -5.773753 0.056748 0
M  V30 2 O 0.814078 -5.307866 0.954905 0
M  V30 3 C 1.126778 -3.956093 0.897300 0
M  V30 4 C 2.099793 -3.541175 1.792387 0
M  V30 5 C 2.499469 -2.211569 1.831595 0
M  V30 6 C 1.861202 -1.384001 0.932831 0
M  V30 7 C 0.902198 -1.776393 0.045947 0
M  V30 8 N 0.256019 -0.905797 -0.872150 0
M  V30 9 C 0.274518 0.482068 -1.101307 0
M  V30 10 C 0.700529 1.042392 -2.311252 0
M  V30 11 C 0.745570 2.379971 -2.611610 0
M  V30 12 N 0.339416 3.221367 -1.643947 0
M  V30 13 C -0.092066 2.807141 -0.440208 0
M  V30 14 C -0.499400 3.723767 0.507802 0
M  V30 15 C -0.946475 3.274550 1.743629 0
M  V30 16 C -0.983245 1.921275 2.021593 0
M  V30 17 C -1.463168 1.417614 3.350320 0
M  V30 18 F -0.976672 0.143413 3.561395 0
M  V30 19 F -1.128491 2.281308 4.376973 0
M  V30 20 F -2.850005 1.362327 3.314938 0
M  V30 21 C -0.564473 1.048685 1.037955 0
M  V30 22 C -0.113464 1.449562 -0.200378 0
M  V30 23 C 0.526230 -3.083204 0.024948 0
M  V30 24 H -1.070040 -5.135234 0.217455 0
M  V30 25 H -0.382505 -6.849123 0.164267 0
M  V30 26 H 0.201762 -5.493165 -0.970110 0
M  V30 27 H 2.581164 -4.219165 2.485480 0
M  V30 28 H 3.253823 -1.826982 2.507704 0
M  V30 29 H 2.153918 -0.326174 0.937735 0
M  V30 30 H -0.411330 -1.245207 -1.595669 0
M  V30 31 H 1.032909 0.353364 -3.103342 0
M  V30 32 H 1.093748 2.704587 -3.582243 0
M  V30 33 H -0.471577 4.780430 0.292819 0
M  V30 34 H -1.277482 3.970074 2.520895 0
M  V30 35 H -0.617263 0.004582 1.300646 0
M  V30 36 H -0.226024 -3.460446 -0.651062 0
M  V30 END ATOM
M  V30 BEGIN BOND
M  V30 1 1 1 2
M  V30 2 1 2 3
M  V30 3 2 3 4
M  V30 4 1 4 5
M  V30 5 2 5 6
M  V30 6 1 6 7
M  V30 7 1 7 8
M  V30 8 1 8 9
M  V30 9 2 9 10
M  V30 10 1 10 11
M  V30 11 2 11 12
M  V30 12 1 12 13
M  V30 13 2 13 14
M  V30 14 1 14 15
M  V30 15 2 15 16
M  V30 16 1 16 17
M  V30 17 1 17 18
M  V30 18 1 17 19
M  V30 19 1 17 20
M  V30 20 1 16 21
M  V30 21 2 21 22
M  V30 22 2 7 23
M  V30 23 1 23 3
M  V30 24 1 22 9
M  V30 25 1 22 13
M  V30 26 1 1 24
M  V30 27 1 1 25
M  V30 28 1 1 26
M  V30 29 1 4 27
M  V30 30 1 5 28
M  V30 31 1 6 29
M  V30 32 1 8 30
M  V30 33 1 10 31
M  V30 34 1 11 32
M  V30 35 1 14 33
M  V30 36 1 15 34
M  V30 37 1 21 35
M  V30 38 1 23 36
M  V30 END BOND
M  V30 END CTAB
M  END
>  <Dataset>  (719) 
ChEMBL_Kinases

>  <Ligand_Instance>  (719) 
nan

>  <PDB_ID>  (719) 
nan

>  <Standardized_SMILES>  (719) 
COc1cccc(Nc2ccnc3ccc(C(F)(F)F)cc23)c1

>  <Name>  (719) 
nan

>  <Pocket>  (719) 
nan

>  <ATP_Site>  (719) 
nan

>  <Peripheral>  (719) 
nan

>  <Num_H_Atoms_ProtBoundConf>  (719) 
nan

>  <Num_Resolved_Atoms>  (719) 
nan

>  <Num_Not_Resolved_Atoms>  (719) 
nan

$$$$
CHEMBL4781312
     RDKit          3D

  0  0  0  0  0  0  0  0  0  0999 V3000
M  V30 BEGIN CTAB
M  V30 COUNTS 34 36 0 0 0
M  V30 BEGIN ATOM
M  V30 1 C 0.710415 -4.831260 1.348025 0
M  V30 2 C 0.503595 -3.668935 2.248572 0
M  V30 3 O -0.464626 -3.712301 3.028516 0
M  V30 4 N 1.340995 -2.531841 2.262862 0
M  V30 5 C 1.223018 -1.368726 3.088932 0
M  V30 6 C -0.066617 -0.665989 2.841903 0
M  V30 7 N -0.275957 -0.176205 1.515286 0
M  V30 8 C 0.227595 1.079843 1.358603 0
M  V30 9 O 0.818051 1.750064 2.247776 0
M  V30 10 C 0.115425 1.741621 0.134844 0
M  V30 11 C 0.624133 3.029357 -0.049416 0
M  V30 12 C 0.486502 3.637248 -1.278481 0
M  V30 13 F 0.994420 4.885912 -1.412897 0
M  V30 14 C -0.139037 3.025513 -2.351497 0
M  V30 15 C -0.644827 1.756657 -2.183649 0
M  V30 16 C -0.500720 1.162943 -0.953934 0
M  V30 17 N -0.975700 -0.069035 -0.741951 0
M  V30 18 C -1.624466 -0.918391 -1.548403 0
M  V30 19 S -2.102336 -0.831141 -3.099497 0
M  V30 20 N -1.905127 -2.047197 -0.874916 0
M  V30 21 N -1.427715 -1.892226 0.349200 0
M  V30 22 C -0.860067 -0.678861 0.422641 0
M  V30 23 H 1.260884 -4.537905 0.440427 0
M  V30 24 H 1.254838 -5.633945 1.881398 0
M  V30 25 H -0.264532 -5.260387 1.025497 0
M  V30 26 H 2.137920 -2.559416 1.582032 0
M  V30 27 H 2.110259 -0.706836 3.020653 0
M  V30 28 H 1.164218 -1.755533 4.151080 0
M  V30 29 H -0.260314 0.137860 3.612912 0
M  V30 30 H -0.874395 -1.421652 3.084766 0
M  V30 31 H 1.118119 3.530623 0.773642 0
M  V30 32 H -0.200286 3.580708 -3.279191 0
M  V30 33 H -1.106100 1.355044 -3.041358 0
M  V30 34 H -2.399172 -2.949095 -1.146131 0
M  V30 END ATOM
M  V30 BEGIN BOND
M  V30 1 1 1 2
M  V30 2 2 2 3
M  V30 3 1 2 4
M  V30 4 1 4 5
M  V30 5 1 5 6
M  V30 6 1 6 7
M  V30 7 1 7 8
M  V30 8 2 8 9
M  V30 9 1 8 10
M  V30 10 2 10 11
M  V30 11 1 11 12
M  V30 12 1 12 13
M  V30 13 2 12 14
M  V30 14 1 14 15
M  V30 15 2 15 16
M  V30 16 1 16 17
M  V30 17 1 17 18
M  V30 18 2 18 19
M  V30 19 1 18 20
M  V30 20 1 20 21
M  V30 21 2 21 22
M  V30 22 1 22 7
M  V30 23 1 16 10
M  V30 24 1 22 17
M  V30 25 1 1 23
M  V30 26 1 1 24
M  V30 27 1 1 25
M  V30 28 1 4 26
M  V30 29 1 5 27
M  V30 30 1 5 28
M  V30 31 1 6 29
M  V30 32 1 6 30
M  V30 33 1 11 31
M  V30 34 1 14 32
M  V30 35 1 15 33
M  V30 36 1 20 34
M  V30 END BOND
M  V30 END CTAB
M  END
>  <Dataset>  (720) 
ChEMBL_Kinases

>  <Ligand_Instance>  (720) 
nan

>  <PDB_ID>  (720) 
nan

>  <Standardized_SMILES>  (720) 
CC(=O)NCCn1c(=O)c2cc(F)ccc2n2c(=S)[nH]nc12

>  <Name>  (720) 
nan

>  <Pocket>  (720) 
nan

>  <ATP_Site>  (720) 
nan

>  <Peripheral>  (720) 
nan

>  <Num_H_Atoms_ProtBoundConf>  (720) 
nan

>  <Num_Resolved_Atoms>  (720) 
nan

>  <Num_Not_Resolved_Atoms>  (720) 
nan

$$$$
CHEMBL4781408
     RDKit          3D

  0  0  0  0  0  0  0  0  0  0999 V3000
M  V30 BEGIN CTAB
M  V30 COUNTS 43 46 0 0 0
M  V30 BEGIN ATOM
M  V30 1 O 2.600898 -7.056184 1.074035 0
M  V30 2 C 1.417622 -6.638743 0.837530 0
M  V30 3 O 0.512169 -7.075678 1.805214 0
M  V30 4 C 1.134058 -5.799226 -0.342160 0
M  V30 5 S -0.606809 -5.323298 -0.480348 0
M  V30 6 C -0.783604 -4.308548 -1.960950 0
M  V30 7 N -1.051178 -4.746731 -3.201622 0
M  V30 8 C -1.136418 -3.790104 -4.152308 0
M  V30 9 N -0.986906 -2.488979 -3.994208 0
M  V30 10 C -0.716946 -1.944347 -2.794359 0
M  V30 11 C -0.521031 -0.657571 -2.375199 0
M  V30 12 C -0.262529 -0.394627 -1.095171 0
M  V30 13 C -0.026944 0.946666 -0.486633 0
M  V30 14 C -0.058924 2.078685 -1.234130 0
M  V30 15 C 0.168304 3.283507 -0.601885 0
M  V30 16 C 0.414046 3.256467 0.754721 0
M  V30 17 C 0.453014 2.120421 1.542428 0
M  V30 18 N 0.716242 2.184056 2.947088 0
M  V30 19 C 0.720654 0.897160 3.659491 0
M  V30 20 C 0.778843 1.227680 5.135701 0
M  V30 21 O 1.861056 2.124687 5.287987 0
M  V30 22 C 1.413959 3.399791 4.947047 0
M  V30 23 C 0.949988 3.488474 3.524340 0
M  V30 24 C 0.221752 0.951592 0.869900 0
M  V30 25 S -0.253888 -1.937189 -0.266467 0
M  V30 26 C -0.624053 -2.921424 -1.791526 0
M  V30 27 H 0.802112 -7.159510 2.771422 0
M  V30 28 H 1.519977 -6.309224 -1.260895 0
M  V30 29 H 1.719411 -4.859783 -0.228717 0
M  V30 30 H -1.356225 -4.133354 -5.179908 0
M  V30 31 H -0.579104 0.165470 -3.109526 0
M  V30 32 H -0.258593 2.022417 -2.296742 0
M  V30 33 H 0.152635 4.204514 -1.153495 0
M  V30 34 H 0.595065 4.217874 1.258040 0
M  V30 35 H 1.593849 0.321396 3.337566 0
M  V30 36 H -0.184015 0.307143 3.402840 0
M  V30 37 H 0.916387 0.324828 5.732253 0
M  V30 38 H -0.167363 1.752152 5.410462 0
M  V30 39 H 2.265881 4.092229 5.091603 0
M  V30 40 H 0.612287 3.714279 5.648478 0
M  V30 41 H 1.753240 3.950844 2.915932 0
M  V30 42 H 0.018163 4.116588 3.510618 0
M  V30 43 H 0.237886 0.016220 1.430344 0
M  V30 END ATOM
M  V30 BEGIN BOND
M  V30 1 2 1 2
M  V30 2 1 2 3
M  V30 3 1 2 4
M  V30 4 1 4 5
M  V30 5 1 5 6
M  V30 6 2 6 7
M  V30 7 1 7 8
M  V30 8 2 8 9
M  V30 9 1 9 10
M  V30 10 1 10 11
M  V30 11 2 11 12
M  V30 12 1 12 13
M  V30 13 2 13 14
M  V30 14 1 14 15
M  V30 15 2 15 16
M  V30 16 1 16 17
M  V30 17 1 17 18
M  V30 18 1 18 19
M  V30 19 1 19 20
M  V30 20 1 20 21
M  V30 21 1 21 22
M  V30 22 1 22 23
M  V30 23 2 17 24
M  V30 24 1 12 25
M  V30 25 1 25 26
M  V30 26 1 26 6
M  V30 27 2 26 10
M  V30 28 1 24 13
M  V30 29 1 23 18
M  V30 30 1 3 27
M  V30 31 1 4 28
M  V30 32 1 4 29
M  V30 33 1 8 30
M  V30 34 1 11 31
M  V30 35 1 14 32
M  V30 36 1 15 33
M  V30 37 1 16 34
M  V30 38 1 19 35
M  V30 39 1 19 36
M  V30 40 1 20 37
M  V30 41 1 20 38
M  V30 42 1 22 39
M  V30 43 1 22 40
M  V30 44 1 23 41
M  V30 45 1 23 42
M  V30 46 1 24 43
M  V30 END BOND
M  V30 END CTAB
M  END
>  <Dataset>  (721) 
ChEMBL_Kinases

>  <Ligand_Instance>  (721) 
nan

>  <PDB_ID>  (721) 
nan

>  <Standardized_SMILES>  (721) 
O=C(O)CSc1ncnc2cc(-c3cccc(N4CCOCC4)c3)sc12

>  <Name>  (721) 
nan

>  <Pocket>  (721) 
nan

>  <ATP_Site>  (721) 
nan

>  <Peripheral>  (721) 
nan

>  <Num_H_Atoms_ProtBoundConf>  (721) 
nan

>  <Num_Resolved_Atoms>  (721) 
nan

>  <Num_Not_Resolved_Atoms>  (721) 
nan

$$$$
CHEMBL4781410
     RDKit          3D

  0  0  0  0  0  0  0  0  0  0999 V3000
M  V30 BEGIN CTAB
M  V30 COUNTS 52 55 0 0 0
M  V30 BEGIN ATOM
M  V30 1 C 3.278820 -3.483000 -0.194675 0
M  V30 2 C 3.337081 -2.189876 0.582039 0
M  V30 3 C 4.268805 -1.203538 -0.116688 0
M  V30 4 S 4.323871 0.325873 0.821181 0
M  V30 5 O 5.345069 1.210660 0.163240 0
M  V30 6 O 4.823261 -0.033915 2.188405 0
M  V30 7 N 2.778581 1.030638 0.944486 0
M  V30 8 C 2.033648 1.461097 -0.183789 0
M  V30 9 C 2.631268 1.541325 -1.421829 0
M  V30 10 C 1.911823 1.964298 -2.515793 0
M  V30 11 C 0.564024 2.321803 -2.406052 0
M  V30 12 F -0.058378 2.730028 -3.560096 0
M  V30 13 C -0.069951 2.253794 -1.183943 0
M  V30 14 C -1.441025 2.663357 -1.123509 0
M  V30 15 O -1.721090 3.508999 -2.052004 0
M  V30 16 C -2.596538 2.387598 -0.305875 0
M  V30 17 N -3.610093 3.258138 -0.170343 0
M  V30 18 N -4.552268 2.715725 0.613599 0
M  V30 19 C -4.208638 1.482207 1.022827 0
M  V30 20 N -4.835270 0.578096 1.790591 0
M  V30 21 C -4.272396 -0.638628 2.048912 0
M  V30 22 C -3.039816 -0.834025 1.460508 0
M  V30 23 C -2.405025 -2.144163 1.721380 0
M  V30 24 C -1.580688 -2.667643 0.718401 0
M  V30 25 C -0.967701 -3.902417 0.936600 0
M  V30 26 C -1.144073 -4.622737 2.100141 0
M  V30 27 C -1.967802 -4.053560 3.049805 0
M  V30 28 N -2.161657 -4.782651 4.257717 0 CHG=1 VAL=4
M  V30 29 O -2.881922 -4.377241 5.193713 0
M  V30 30 O -1.574494 -6.000642 4.506456 0 CHG=-1 VAL=1
M  V30 31 C -2.607096 -2.839201 2.906007 0
M  V30 32 C -2.367440 0.072060 0.667308 0
M  V30 33 C -2.975907 1.288569 0.436023 0
M  V30 34 C 0.706547 1.824672 -0.130244 0
M  V30 35 F 0.188249 1.770646 1.119379 0
M  V30 36 H 4.167532 -4.079798 0.078688 0
M  V30 37 H 2.369120 -4.066027 0.117706 0
M  V30 38 H 3.319983 -3.342693 -1.292708 0
M  V30 39 H 2.310483 -1.724868 0.574023 0
M  V30 40 H 3.696149 -2.408102 1.598985 0
M  V30 41 H 5.279389 -1.651761 -0.185370 0
M  V30 42 H 3.911270 -1.038136 -1.150977 0
M  V30 43 H 2.326757 1.167300 1.895229 0
M  V30 44 H 3.664059 1.289508 -1.607099 0
M  V30 45 H 2.388562 2.028243 -3.500112 0
M  V30 46 H -5.411296 3.271799 0.818190 0
M  V30 47 H -4.749374 -1.376178 2.656792 0
M  V30 48 H -1.410823 -2.141306 -0.211457 0
M  V30 49 H -0.320422 -4.336392 0.174904 0
M  V30 50 H -0.658495 -5.578656 2.247674 0
M  V30 51 H -3.248595 -2.413464 3.665687 0
M  V30 52 H -1.421738 -0.112361 0.219655 0
M  V30 END ATOM
M  V30 BEGIN BOND
M  V30 1 1 1 2
M  V30 2 1 2 3
M  V30 3 1 3 4
M  V30 4 2 4 5
M  V30 5 2 4 6
M  V30 6 1 4 7
M  V30 7 1 7 8
M  V30 8 2 8 9
M  V30 9 1 9 10
M  V30 10 2 10 11
M  V30 11 1 11 12
M  V30 12 1 11 13
M  V30 13 1 13 14
M  V30 14 2 14 15
M  V30 15 1 14 16
M  V30 16 2 16 17
M  V30 17 1 17 18
M  V30 18 1 18 19
M  V30 19 2 19 20
M  V30 20 1 20 21
M  V30 21 2 21 22
M  V30 22 1 22 23
M  V30 23 2 23 24
M  V30 24 1 24 25
M  V30 25 2 25 26
M  V30 26 1 26 27
M  V30 27 1 27 28
M  V30 28 2 28 29
M  V30 29 1 28 30
M  V30 30 2 27 31
M  V30 31 1 22 32
M  V30 32 2 32 33
M  V30 33 2 13 34
M  V30 34 1 34 35
M  V30 35 1 34 8
M  V30 36 1 33 16
M  V30 37 1 33 19
M  V30 38 1 31 23
M  V30 39 1 1 36
M  V30 40 1 1 37
M  V30 41 1 1 38
M  V30 42 1 2 39
M  V30 43 1 2 40
M  V30 44 1 3 41
M  V30 45 1 3 42
M  V30 46 1 7 43
M  V30 47 1 9 44
M  V30 48 1 10 45
M  V30 49 1 18 46
M  V30 50 1 21 47
M  V30 51 1 24 48
M  V30 52 1 25 49
M  V30 53 1 26 50
M  V30 54 1 31 51
M  V30 55 1 32 52
M  V30 END BOND
M  V30 END CTAB
M  END
>  <Dataset>  (722) 
ChEMBL_Kinases

>  <Ligand_Instance>  (722) 
nan

>  <PDB_ID>  (722) 
nan

>  <Standardized_SMILES>  (722) 
CCCS(=O)(=O)Nc1ccc(F)c(C(=O)c2n[nH]c3ncc(-c4cccc([N+](=O)[O-])c4)cc23)c1F

>  <Name>  (722) 
nan

>  <Pocket>  (722) 
nan

>  <ATP_Site>  (722) 
nan

>  <Peripheral>  (722) 
nan

>  <Num_H_Atoms_ProtBoundConf>  (722) 
nan

>  <Num_Resolved_Atoms>  (722) 
nan

>  <Num_Not_Resolved_Atoms>  (722) 
nan

$$$$
CHEMBL4781437
     RDKit          3D

  0  0  0  0  0  0  0  0  0  0999 V3000
M  V30 BEGIN CTAB
M  V30 COUNTS 48 51 0 0 0
M  V30 BEGIN ATOM
M  V30 1 C 3.074111 -4.250842 -1.036699 0
M  V30 2 S 4.849863 -4.061976 -0.866108 0
M  V30 3 O 5.361226 -5.328674 -0.220962 0
M  V30 4 O 5.482724 -3.928603 -2.215946 0
M  V30 5 N 5.205245 -2.695120 0.153638 0
M  V30 6 C 4.759107 -1.421380 -0.300125 0
M  V30 7 C 4.889816 -0.937103 -1.589660 0
M  V30 8 C 4.407387 0.334660 -1.905121 0
M  V30 9 C 3.796287 1.116783 -0.929725 0
M  V30 10 C 3.651987 0.652225 0.377647 0
M  V30 11 C 3.012969 1.439122 1.449023 0
M  V30 12 C 1.566667 1.209622 1.541773 0
M  V30 13 O 1.120561 0.390906 0.702796 0
M  V30 14 N 0.700766 1.825617 2.471229 0
M  V30 15 C -0.693548 1.649516 2.612988 0
M  V30 16 C -1.529500 0.841983 1.883654 0
M  V30 17 C -2.885032 0.705829 2.062112 0
M  V30 18 C -3.668325 -0.189555 1.217785 0
M  V30 19 C -3.167484 -0.970256 0.187830 0
M  V30 20 N -4.223983 -1.650661 -0.339306 0
M  V30 21 C -5.341777 -1.290600 0.355780 0
M  V30 22 N -6.605334 -1.748671 0.137950 0
M  V30 23 C -7.587993 -1.294642 0.908512 0
M  V30 24 C -7.319634 -0.374431 1.909423 0
M  V30 25 C -6.030158 0.101913 2.142017 0
M  V30 26 C -5.008518 -0.368868 1.342350 0
M  V30 27 N -3.440171 1.446063 3.058606 0
M  V30 28 C -2.636756 2.259278 3.802609 0
M  V30 29 N -1.317976 2.345136 3.574925 0
M  V30 30 C 4.143851 -0.622048 0.662177 0
M  V30 31 H 2.753667 -5.302296 -0.817301 0
M  V30 32 H 2.795801 -4.076729 -2.111872 0
M  V30 33 H 2.530109 -3.535636 -0.374854 0
M  V30 34 H 5.722664 -2.808582 1.056870 0
M  V30 35 H 5.373074 -1.586518 -2.309726 0
M  V30 36 H 4.516912 0.700044 -2.918630 0
M  V30 37 H 3.430761 2.084880 -1.176233 0
M  V30 38 H 3.240403 2.516126 1.197162 0
M  V30 39 H 3.561271 1.268355 2.412990 0
M  V30 40 H 1.212385 2.466131 3.087256 0
M  V30 41 H -1.105301 0.250041 1.091678 0
M  V30 42 H -2.139518 -1.060528 -0.171993 0
M  V30 43 H -4.161129 -2.328019 -1.140686 0
M  V30 44 H -8.613704 -1.623378 0.781702 0
M  V30 45 H -8.144076 -0.019828 2.525388 0
M  V30 46 H -5.798552 0.815149 2.911948 0
M  V30 47 H -3.022433 2.867677 4.604111 0
M  V30 48 H 4.025316 -0.979324 1.695743 0
M  V30 END ATOM
M  V30 BEGIN BOND
M  V30 1 1 1 2
M  V30 2 2 2 3
M  V30 3 2 2 4
M  V30 4 1 2 5
M  V30 5 1 5 6
M  V30 6 2 6 7
M  V30 7 1 7 8
M  V30 8 2 8 9
M  V30 9 1 9 10
M  V30 10 1 10 11
M  V30 11 1 11 12
M  V30 12 2 12 13
M  V30 13 1 12 14
M  V30 14 1 14 15
M  V30 15 2 15 16
M  V30 16 1 16 17
M  V30 17 1 17 18
M  V30 18 2 18 19
M  V30 19 1 19 20
M  V30 20 1 20 21
M  V30 21 2 21 22
M  V30 22 1 22 23
M  V30 23 2 23 24
M  V30 24 1 24 25
M  V30 25 2 25 26
M  V30 26 2 17 27
M  V30 27 1 27 28
M  V30 28 2 28 29
M  V30 29 2 10 30
M  V30 30 1 30 6
M  V30 31 1 29 15
M  V30 32 1 26 18
M  V30 33 1 26 21
M  V30 34 1 1 31
M  V30 35 1 1 32
M  V30 36 1 1 33
M  V30 37 1 5 34
M  V30 38 1 7 35
M  V30 39 1 8 36
M  V30 40 1 9 37
M  V30 41 1 11 38
M  V30 42 1 11 39
M  V30 43 1 14 40
M  V30 44 1 16 41
M  V30 45 1 19 42
M  V30 46 1 20 43
M  V30 47 1 23 44
M  V30 48 1 24 45
M  V30 49 1 25 46
M  V30 50 1 28 47
M  V30 51 1 30 48
M  V30 END BOND
M  V30 END CTAB
M  END
>  <Dataset>  (723) 
ChEMBL_Kinases

>  <Ligand_Instance>  (723) 
nan

>  <PDB_ID>  (723) 
nan

>  <Standardized_SMILES>  (723) 
CS(=O)(=O)Nc1cccc(CC(=O)Nc2cc(-c3c[nH]c4ncccc34)ncn2)c1

>  <Name>  (723) 
nan

>  <Pocket>  (723) 
nan

>  <ATP_Site>  (723) 
nan

>  <Peripheral>  (723) 
nan

>  <Num_H_Atoms_ProtBoundConf>  (723) 
nan

>  <Num_Resolved_Atoms>  (723) 
nan

>  <Num_Not_Resolved_Atoms>  (723) 
nan

$$$$
CHEMBL4781499
     RDKit          3D

  0  0  0  0  0  0  0  0  0  0999 V3000
M  V30 BEGIN CTAB
M  V30 COUNTS 57 61 0 0 0
M  V30 BEGIN ATOM
M  V30 1 O 0.121636 1.816315 3.267464 0
M  V30 2 C 0.563465 0.968446 2.464722 0
M  V30 3 N 1.948458 0.694332 2.242045 0
M  V30 4 C 2.984240 1.384015 2.935383 0
M  V30 5 C 3.570650 1.041682 4.122960 0
M  V30 6 C 4.569437 1.803954 4.685714 0
M  V30 7 C 5.003074 2.951653 4.043531 0
M  V30 8 C 4.440082 3.347465 2.830390 0
M  V30 9 C 4.895214 4.579645 2.125742 0
M  V30 10 F 5.434079 4.288687 0.876885 0
M  V30 11 F 5.831859 5.218402 2.927585 0
M  V30 12 F 3.841592 5.463833 1.892611 0
M  V30 13 C 3.452707 2.549381 2.322504 0
M  V30 14 N -0.377909 0.214283 1.710945 0
M  V30 15 C -1.781577 0.504565 1.948780 0 CFG=1
M  V30 16 C -2.536547 0.742360 0.659002 0
M  V30 17 O -2.270845 -0.435292 -0.021242 0
M  V30 18 C -2.349248 -1.467877 0.871713 0 CFG=1
M  V30 19 C -2.422437 -0.835784 2.268265 0 CFG=2
M  V30 20 O -3.788424 -0.710830 2.486911 0
M  V30 21 C -4.383507 -1.859946 1.955257 0
M  V30 22 C -3.620921 -2.249755 0.734266 0 CFG=2
M  V30 23 N -3.427583 -3.678985 0.622749 0
M  V30 24 C -2.680909 -4.272100 -0.429710 0
M  V30 25 N -2.540924 -5.616899 -0.470093 0
M  V30 26 C -1.836840 -6.188261 -1.461974 0
M  V30 27 C -1.237417 -5.454708 -2.461882 0
M  V30 28 C -1.392683 -4.090155 -2.400967 0
M  V30 29 C -0.810397 -3.198219 -3.396225 0
M  V30 30 C -1.000799 -1.841239 -3.282691 0
M  V30 31 C -0.473727 -0.952758 -4.193503 0
M  V30 32 C 0.270459 -1.411206 -5.259611 0
M  V30 33 C 0.488260 -2.778815 -5.413298 0
M  V30 34 F 1.220398 -3.235142 -6.460884 0
M  V30 35 C -0.063390 -3.618556 -4.471555 0
M  V30 36 N -2.097337 -3.576091 -1.400767 0
M  V30 37 H 2.239180 -0.041304 1.543489 0
M  V30 38 H 3.195122 0.139465 4.579273 0
M  V30 39 H 5.024456 1.531533 5.615125 0
M  V30 40 H 5.791063 3.614308 4.421288 0
M  V30 41 H 3.028945 2.887001 1.365879 0
M  V30 42 H -0.155036 -0.524286 1.006653 0
M  V30 43 H -1.943859 1.276066 2.694704 0
M  V30 44 H -3.620730 0.732626 0.924067 0
M  V30 45 H -2.257115 1.637050 0.132675 0
M  V30 46 H -1.431012 -2.113154 0.905712 0
M  V30 47 H -1.885408 -1.418589 3.028847 0
M  V30 48 H -4.268498 -2.642039 2.732179 0
M  V30 49 H -5.438887 -1.680740 1.680646 0
M  V30 50 H -4.148967 -1.862459 -0.185176 0
M  V30 51 H -3.863731 -4.274196 1.356269 0
M  V30 52 H -1.760244 -7.267365 -1.440234 0
M  V30 53 H -0.685226 -5.926294 -3.236648 0
M  V30 54 H -1.557340 -1.378729 -2.500986 0
M  V30 55 H -0.582535 0.121690 -4.166494 0
M  V30 56 H 0.723192 -0.763742 -6.027060 0
M  V30 57 H 0.116454 -4.656997 -4.610138 0
M  V30 END ATOM
M  V30 BEGIN BOND
M  V30 1 2 1 2
M  V30 2 1 2 3
M  V30 3 1 3 4
M  V30 4 2 4 5
M  V30 5 1 5 6
M  V30 6 2 6 7
M  V30 7 1 7 8
M  V30 8 1 8 9
M  V30 9 1 9 10
M  V30 10 1 9 11
M  V30 11 1 9 12
M  V30 12 2 8 13
M  V30 13 1 2 14
M  V30 14 1 14 15
M  V30 15 1 15 16
M  V30 16 1 16 17
M  V30 17 1 17 18
M  V30 18 1 18 19
M  V30 19 1 19 20
M  V30 20 1 20 21
M  V30 21 1 21 22
M  V30 22 1 22 23
M  V30 23 1 23 24
M  V30 24 2 24 25
M  V30 25 1 25 26
M  V30 26 2 26 27
M  V30 27 1 27 28
M  V30 28 1 28 29
M  V30 29 2 29 30
M  V30 30 1 30 31
M  V30 31 2 31 32
M  V30 32 1 32 33
M  V30 33 1 33 34
M  V30 34 2 33 35
M  V30 35 2 28 36
M  V30 36 1 13 4
M  V30 37 1 19 15
M  V30 38 1 36 24
M  V30 39 1 22 18
M  V30 40 1 35 29
M  V30 41 1 3 37
M  V30 42 1 5 38
M  V30 43 1 6 39
M  V30 44 1 7 40
M  V30 45 1 13 41
M  V30 46 1 14 42
M  V30 47 1 15 43 CFG=1
M  V30 48 1 16 44
M  V30 49 1 16 45
M  V30 50 1 18 46 CFG=1
M  V30 51 1 19 47 CFG=1
M  V30 52 1 21 48
M  V30 53 1 21 49
M  V30 54 1 22 50 CFG=3
M  V30 55 1 23 51
M  V30 56 1 26 52
M  V30 57 1 27 53
M  V30 58 1 30 54
M  V30 59 1 31 55
M  V30 60 1 32 56
M  V30 61 1 35 57
M  V30 END BOND
M  V30 END CTAB
M  END
>  <Dataset>  (724) 
ChEMBL_Kinases

>  <Ligand_Instance>  (724) 
nan

>  <PDB_ID>  (724) 
nan

>  <Standardized_SMILES>  (724) 
O=C(Nc1cccc(C(F)(F)F)c1)N[C@H]1CO[C@H]2[C@@H]1OC[C@@H]2Nc1nccc(-c2cccc(F)c2)n1

>  <Name>  (724) 
nan

>  <Pocket>  (724) 
nan

>  <ATP_Site>  (724) 
nan

>  <Peripheral>  (724) 
nan

>  <Num_H_Atoms_ProtBoundConf>  (724) 
nan

>  <Num_Resolved_Atoms>  (724) 
nan

>  <Num_Not_Resolved_Atoms>  (724) 
nan

$$$$
CHEMBL4781514
     RDKit          3D

  0  0  0  0  0  0  0  0  0  0999 V3000
M  V30 BEGIN CTAB
M  V30 COUNTS 34 37 0 0 0
M  V30 BEGIN ATOM
M  V30 1 O -0.711024 -2.289989 2.142574 0
M  V30 2 C 0.169182 -1.668024 1.521699 0
M  V30 3 C 1.142319 -2.365730 0.834630 0
M  V30 4 C 1.119562 -3.754776 0.850034 0
M  V30 5 C 2.135629 -4.396879 0.132689 0
M  V30 6 C 3.137453 -3.761496 -0.574001 0
M  V30 7 C 3.123713 -2.362106 -0.563646 0
M  V30 8 C 2.134924 -1.716327 0.134450 0
M  V30 9 N 2.114765 -0.378906 0.149300 0
M  V30 10 C 2.893427 0.531680 -0.399772 0
M  V30 11 S 4.201607 0.457594 -1.322986 0
M  V30 12 N 2.420294 1.743233 -0.065311 0
M  V30 13 N 1.342470 1.605032 0.695243 0
M  V30 14 C 1.149957 0.262131 0.830466 0
M  V30 15 N 0.158744 -0.321700 1.529694 0
M  V30 16 C -0.847843 0.444214 2.240406 0
M  V30 17 C -2.033425 0.757915 1.434376 0
M  V30 18 C -3.140468 -0.066203 1.374342 0
M  V30 19 C -4.268942 0.204788 0.624276 0
M  V30 20 C -4.257890 1.387962 -0.103606 0
M  V30 21 F -5.349634 1.690501 -0.854283 0
M  V30 22 C -3.176124 2.274651 -0.095406 0
M  V30 23 C -2.088085 1.918751 0.686449 0
M  V30 24 H 0.376407 -4.338278 1.374206 0
M  V30 25 H 2.118374 -5.478119 0.144362 0
M  V30 26 H 3.876725 -4.353870 -1.095988 0
M  V30 27 H 3.923950 -1.927715 -1.128170 0
M  V30 28 H 2.733835 2.729881 -0.286109 0
M  V30 29 H -0.443157 1.398062 2.635940 0
M  V30 30 H -1.160019 -0.151806 3.118085 0
M  V30 31 H -3.158938 -0.996468 1.941590 0
M  V30 32 H -5.130559 -0.439008 0.579027 0
M  V30 33 H -3.228802 3.174170 -0.680285 0
M  V30 34 H -1.280032 2.643351 0.653968 0
M  V30 END ATOM
M  V30 BEGIN BOND
M  V30 1 2 1 2
M  V30 2 1 2 3
M  V30 3 2 3 4
M  V30 4 1 4 5
M  V30 5 2 5 6
M  V30 6 1 6 7
M  V30 7 2 7 8
M  V30 8 1 8 9
M  V30 9 1 9 10
M  V30 10 2 10 11
M  V30 11 1 10 12
M  V30 12 1 12 13
M  V30 13 2 13 14
M  V30 14 1 14 15
M  V30 15 1 15 16
M  V30 16 1 16 17
M  V30 17 2 17 18
M  V30 18 1 18 19
M  V30 19 2 19 20
M  V30 20 1 20 21
M  V30 21 1 20 22
M  V30 22 2 22 23
M  V30 23 1 15 2
M  V30 24 1 23 17
M  V30 25 1 8 3
M  V30 26 1 14 9
M  V30 27 1 4 24
M  V30 28 1 5 25
M  V30 29 1 6 26
M  V30 30 1 7 27
M  V30 31 1 12 28
M  V30 32 1 16 29
M  V30 33 1 16 30
M  V30 34 1 18 31
M  V30 35 1 19 32
M  V30 36 1 22 33
M  V30 37 1 23 34
M  V30 END BOND
M  V30 END CTAB
M  END
>  <Dataset>  (725) 
ChEMBL_Kinases

>  <Ligand_Instance>  (725) 
nan

>  <PDB_ID>  (725) 
nan

>  <Standardized_SMILES>  (725) 
O=c1c2ccccc2n2c(=S)[nH]nc2n1Cc1ccc(F)cc1

>  <Name>  (725) 
nan

>  <Pocket>  (725) 
nan

>  <ATP_Site>  (725) 
nan

>  <Peripheral>  (725) 
nan

>  <Num_H_Atoms_ProtBoundConf>  (725) 
nan

>  <Num_Resolved_Atoms>  (725) 
nan

>  <Num_Not_Resolved_Atoms>  (725) 
nan

$$$$
CHEMBL4781522
     RDKit          3D

  0  0  0  0  0  0  0  0  0  0999 V3000
M  V30 BEGIN CTAB
M  V30 COUNTS 66 69 0 0 0
M  V30 BEGIN ATOM
M  V30 1 C 0.702035 -0.117069 3.431733 0
M  V30 2 O 1.979092 -0.105895 2.848666 0
M  V30 3 C 2.735547 -1.177655 2.495717 0
M  V30 4 O 1.736838 -1.761881 2.930317 0
M  V30 5 C 4.114467 -1.137631 1.883651 0
M  V30 6 C 4.239945 -2.510938 2.016450 0
M  V30 7 C 5.739942 -2.446534 1.625486 0
M  V30 8 S 6.345402 -0.714791 1.255549 0
M  V30 9 C 4.757104 0.060898 1.565650 0
M  V30 10 N 3.952211 1.230770 1.622176 0
M  V30 11 C 3.027525 1.587587 0.590784 0
M  V30 12 N 2.062139 2.452769 0.483574 0
M  V30 13 C 1.220042 2.792961 -0.465834 0
M  V30 14 N 0.079926 3.647423 -0.107332 0
M  V30 15 C -0.938703 2.636970 0.108468 0
M  V30 16 C -0.994936 1.438820 -0.605570 0
M  V30 17 C -1.831208 0.314334 -0.605876 0
M  V30 18 C -2.851910 0.458972 0.374144 0
M  V30 19 N -3.323715 -0.908697 0.241244 0
M  V30 20 C -3.959024 -1.678756 -0.786283 0
M  V30 21 C -2.915238 -2.637970 -1.340336 0
M  V30 22 C -1.893333 -3.024891 -0.362958 0
M  V30 23 N -1.147393 -4.183566 -0.790708 0
M  V30 24 C -0.390901 -3.774642 -1.961618 0
M  V30 25 C -1.883510 -5.342011 -1.151006 0
M  V30 26 C -2.302196 -3.036977 1.079086 0
M  V30 27 C -2.979590 -1.717634 1.430192 0
M  V30 28 C -2.907929 1.565558 1.100465 0
M  V30 29 C -2.023482 2.600171 0.991135 0
M  V30 30 O -2.164174 3.720430 1.774620 0
M  V30 31 C -3.216463 3.895797 2.699078 0
M  V30 32 N 1.388420 2.109352 -1.579179 0
M  V30 33 C 2.285332 1.147073 -1.778489 0
M  V30 34 C 3.043991 0.948719 -0.662724 0
M  V30 35 N 3.793091 -0.151346 -1.024454 0 CHG=1 VAL=4
M  V30 36 O 4.437948 -1.055941 -1.536370 0
M  V30 37 O 4.533345 -1.223534 -1.333665 0 CHG=-1 VAL=1
M  V30 38 H -0.009724 -0.559240 2.725590 0
M  V30 39 H 0.771924 -0.635622 4.420961 0
M  V30 40 H 0.410516 0.958239 3.601596 0
M  V30 41 H 4.664779 -3.458523 2.090535 0
M  V30 42 H 6.805457 -2.887941 1.412937 0
M  V30 43 H 3.898765 1.929701 2.376916 0
M  V30 44 H -0.026997 4.645288 -0.028863 0
M  V30 45 H -0.284084 1.358773 -1.444460 0
M  V30 46 H -1.499682 -0.387316 -1.382778 0
M  V30 47 H -4.473192 -1.107405 -1.566814 0
M  V30 48 H -4.727212 -2.302334 -0.231482 0
M  V30 49 H -3.535832 -3.555337 -1.665722 0
M  V30 50 H -2.459257 -2.329915 -2.277290 0
M  V30 51 H -1.065694 -2.246511 -0.361210 0
M  V30 52 H -0.730122 -4.229074 -2.897752 0
M  V30 53 H -0.391562 -2.671658 -2.092167 0
M  V30 54 H 0.676821 -4.051398 -1.849783 0
M  V30 55 H -2.241906 -5.220675 -2.239491 0
M  V30 56 H -2.674571 -5.694458 -0.507029 0
M  V30 57 H -1.162881 -6.216619 -1.239197 0
M  V30 58 H -1.323068 -3.030740 1.655879 0
M  V30 59 H -2.879611 -3.905425 1.377169 0
M  V30 60 H -3.909511 -1.920177 1.974187 0
M  V30 61 H -2.329006 -1.098377 2.104192 0
M  V30 62 H -3.760963 1.476545 1.741729 0
M  V30 63 H -3.282775 4.945121 3.050281 0
M  V30 64 H -4.188688 3.815006 2.035459 0
M  V30 65 H -3.388488 3.152135 3.451825 0
M  V30 66 H 2.222710 0.753389 -2.773759 0
M  V30 END ATOM
M  V30 BEGIN BOND
M  V30 1 1 1 2
M  V30 2 1 2 3
M  V30 3 2 3 4
M  V30 4 1 3 5
M  V30 5 1 5 6
M  V30 6 2 6 7
M  V30 7 1 7 8
M  V30 8 1 8 9
M  V30 9 1 9 10
M  V30 10 1 10 11
M  V30 11 2 11 12
M  V30 12 1 12 13
M  V30 13 1 13 14
M  V30 14 1 14 15
M  V30 15 2 15 16
M  V30 16 1 16 17
M  V30 17 2 17 18
M  V30 18 1 18 19
M  V30 19 1 19 20
M  V30 20 1 20 21
M  V30 21 1 21 22
M  V30 22 1 22 23
M  V30 23 1 23 24
M  V30 24 1 23 25
M  V30 25 1 22 26
M  V30 26 1 26 27
M  V30 27 1 18 28
M  V30 28 2 28 29
M  V30 29 1 29 30
M  V30 30 1 30 31
M  V30 31 2 13 32
M  V30 32 1 32 33
M  V30 33 2 33 34
M  V30 34 1 34 35
M  V30 35 2 35 36
M  V30 36 1 35 37
M  V30 37 2 9 5
M  V30 38 1 34 11
M  V30 39 1 29 15
M  V30 40 1 27 19
M  V30 41 1 1 38
M  V30 42 1 1 39
M  V30 43 1 1 40
M  V30 44 1 6 41
M  V30 45 1 7 42
M  V30 46 1 10 43
M  V30 47 1 14 44
M  V30 48 1 16 45
M  V30 49 1 17 46
M  V30 50 1 20 47
M  V30 51 1 20 48
M  V30 52 1 21 49
M  V30 53 1 21 50
M  V30 54 1 22 51
M  V30 55 1 24 52
M  V30 56 1 24 53
M  V30 57 1 24 54
M  V30 58 1 25 55
M  V30 59 1 25 56
M  V30 60 1 25 57
M  V30 61 1 26 58
M  V30 62 1 26 59
M  V30 63 1 27 60
M  V30 64 1 27 61
M  V30 65 1 28 62
M  V30 66 1 31 63
M  V30 67 1 31 64
M  V30 68 1 31 65
M  V30 69 1 33 66
M  V30 END BOND
M  V30 END CTAB
M  END
>  <Dataset>  (726) 
ChEMBL_Kinases

>  <Ligand_Instance>  (726) 
nan

>  <PDB_ID>  (726) 
nan

>  <Standardized_SMILES>  (726) 
COC(=O)c1ccsc1Nc1nc(Nc2ccc(N3CCC(N(C)C)CC3)cc2OC)ncc1[N+](=O)[O-]

>  <Name>  (726) 
nan

>  <Pocket>  (726) 
nan

>  <ATP_Site>  (726) 
nan

>  <Peripheral>  (726) 
nan

>  <Num_H_Atoms_ProtBoundConf>  (726) 
nan

>  <Num_Resolved_Atoms>  (726) 
nan

>  <Num_Not_Resolved_Atoms>  (726) 
nan

$$$$
CHEMBL4781535
     RDKit          3D

  0  0  0  0  0  0  0  0  0  0999 V3000
M  V30 BEGIN CTAB
M  V30 COUNTS 53 57 0 0 0
M  V30 BEGIN ATOM
M  V30 1 O -1.348654 -3.179095 0.771044 0
M  V30 2 C -1.212729 -3.354685 2.012851 0
M  V30 3 N -0.971685 -2.553858 3.135497 0
M  V30 4 C -0.851924 -1.102483 2.688467 0
M  V30 5 N 0.175552 -0.571490 2.361426 0
M  V30 6 C 0.325385 0.670634 1.970223 0
M  V30 7 C 1.628457 1.201527 1.581010 0
M  V30 8 C 2.241678 2.363010 1.963377 0
M  V30 9 C 3.469022 2.734811 1.499160 0
M  V30 10 N 4.146963 1.964480 0.628809 0
M  V30 11 C 3.644629 0.806390 0.186064 0
M  V30 12 C 2.411364 0.468313 0.674664 0
M  V30 13 C -0.771100 1.447015 1.923021 0
M  V30 14 C -1.187104 2.819090 1.579210 0
M  V30 15 N -1.249777 3.069166 0.165582 0
M  V30 16 C -2.160914 2.244844 -0.550885 0
M  V30 17 C -1.936376 2.458544 -2.035364 0
M  V30 18 O -2.302798 3.774239 -2.316462 0
M  V30 19 C -1.455852 4.639513 -1.639789 0
M  V30 20 C -1.533700 4.455899 -0.139537 0
M  V30 21 S -2.021269 0.208953 2.495948 0
M  V30 22 C -1.376042 -4.818825 2.149061 0
M  V30 23 C -0.303193 -5.516175 2.901691 0
M  V30 24 O 0.416539 -6.350092 2.019068 0
M  V30 25 C 0.579492 -6.143678 0.668332 0
M  V30 26 C 1.740157 -6.400796 0.003795 0
M  V30 27 C 1.784228 -6.151116 -1.369438 0
M  V30 28 C 0.654330 -5.649265 -2.028793 0
M  V30 29 C -0.527488 -5.393359 -1.321154 0
M  V30 30 C -0.549889 -5.650780 0.054880 0
M  V30 31 O -1.603022 -5.469557 0.926994 0
M  V30 32 H -0.908044 -2.991710 4.054273 0
M  V30 33 H 1.702634 2.976078 2.667619 0
M  V30 34 H 3.885596 3.681099 1.857405 0
M  V30 35 H 4.153500 0.171199 -0.503333 0
M  V30 36 H 1.994558 -0.485522 0.311499 0
M  V30 37 H -2.185526 3.036581 2.026502 0
M  V30 38 H -0.488764 3.505241 2.032282 0
M  V30 39 H -3.209340 2.570853 -0.358274 0
M  V30 40 H -2.022000 1.160485 -0.389637 0
M  V30 41 H -0.881238 2.247957 -2.301015 0
M  V30 42 H -2.658403 1.756936 -2.532709 0
M  V30 43 H -0.418511 4.376462 -1.922538 0
M  V30 44 H -1.747357 5.665980 -1.890624 0
M  V30 45 H -0.800797 5.153046 0.298482 0
M  V30 46 H -2.573625 4.635653 0.222843 0
M  V30 47 H -2.331700 -4.985361 2.736697 0
M  V30 48 H 0.445932 -4.802917 3.320232 0
M  V30 49 H -0.704025 -6.136740 3.757142 0
M  V30 50 H 2.613816 -6.790579 0.522334 0
M  V30 51 H 2.681372 -6.337043 -1.952089 0
M  V30 52 H 0.618468 -5.435182 -3.078423 0
M  V30 53 H -1.434757 -5.007672 -1.769815 0
M  V30 END ATOM
M  V30 BEGIN BOND
M  V30 1 2 1 2
M  V30 2 1 2 3
M  V30 3 1 3 4
M  V30 4 2 4 5
M  V30 5 1 5 6
M  V30 6 1 6 7
M  V30 7 2 7 8
M  V30 8 1 8 9
M  V30 9 2 9 10
M  V30 10 1 10 11
M  V30 11 2 11 12
M  V30 12 2 6 13
M  V30 13 1 13 14
M  V30 14 1 14 15
M  V30 15 1 15 16
M  V30 16 1 16 17
M  V30 17 1 17 18
M  V30 18 1 18 19
M  V30 19 1 19 20
M  V30 20 1 13 21
M  V30 21 1 2 22
M  V30 22 1 22 23
M  V30 23 1 23 24
M  V30 24 1 24 25
M  V30 25 2 25 26
M  V30 26 1 26 27
M  V30 27 2 27 28
M  V30 28 1 28 29
M  V30 29 2 29 30
M  V30 30 1 30 31
M  V30 31 1 21 4
M  V30 32 1 31 22
M  V30 33 1 12 7
M  V30 34 1 20 15
M  V30 35 1 30 25
M  V30 36 1 3 32
M  V30 37 1 8 33
M  V30 38 1 9 34
M  V30 39 1 11 35
M  V30 40 1 12 36
M  V30 41 1 14 37
M  V30 42 1 14 38
M  V30 43 1 16 39
M  V30 44 1 16 40
M  V30 45 1 17 41
M  V30 46 1 17 42
M  V30 47 1 19 43
M  V30 48 1 19 44
M  V30 49 1 20 45
M  V30 50 1 20 46
M  V30 51 1 22 47
M  V30 52 1 23 48
M  V30 53 1 23 49
M  V30 54 1 26 50
M  V30 55 1 27 51
M  V30 56 1 28 52
M  V30 57 1 29 53
M  V30 END BOND
M  V30 END CTAB
M  END
>  <Dataset>  (727) 
ChEMBL_Kinases

>  <Ligand_Instance>  (727) 
nan

>  <PDB_ID>  (727) 
nan

>  <Standardized_SMILES>  (727) 
O=C(Nc1nc(-c2ccncc2)c(CN2CCOCC2)s1)C1COc2ccccc2O1

>  <Name>  (727) 
nan

>  <Pocket>  (727) 
nan

>  <ATP_Site>  (727) 
nan

>  <Peripheral>  (727) 
nan

>  <Num_H_Atoms_ProtBoundConf>  (727) 
nan

>  <Num_Resolved_Atoms>  (727) 
nan

>  <Num_Not_Resolved_Atoms>  (727) 
nan

$$$$
CHEMBL4210359
     RDKit          3D

  0  0  0  0  0  0  0  0  0  0999 V3000
M  V30 BEGIN CTAB
M  V30 COUNTS 67 71 0 0 0
M  V30 BEGIN ATOM
M  V30 1 C 2.174499 -4.128507 4.123745 0
M  V30 2 C 2.623248 -4.856036 2.894123 0
M  V30 3 N 2.466890 -4.058241 1.664928 0
M  V30 4 C 1.119791 -3.838346 1.331717 0
M  V30 5 C 0.396251 -5.150014 0.965683 0
M  V30 6 C 3.215877 -2.865772 1.880601 0 CFG=1
M  V30 7 C 4.722107 -3.187056 2.040139 0
M  V30 8 C 3.089677 -1.723641 0.941795 0
M  V30 9 N 1.787402 -1.156205 0.874273 0
M  V30 10 C 1.875394 -0.069369 -0.078861 0
M  V30 11 O 3.069473 0.045889 -0.554085 0
M  V30 12 C 0.855441 0.864517 -0.542425 0
M  V30 13 C -0.482322 0.719410 -0.336937 0
M  V30 14 C -1.370945 1.664742 -0.775531 0
M  V30 15 C -2.807518 1.619515 -0.608787 0
M  V30 16 C -3.663514 2.651413 -0.999087 0
M  V30 17 N -4.929343 2.286795 -0.719805 0
M  V30 18 N -4.937700 1.073544 -0.169350 0
M  V30 19 C -6.017116 0.380983 0.231399 0
M  V30 20 C -5.702111 -0.876838 0.761928 0
M  V30 21 C -4.386948 -1.347116 0.856756 0
M  V30 22 C -4.158660 -2.642896 1.394576 0
M  V30 23 C -3.027604 -3.400948 1.604090 0
M  V30 24 C -3.162371 -4.640662 2.140214 0
M  V30 25 C -4.413205 -5.105583 2.459613 0
M  V30 26 S -5.492207 -3.665721 1.956832 0
M  V30 27 N -3.429827 -0.517469 0.405071 0
M  V30 28 C -3.677097 0.683444 -0.106559 0
M  V30 29 N -0.860209 2.726764 -1.409543 0
M  V30 30 C 0.443164 2.937123 -1.648610 0
M  V30 31 N 0.881491 4.106090 -2.325619 0
M  V30 32 C 0.178692 5.268929 -2.835173 0
M  V30 33 C 1.507836 5.990091 -2.971032 0
M  V30 34 O 1.740768 6.908170 -1.975848 0
M  V30 35 C 2.156106 4.639555 -2.785464 0
M  V30 36 C 1.320691 1.977048 -1.200091 0
M  V30 37 H 1.335300 -3.440543 3.928880 0
M  V30 38 H 3.011872 -3.613483 4.662379 0
M  V30 39 H 1.790858 -4.901524 4.846441 0
M  V30 40 H 3.694267 -5.121605 3.034530 0
M  V30 41 H 2.087278 -5.822659 2.813463 0
M  V30 42 H 1.110796 -3.251459 0.357144 0
M  V30 43 H 0.568322 -3.278984 2.070440 0
M  V30 44 H -0.662190 -4.875715 0.666916 0
M  V30 45 H 0.288283 -5.798143 1.869816 0
M  V30 46 H 0.888588 -5.678878 0.141828 0
M  V30 47 H 2.921777 -2.525410 2.945021 0
M  V30 48 H 5.309561 -2.307873 1.669116 0
M  V30 49 H 5.012249 -4.027523 1.374722 0
M  V30 50 H 4.996758 -3.323955 3.098016 0
M  V30 51 H 3.452021 -2.087261 -0.060727 0
M  V30 52 H 3.851632 -0.919135 1.206412 0
M  V30 53 H 0.764446 -1.111126 1.172561 0
M  V30 54 H -0.858446 -0.151295 0.174059 0
M  V30 55 H -3.455630 3.614126 -1.454968 0
M  V30 56 H -7.038631 0.732210 0.169177 0
M  V30 57 H -6.573426 -1.441506 1.084509 0
M  V30 58 H -2.071791 -2.969278 1.331770 0
M  V30 59 H -2.348316 -5.324436 2.355299 0
M  V30 60 H -4.780169 -6.017886 2.881819 0
M  V30 61 H -0.360971 5.106856 -3.767927 0
M  V30 62 H -0.426249 5.725482 -2.007099 0
M  V30 63 H 1.611333 6.430066 -3.997048 0
M  V30 64 H 0.954659 7.503720 -1.774700 0
M  V30 65 H 2.957352 4.691259 -2.028311 0
M  V30 66 H 2.504193 4.212300 -3.743653 0
M  V30 67 H 2.368932 2.159836 -1.399787 0
M  V30 END ATOM
M  V30 BEGIN BOND
M  V30 1 1 1 2
M  V30 2 1 2 3
M  V30 3 1 3 4
M  V30 4 1 4 5
M  V30 5 1 3 6
M  V30 6 1 6 7
M  V30 7 1 6 8
M  V30 8 1 8 9
M  V30 9 1 9 10
M  V30 10 2 10 11
M  V30 11 1 10 12
M  V30 12 2 12 13
M  V30 13 1 13 14
M  V30 14 1 14 15
M  V30 15 1 15 16
M  V30 16 2 16 17
M  V30 17 1 17 18
M  V30 18 1 18 19
M  V30 19 2 19 20
M  V30 20 1 20 21
M  V30 21 1 21 22
M  V30 22 2 22 23
M  V30 23 1 23 24
M  V30 24 2 24 25
M  V30 25 1 25 26
M  V30 26 2 21 27
M  V30 27 1 27 28
M  V30 28 2 14 29
M  V30 29 1 29 30
M  V30 30 1 30 31
M  V30 31 1 31 32
M  V30 32 1 32 33
M  V30 33 1 33 34
M  V30 34 1 33 35
M  V30 35 2 30 36
M  V30 36 1 36 12
M  V30 37 2 28 15
M  V30 38 1 35 31
M  V30 39 1 28 18
M  V30 40 1 26 22
M  V30 41 1 1 37
M  V30 42 1 1 38
M  V30 43 1 1 39
M  V30 44 1 2 40
M  V30 45 1 2 41
M  V30 46 1 4 42
M  V30 47 1 4 43
M  V30 48 1 5 44
M  V30 49 1 5 45
M  V30 50 1 5 46
M  V30 51 1 6 47 CFG=1
M  V30 52 1 7 48
M  V30 53 1 7 49
M  V30 54 1 7 50
M  V30 55 1 8 51
M  V30 56 1 8 52
M  V30 57 1 9 53
M  V30 58 1 13 54
M  V30 59 1 16 55
M  V30 60 1 19 56
M  V30 61 1 20 57
M  V30 62 1 23 58
M  V30 63 1 24 59
M  V30 64 1 25 60
M  V30 65 1 32 61
M  V30 66 1 32 62
M  V30 67 1 33 63
M  V30 68 1 34 64
M  V30 69 1 35 65
M  V30 70 1 35 66
M  V30 71 1 36 67
M  V30 END BOND
M  V30 END CTAB
M  END
>  <Dataset>  (728) 
ChEMBL_Kinases

>  <Ligand_Instance>  (728) 
nan

>  <PDB_ID>  (728) 
nan

>  <Standardized_SMILES>  (728) 
CCN(CC)[C@@H](C)CNC(=O)c1cc(-c2cnn3ccc(-c4cccs4)nc23)nc(N2CC(O)C2)c1

>  <Name>  (728) 
nan

>  <Pocket>  (728) 
nan

>  <ATP_Site>  (728) 
nan

>  <Peripheral>  (728) 
nan

>  <Num_H_Atoms_ProtBoundConf>  (728) 
nan

>  <Num_Resolved_Atoms>  (728) 
nan

>  <Num_Not_Resolved_Atoms>  (728) 
nan

$$$$
CHEMBL4210461
     RDKit          3D

  0  0  0  0  0  0  0  0  0  0999 V3000
M  V30 BEGIN CTAB
M  V30 COUNTS 41 43 0 0 0
M  V30 BEGIN ATOM
M  V30 1 C -0.367408 -5.027243 2.266388 0
M  V30 2 N 0.744191 -4.861779 1.333328 0
M  V30 3 C 0.513475 -4.792164 -0.091799 0
M  V30 4 C 1.929819 -5.023368 -0.631632 0
M  V30 5 C 2.713642 -4.206056 0.383229 0 CFG=1
M  V30 6 O 4.071900 -4.342780 0.280340 0
M  V30 7 C 2.392404 -2.772066 0.261994 0
M  V30 8 C 2.111642 -1.599590 0.173492 0
M  V30 9 C 1.752954 -0.209301 0.069066 0
M  V30 10 C 2.539722 0.625150 -0.699802 0
M  V30 11 C 2.173277 1.954218 -0.783044 0
M  V30 12 C 1.040822 2.421569 -0.105045 0
M  V30 13 C 0.276674 1.560500 0.654732 0
M  V30 14 C -0.887571 2.123353 1.330533 0
M  V30 15 C -1.760884 1.415141 2.128000 0
M  V30 16 C -2.850066 2.052470 2.731756 0
M  V30 17 N -3.059328 3.375417 2.539193 0
M  V30 18 C -2.205344 4.032899 1.768388 0
M  V30 19 C -2.444878 5.452414 1.572314 0
M  V30 20 N -1.568481 6.213224 0.759564 0
M  V30 21 O -3.424137 6.022456 2.115514 0
M  V30 22 N -1.148421 3.434087 1.177472 0
M  V30 23 C 0.634343 0.232146 0.743983 0
M  V30 24 C 2.147750 -4.748621 1.646381 0
M  V30 25 O 2.566023 -5.088442 2.784031 0
M  V30 26 H -1.131470 -5.696207 1.815475 0
M  V30 27 H 0.001322 -5.445259 3.224111 0
M  V30 28 H -0.839786 -4.043929 2.486520 0
M  V30 29 H 0.217973 -3.779596 -0.431617 0
M  V30 30 H -0.182930 -5.538506 -0.475989 0
M  V30 31 H 2.229604 -6.065813 -0.529331 0
M  V30 32 H 1.955265 -4.605620 -1.643510 0
M  V30 33 H 4.386764 -4.928285 -0.432835 0
M  V30 34 H 3.420648 0.291160 -1.234822 0
M  V30 35 H 2.758513 2.646544 -1.373366 0
M  V30 36 H 0.815824 3.475764 -0.217331 0
M  V30 37 H -1.575733 0.360297 2.268664 0
M  V30 38 H -3.467139 1.380822 3.339258 0
M  V30 39 H -2.064637 6.284280 -0.173850 0
M  V30 40 H -0.905118 6.773126 0.188728 0
M  V30 41 H 0.041612 -0.448463 1.336601 0
M  V30 END ATOM
M  V30 BEGIN BOND
M  V30 1 1 1 2
M  V30 2 1 2 3
M  V30 3 1 3 4
M  V30 4 1 4 5
M  V30 5 1 5 6
M  V30 6 1 5 7 CFG=3
M  V30 7 3 7 8
M  V30 8 1 8 9
M  V30 9 2 9 10
M  V30 10 1 10 11
M  V30 11 2 11 12
M  V30 12 1 12 13
M  V30 13 1 13 14
M  V30 14 2 14 15
M  V30 15 1 15 16
M  V30 16 2 16 17
M  V30 17 1 17 18
M  V30 18 1 18 19
M  V30 19 1 19 20
M  V30 20 2 19 21
M  V30 21 2 18 22
M  V30 22 2 13 23
M  V30 23 1 5 24
M  V30 24 2 24 25
M  V30 25 1 24 2
M  V30 26 1 23 9
M  V30 27 1 22 14
M  V30 28 1 1 26
M  V30 29 1 1 27
M  V30 30 1 1 28
M  V30 31 1 3 29
M  V30 32 1 3 30
M  V30 33 1 4 31
M  V30 34 1 4 32
M  V30 35 1 6 33
M  V30 36 1 10 34
M  V30 37 1 11 35
M  V30 38 1 12 36
M  V30 39 1 15 37
M  V30 40 1 16 38
M  V30 41 1 20 39
M  V30 42 1 20 40
M  V30 43 1 23 41
M  V30 END BOND
M  V30 END CTAB
M  END
>  <Dataset>  (729) 
ChEMBL_Kinases

>  <Ligand_Instance>  (729) 
nan

>  <PDB_ID>  (729) 
nan

>  <Standardized_SMILES>  (729) 
CN1CC[C@@](O)(C#Cc2cccc(-c3ccnc(C(N)=O)n3)c2)C1=O

>  <Name>  (729) 
nan

>  <Pocket>  (729) 
nan

>  <ATP_Site>  (729) 
nan

>  <Peripheral>  (729) 
nan

>  <Num_H_Atoms_ProtBoundConf>  (729) 
nan

>  <Num_Resolved_Atoms>  (729) 
nan

>  <Num_Not_Resolved_Atoms>  (729) 
nan

$$$$
CHEMBL4764341
     RDKit          3D

  0  0  0  0  0  0  0  0  0  0999 V3000
M  V30 BEGIN CTAB
M  V30 COUNTS 55 59 0 0 0
M  V30 BEGIN ATOM
M  V30 1 C 6.698794 -0.337732 6.064045 0
M  V30 2 C 6.271662 0.800392 5.188047 0
M  V30 3 C 6.935275 2.014112 5.345623 0
M  V30 4 C 6.507756 3.034988 4.516803 0
M  V30 5 C 5.494928 2.871346 3.594982 0
M  V30 6 N 4.875361 1.681706 3.470862 0
M  V30 7 C 3.817500 1.315352 2.587002 0
M  V30 8 C 3.950516 1.487374 1.213578 0
M  V30 9 C 2.843119 1.088212 0.453939 0
M  V30 10 C 1.694326 0.560442 1.008872 0
M  V30 11 C 0.565739 0.154055 0.182067 0
M  V30 12 C -0.771004 0.381803 0.339659 0
M  V30 13 C -1.718285 -0.079817 -0.544078 0
M  V30 14 C -1.277604 -0.797950 -1.623938 0
M  V30 15 C -2.057989 -1.341052 -2.618212 0
M  V30 16 C -3.453878 -1.434828 -2.964064 0
M  V30 17 O -3.848668 -1.977391 -4.055375 0
M  V30 18 N -4.664607 -1.065388 -2.396150 0
M  V30 19 C -6.022762 -1.217098 -2.853446 0
M  V30 20 C -6.448839 -2.615189 -2.619111 0
M  V30 21 C -6.408259 -3.687052 -3.476065 0
M  V30 22 C -6.827755 -4.958263 -3.153072 0
M  V30 23 C -7.326907 -5.197384 -1.890116 0
M  V30 24 C -7.387782 -4.152756 -0.994670 0
M  V30 25 C -6.958048 -2.879268 -1.344654 0
M  V30 26 N -1.163433 -1.936187 -3.435699 0
M  V30 27 N 0.034950 -1.762858 -2.970482 0
M  V30 28 C 0.058758 -1.057742 -1.833692 0
M  V30 29 C 0.992662 -0.577717 -0.921964 0
M  V30 30 C 1.611384 0.409808 2.379474 0
M  V30 31 Cl 0.203158 -0.246596 3.180249 0
M  V30 32 C 2.680229 0.787378 3.200506 0
M  V30 33 C 5.247213 0.633128 4.256462 0
M  V30 34 O 4.732629 -0.526691 4.222097 0
M  V30 35 H 5.804278 -0.997381 6.256230 0
M  V30 36 H 7.429135 -0.943407 5.493571 0
M  V30 37 H 7.100734 -0.002009 7.020923 0
M  V30 38 H 7.717345 2.172472 6.045047 0
M  V30 39 H 6.940976 4.034383 4.535820 0
M  V30 40 H 5.106536 3.608620 2.918949 0
M  V30 41 H 4.849759 1.900087 0.783705 0
M  V30 42 H 2.902267 1.204575 -0.636835 0
M  V30 43 H -1.008182 0.956624 1.222432 0
M  V30 44 H -2.752028 0.132327 -0.369859 0
M  V30 45 H -4.541682 -0.592869 -1.451587 0
M  V30 46 H -6.677538 -0.533272 -2.250179 0
M  V30 47 H -6.119086 -0.974751 -3.943669 0
M  V30 48 H -6.026902 -3.498947 -4.466293 0
M  V30 49 H -6.742082 -5.726775 -3.932116 0
M  V30 50 H -7.652845 -6.209758 -1.657793 0
M  V30 51 H -7.790756 -4.429676 -0.034127 0
M  V30 52 H -7.038211 -2.103878 -0.578851 0
M  V30 53 H 0.913435 -2.133362 -3.428499 0
M  V30 54 H 2.016444 -0.851947 -1.203143 0
M  V30 55 H 2.633343 0.676870 4.274044 0
M  V30 END ATOM
M  V30 BEGIN BOND
M  V30 1 1 1 2
M  V30 2 2 2 3
M  V30 3 1 3 4
M  V30 4 2 4 5
M  V30 5 1 5 6
M  V30 6 1 6 7
M  V30 7 2 7 8
M  V30 8 1 8 9
M  V30 9 2 9 10
M  V30 10 1 10 11
M  V30 11 2 11 12
M  V30 12 1 12 13
M  V30 13 2 13 14
M  V30 14 1 14 15
M  V30 15 1 15 16
M  V30 16 2 16 17
M  V30 17 1 16 18
M  V30 18 1 18 19
M  V30 19 1 19 20
M  V30 20 2 20 21
M  V30 21 1 21 22
M  V30 22 2 22 23
M  V30 23 1 23 24
M  V30 24 2 24 25
M  V30 25 2 15 26
M  V30 26 1 26 27
M  V30 27 1 27 28
M  V30 28 2 28 29
M  V30 29 1 10 30
M  V30 30 1 30 31
M  V30 31 2 30 32
M  V30 32 1 6 33
M  V30 33 2 33 34
M  V30 34 1 33 2
M  V30 35 1 32 7
M  V30 36 1 29 11
M  V30 37 1 28 14
M  V30 38 1 25 20
M  V30 39 1 1 35
M  V30 40 1 1 36
M  V30 41 1 1 37
M  V30 42 1 3 38
M  V30 43 1 4 39
M  V30 44 1 5 40
M  V30 45 1 8 41
M  V30 46 1 9 42
M  V30 47 1 12 43
M  V30 48 1 13 44
M  V30 49 1 18 45
M  V30 50 1 19 46
M  V30 51 1 19 47
M  V30 52 1 21 48
M  V30 53 1 22 49
M  V30 54 1 23 50
M  V30 55 1 24 51
M  V30 56 1 25 52
M  V30 57 1 27 53
M  V30 58 1 29 54
M  V30 59 1 32 55
M  V30 END BOND
M  V30 END CTAB
M  END
>  <Dataset>  (730) 
ChEMBL_Kinases

>  <Ligand_Instance>  (730) 
nan

>  <PDB_ID>  (730) 
nan

>  <Standardized_SMILES>  (730) 
Cc1cccn(-c2ccc(-c3ccc4c(C(=O)NCc5ccccc5)n[nH]c4c3)c(Cl)c2)c1=O

>  <Name>  (730) 
nan

>  <Pocket>  (730) 
nan

>  <ATP_Site>  (730) 
nan

>  <Peripheral>  (730) 
nan

>  <Num_H_Atoms_ProtBoundConf>  (730) 
nan

>  <Num_Resolved_Atoms>  (730) 
nan

>  <Num_Not_Resolved_Atoms>  (730) 
nan

$$$$
CHEMBL424666
     RDKit          3D

  0  0  0  0  0  0  0  0  0  0999 V3000
M  V30 BEGIN CTAB
M  V30 COUNTS 64 68 0 0 0
M  V30 BEGIN ATOM
M  V30 1 C 1.904377 -0.571449 5.582933 0
M  V30 2 C 1.554406 -1.730933 4.708741 0
M  V30 3 C 2.650663 -2.762776 4.883793 0
M  V30 4 C 0.256336 -2.333198 5.200694 0
M  V30 5 N 1.359930 -1.317408 3.365388 0
M  V30 6 C 0.989402 -2.294154 2.435399 0
M  V30 7 C 1.505703 -2.075201 1.046149 0
M  V30 8 C 1.546878 -0.651726 0.594405 0
M  V30 9 C 0.606732 -0.383304 -0.534788 0
M  V30 10 C -0.743297 -0.220378 -0.288435 0
M  V30 11 C -1.654264 0.026973 -1.293383 0
M  V30 12 C -1.204222 0.115855 -2.599125 0
M  V30 13 C -2.002987 0.356065 -3.694549 0
M  V30 14 C -3.357264 0.524008 -3.497159 0
M  V30 15 C -3.788556 0.432326 -2.185815 0
M  V30 16 O -5.025218 0.580631 -1.957934 0
M  V30 17 N -2.967573 0.194174 -1.134369 0
M  V30 18 C -3.493191 0.116220 0.187851 0
M  V30 19 C -3.908110 -1.143389 0.640433 0
M  V30 20 Cl -3.801765 -2.591824 -0.335852 0
M  V30 21 C -4.432195 -1.254555 1.934074 0
M  V30 22 C -4.553004 -0.153944 2.782418 0
M  V30 23 C -4.132648 1.079754 2.303328 0
M  V30 24 C -3.606330 1.215950 1.015343 0
M  V30 25 Cl -3.071107 2.752228 0.396342 0
M  V30 26 C 0.143229 -0.046707 -2.843226 0
M  V30 27 C 0.803590 0.007528 -4.146493 0
M  V30 28 C 0.751381 1.094445 -5.005947 0
M  V30 29 C 1.407494 1.091281 -6.225303 0
M  V30 30 C 2.135036 -0.047449 -6.579027 0
M  V30 31 C 2.203927 -1.132350 -5.753568 0
M  V30 32 C 1.535107 -1.092139 -4.542205 0
M  V30 33 Cl 1.660639 -2.522029 -3.521774 0
M  V30 34 N 0.994044 -0.286465 -1.829768 0
M  V30 35 C 1.442128 0.350475 1.698297 0
M  V30 36 C 2.133673 -0.206140 2.929361 0
M  V30 37 H 1.137618 0.240004 5.535691 0
M  V30 38 H 1.838752 -0.956627 6.642826 0
M  V30 39 H 2.938712 -0.195643 5.464447 0
M  V30 40 H 3.176867 -2.626650 5.874154 0
M  V30 41 H 3.351349 -2.674585 4.032364 0
M  V30 42 H 2.240995 -3.794894 4.908222 0
M  V30 43 H 0.468140 -3.068459 6.012779 0
M  V30 44 H -0.430171 -1.573659 5.629661 0
M  V30 45 H -0.237797 -2.940674 4.400434 0
M  V30 46 H 1.292236 -3.320203 2.746200 0
M  V30 47 H -0.130345 -2.348413 2.377618 0
M  V30 48 H 2.530886 -2.545691 1.035578 0
M  V30 49 H 0.934383 -2.690626 0.307818 0
M  V30 50 H 2.567952 -0.515583 0.127147 0
M  V30 51 H -1.137404 -0.285367 0.734293 0
M  V30 52 H -1.614964 0.414781 -4.697414 0
M  V30 53 H -4.049208 0.715898 -4.306392 0
M  V30 54 H -4.753176 -2.224576 2.290623 0
M  V30 55 H -4.953635 -0.223182 3.781614 0
M  V30 56 H -4.191479 1.994678 2.901948 0
M  V30 57 H 0.195478 1.954614 -4.718444 0
M  V30 58 H 1.354592 1.945992 -6.877543 0
M  V30 59 H 2.645789 -0.024708 -7.550810 0
M  V30 60 H 2.796059 -1.983017 -6.111935 0
M  V30 61 H 1.807152 1.345087 1.427459 0
M  V30 62 H 0.368961 0.484466 2.031405 0
M  V30 63 H 3.180888 -0.404264 2.679751 0
M  V30 64 H 2.038894 0.595530 3.717989 0
M  V30 END ATOM
M  V30 BEGIN BOND
M  V30 1 1 1 2
M  V30 2 1 2 3
M  V30 3 1 2 4
M  V30 4 1 2 5
M  V30 5 1 5 6
M  V30 6 1 6 7
M  V30 7 1 7 8
M  V30 8 1 8 9
M  V30 9 2 9 10
M  V30 10 1 10 11
M  V30 11 2 11 12
M  V30 12 1 12 13
M  V30 13 2 13 14
M  V30 14 1 14 15
M  V30 15 2 15 16
M  V30 16 1 15 17
M  V30 17 1 17 18
M  V30 18 2 18 19
M  V30 19 1 19 20
M  V30 20 1 19 21
M  V30 21 2 21 22
M  V30 22 1 22 23
M  V30 23 2 23 24
M  V30 24 1 24 25
M  V30 25 1 12 26
M  V30 26 1 26 27
M  V30 27 2 27 28
M  V30 28 1 28 29
M  V30 29 2 29 30
M  V30 30 1 30 31
M  V30 31 2 31 32
M  V30 32 1 32 33
M  V30 33 2 26 34
M  V30 34 1 8 35
M  V30 35 1 35 36
M  V30 36 1 36 5
M  V30 37 1 34 9
M  V30 38 1 17 11
M  V30 39 1 24 18
M  V30 40 1 32 27
M  V30 41 1 1 37
M  V30 42 1 1 38
M  V30 43 1 1 39
M  V30 44 1 3 40
M  V30 45 1 3 41
M  V30 46 1 3 42
M  V30 47 1 4 43
M  V30 48 1 4 44
M  V30 49 1 4 45
M  V30 50 1 6 46
M  V30 51 1 6 47
M  V30 52 1 7 48
M  V30 53 1 7 49
M  V30 54 1 8 50
M  V30 55 1 10 51
M  V30 56 1 13 52
M  V30 57 1 14 53
M  V30 58 1 21 54
M  V30 59 1 22 55
M  V30 60 1 23 56
M  V30 61 1 28 57
M  V30 62 1 29 58
M  V30 63 1 30 59
M  V30 64 1 31 60
M  V30 65 1 35 61
M  V30 66 1 35 62
M  V30 67 1 36 63
M  V30 68 1 36 64
M  V30 END BOND
M  V30 END CTAB
M  END
>  <Dataset>  (731) 
ChEMBL_Kinases

>  <Ligand_Instance>  (731) 
nan

>  <PDB_ID>  (731) 
nan

>  <Standardized_SMILES>  (731) 
CC(C)(C)N1CCC(c2cc3c(ccc(=O)n3-c3c(Cl)cccc3Cl)c(-c3ccccc3Cl)n2)CC1

>  <Name>  (731) 
nan

>  <Pocket>  (731) 
nan

>  <ATP_Site>  (731) 
nan

>  <Peripheral>  (731) 
nan

>  <Num_H_Atoms_ProtBoundConf>  (731) 
nan

>  <Num_Resolved_Atoms>  (731) 
nan

>  <Num_Not_Resolved_Atoms>  (731) 
nan

$$$$
CHEMBL4246519
     RDKit          3D

  0  0  0  0  0  0  0  0  0  0999 V3000
M  V30 BEGIN CTAB
M  V30 COUNTS 42 45 0 0 0
M  V30 BEGIN ATOM
M  V30 1 C 2.256314 -6.179342 -1.268674 0
M  V30 2 C 1.464051 -4.898799 -1.228774 0
M  V30 3 C 0.096834 -5.037240 -1.147218 0
M  V30 4 C -0.665105 -3.885869 -1.108425 0
M  V30 5 O -2.052307 -3.900623 -1.026360 0
M  V30 6 C 0.007172 -2.677546 -1.154703 0
M  V30 7 C 1.376851 -2.563886 -1.236269 0
M  V30 8 N 2.070145 -1.326810 -1.283034 0
M  V30 9 C 1.698488 0.036245 -1.164570 0
M  V30 10 C 1.880277 0.953837 -2.183142 0
M  V30 11 C 1.534240 2.290081 -2.105957 0
M  V30 12 N 0.989569 2.712396 -0.969080 0
M  V30 13 C 0.763375 1.915551 0.091054 0
M  V30 14 C 0.195215 2.401733 1.262048 0
M  V30 15 C -0.028364 1.577740 2.345967 0
M  V30 16 C -0.627182 2.163235 3.534917 0
M  V30 17 C -0.902920 1.461988 4.678395 0
M  V30 18 C -1.475963 2.112484 5.760822 0
M  V30 19 C -1.798175 3.465746 5.763242 0
M  V30 20 C -1.488814 4.101568 4.572983 0
M  V30 21 N -0.928842 3.461171 3.518153 0
M  V30 22 C 0.329259 0.252956 2.234518 0
M  V30 23 C 0.892124 -0.206831 1.060662 0
M  V30 24 C 1.127223 0.591988 -0.039018 0
M  V30 25 C 2.147534 -3.703228 -1.275647 0
M  V30 26 H 1.974597 -6.711337 -2.180771 0
M  V30 27 H 3.326622 -5.964260 -1.227841 0
M  V30 28 H 1.941700 -6.795483 -0.391010 0
M  V30 29 H -0.380985 -6.002355 -1.113752 0
M  V30 30 H -2.579865 -3.162590 -0.618760 0
M  V30 31 H -0.571066 -1.740070 -1.125605 0
M  V30 32 H 3.098663 -1.265070 -1.433835 0
M  V30 33 H 2.322833 0.635093 -3.121360 0
M  V30 34 H 1.711118 2.951891 -2.957765 0
M  V30 35 H -0.059805 3.440177 1.284262 0
M  V30 36 H -0.678627 0.427020 4.733778 0
M  V30 37 H -1.679262 1.527083 6.645881 0
M  V30 38 H -2.241364 3.964568 6.603003 0
M  V30 39 H -1.719884 5.168652 4.515411 0
M  V30 40 H 0.161953 -0.408371 3.073644 0
M  V30 41 H 1.150150 -1.256043 1.053903 0
M  V30 42 H 3.227115 -3.719996 -1.339361 0
M  V30 END ATOM
M  V30 BEGIN BOND
M  V30 1 1 1 2
M  V30 2 2 2 3
M  V30 3 1 3 4
M  V30 4 1 4 5
M  V30 5 2 4 6
M  V30 6 1 6 7
M  V30 7 1 7 8
M  V30 8 1 8 9
M  V30 9 2 9 10
M  V30 10 1 10 11
M  V30 11 2 11 12
M  V30 12 1 12 13
M  V30 13 2 13 14
M  V30 14 1 14 15
M  V30 15 1 15 16
M  V30 16 2 16 17
M  V30 17 1 17 18
M  V30 18 2 18 19
M  V30 19 1 19 20
M  V30 20 2 20 21
M  V30 21 2 15 22
M  V30 22 1 22 23
M  V30 23 2 23 24
M  V30 24 2 7 25
M  V30 25 1 25 2
M  V30 26 1 24 9
M  V30 27 1 24 13
M  V30 28 1 21 16
M  V30 29 1 1 26
M  V30 30 1 1 27
M  V30 31 1 1 28
M  V30 32 1 3 29
M  V30 33 1 5 30
M  V30 34 1 6 31
M  V30 35 1 8 32
M  V30 36 1 10 33
M  V30 37 1 11 34
M  V30 38 1 14 35
M  V30 39 1 17 36
M  V30 40 1 18 37
M  V30 41 1 19 38
M  V30 42 1 20 39
M  V30 43 1 22 40
M  V30 44 1 23 41
M  V30 45 1 25 42
M  V30 END BOND
M  V30 END CTAB
M  END
>  <Dataset>  (732) 
ChEMBL_Kinases

>  <Ligand_Instance>  (732) 
nan

>  <PDB_ID>  (732) 
nan

>  <Standardized_SMILES>  (732) 
Cc1cc(O)cc(Nc2ccnc3cc(-c4ccccn4)ccc23)c1

>  <Name>  (732) 
nan

>  <Pocket>  (732) 
nan

>  <ATP_Site>  (732) 
nan

>  <Peripheral>  (732) 
nan

>  <Num_H_Atoms_ProtBoundConf>  (732) 
nan

>  <Num_Resolved_Atoms>  (732) 
nan

>  <Num_Not_Resolved_Atoms>  (732) 
nan

$$$$
CHEMBL4245639
     RDKit          3D

  0  0  0  0  0  0  0  0  0  0999 V3000
M  V30 BEGIN CTAB
M  V30 COUNTS 61 65 0 0 0
M  V30 BEGIN ATOM
M  V30 1 C 3.491921 3.031205 3.840520 0
M  V30 2 C 2.056367 3.448094 4.030921 0
M  V30 3 O 1.188413 2.473805 3.518777 0
M  V30 4 C 1.183961 2.103472 2.187524 0
M  V30 5 C 1.995402 2.625201 1.219462 0
M  V30 6 C 1.990056 2.256523 -0.105762 0
M  V30 7 C 2.901002 2.878599 -1.056543 0
M  V30 8 N 3.074031 4.172874 -1.415239 0
M  V30 9 N 4.041020 4.234629 -2.333928 0
M  V30 10 C 4.482398 2.987681 -2.560233 0
M  V30 11 N 3.789639 2.147705 -1.781568 0
M  V30 12 C 4.012089 0.728795 -1.776364 0
M  V30 13 C 1.076864 1.270502 -0.472688 0
M  V30 14 C 0.259368 0.746162 0.505431 0
M  V30 15 C 0.259666 1.110508 1.835491 0
M  V30 16 N -0.654239 0.490722 2.728121 0
M  V30 17 C -1.585364 -0.565249 2.552933 0
M  V30 18 N -2.386003 -0.780512 3.635504 0
M  V30 19 C -3.324150 -1.731678 3.686866 0
M  V30 20 C -3.422821 -2.482667 2.559344 0
M  V30 21 C -4.411376 -3.470271 2.619498 0
M  V30 22 C -4.620524 -4.299481 1.539499 0
M  V30 23 C -5.653743 -5.379421 1.516675 0
M  V30 24 N -3.837484 -4.097634 0.470579 0
M  V30 25 C -2.888804 -3.158207 0.398860 0
M  V30 26 N -2.078236 -3.038777 -0.785171 0
M  V30 27 C -2.222271 -3.710121 -2.089190 0
M  V30 28 C -0.714666 -3.713428 -2.154420 0
M  V30 29 C -0.132440 -3.465176 -3.517487 0
M  V30 30 C -0.113737 -4.825353 -1.348505 0
M  V30 31 C -0.926770 -2.415524 -1.358583 0
M  V30 32 C -2.655882 -2.322185 1.444560 0
M  V30 33 N -1.734617 -1.344783 1.468821 0
M  V30 34 H 4.124167 3.806086 3.355392 0
M  V30 35 H 3.972874 2.813824 4.841934 0
M  V30 36 H 3.598757 2.085632 3.272988 0
M  V30 37 H 1.949980 4.439024 3.502934 0
M  V30 38 H 1.892651 3.631099 5.116381 0
M  V30 39 H 2.702323 3.392918 1.493073 0
M  V30 40 H 5.279412 2.851063 -3.289106 0
M  V30 41 H 5.099076 0.494711 -1.714724 0
M  V30 42 H 3.561359 0.278402 -0.854628 0
M  V30 43 H 3.545372 0.230585 -2.672484 0
M  V30 44 H 1.076178 0.987010 -1.504584 0
M  V30 45 H -0.405963 0.003907 0.095311 0
M  V30 46 H -0.569834 0.950174 3.678884 0
M  V30 47 H -3.922102 -1.845684 4.576221 0
M  V30 48 H -5.046258 -3.632880 3.488912 0
M  V30 49 H -6.045251 -5.521190 0.472509 0
M  V30 50 H -5.286583 -6.342581 1.887918 0
M  V30 51 H -6.514923 -5.087276 2.144990 0
M  V30 52 H -2.715879 -3.002344 -2.783945 0
M  V30 53 H -2.689348 -4.711525 -2.012700 0
M  V30 54 H 0.753396 -4.117477 -3.659584 0
M  V30 55 H 0.175498 -2.408589 -3.585792 0
M  V30 56 H -0.887747 -3.727242 -4.280506 0
M  V30 57 H 0.665490 -4.415649 -0.677426 0
M  V30 58 H 0.282982 -5.585803 -2.033075 0
M  V30 59 H -0.876452 -5.335924 -0.698209 0
M  V30 60 H -0.086235 -2.202581 -0.667897 0
M  V30 61 H -1.099823 -1.594314 -2.061058 0
M  V30 END ATOM
M  V30 BEGIN BOND
M  V30 1 1 1 2
M  V30 2 1 2 3
M  V30 3 1 3 4
M  V30 4 2 4 5
M  V30 5 1 5 6
M  V30 6 1 6 7
M  V30 7 2 7 8
M  V30 8 1 8 9
M  V30 9 2 9 10
M  V30 10 1 10 11
M  V30 11 1 11 12
M  V30 12 2 6 13
M  V30 13 1 13 14
M  V30 14 2 14 15
M  V30 15 1 15 16
M  V30 16 1 16 17
M  V30 17 2 17 18
M  V30 18 1 18 19
M  V30 19 2 19 20
M  V30 20 1 20 21
M  V30 21 2 21 22
M  V30 22 1 22 23
M  V30 23 1 22 24
M  V30 24 2 24 25
M  V30 25 1 25 26
M  V30 26 1 26 27
M  V30 27 1 27 28
M  V30 28 1 28 29
M  V30 29 1 28 30
M  V30 30 1 28 31
M  V30 31 1 25 32
M  V30 32 2 32 33
M  V30 33 1 15 4
M  V30 34 1 33 17
M  V30 35 1 11 7
M  V30 36 1 32 20
M  V30 37 1 31 26
M  V30 38 1 1 34
M  V30 39 1 1 35
M  V30 40 1 1 36
M  V30 41 1 2 37
M  V30 42 1 2 38
M  V30 43 1 5 39
M  V30 44 1 10 40
M  V30 45 1 12 41
M  V30 46 1 12 42
M  V30 47 1 12 43
M  V30 48 1 13 44
M  V30 49 1 14 45
M  V30 50 1 16 46
M  V30 51 1 19 47
M  V30 52 1 21 48
M  V30 53 1 23 49
M  V30 54 1 23 50
M  V30 55 1 23 51
M  V30 56 1 27 52
M  V30 57 1 27 53
M  V30 58 1 29 54
M  V30 59 1 29 55
M  V30 60 1 29 56
M  V30 61 1 30 57
M  V30 62 1 30 58
M  V30 63 1 30 59
M  V30 64 1 31 60
M  V30 65 1 31 61
M  V30 END BOND
M  V30 END CTAB
M  END
>  <Dataset>  (733) 
ChEMBL_Kinases

>  <Ligand_Instance>  (733) 
nan

>  <PDB_ID>  (733) 
nan

>  <Standardized_SMILES>  (733) 
CCOc1cc(-c2nncn2C)ccc1Nc1ncc2cc(C)nc(N3CC(C)(C)C3)c2n1

>  <Name>  (733) 
nan

>  <Pocket>  (733) 
nan

>  <ATP_Site>  (733) 
nan

>  <Peripheral>  (733) 
nan

>  <Num_H_Atoms_ProtBoundConf>  (733) 
nan

>  <Num_Resolved_Atoms>  (733) 
nan

>  <Num_Not_Resolved_Atoms>  (733) 
nan

$$$$
CHEMBL4245590
     RDKit          3D

  0  0  0  0  0  0  0  0  0  0999 V3000
M  V30 BEGIN CTAB
M  V30 COUNTS 58 62 0 0 0
M  V30 BEGIN ATOM
M  V30 1 C 4.351031 -1.288934 4.511468 0
M  V30 2 N 3.643473 -1.682110 3.298747 0
M  V30 3 C 2.617985 -2.548930 3.228510 0
M  V30 4 C 2.176095 -2.692853 1.906112 0
M  V30 5 C 1.084348 -3.600726 1.598800 0
M  V30 6 C -0.118293 -3.450002 1.016466 0
M  V30 7 C -0.860756 -2.341807 0.444238 0
M  V30 8 C -0.655087 -1.332659 -0.465045 0
M  V30 9 N -1.691301 -0.504524 -0.610437 0
M  V30 10 C -1.749176 0.637147 -1.495157 0
M  V30 11 C -1.259068 1.879840 -0.794201 0
M  V30 12 C -1.289306 3.109349 -1.648670 0
M  V30 13 C -2.684197 3.443172 -2.135685 0
M  V30 14 C -2.673984 4.691255 -2.995259 0
M  V30 15 C -1.831636 4.545993 -4.169553 0
M  V30 16 N -1.135346 4.432069 -5.107128 0
M  V30 17 C -2.649346 -0.945742 0.220293 0
M  V30 18 C -3.898612 -0.394917 0.411307 0
M  V30 19 C -4.752761 -0.983506 1.318470 0
M  V30 20 C -4.314750 -2.101444 1.996047 0
M  V30 21 C -3.073669 -2.598970 1.766151 0
M  V30 22 C -2.166914 -2.060808 0.871503 0
M  V30 23 C -0.738470 -4.796672 0.982936 0
M  V30 24 O -1.871745 -5.185472 0.530141 0
M  V30 25 N 0.111181 -5.777209 1.560353 0
M  V30 26 O -0.078834 -7.105719 1.722886 0
M  V30 27 C 1.255657 -5.029051 1.947716 0
M  V30 28 O 2.251306 -5.594131 2.514433 0
M  V30 29 C 3.024368 -1.847969 1.227157 0
M  V30 30 C 3.020033 -1.632178 -0.131915 0
M  V30 31 C 3.937342 -0.764663 -0.684673 0
M  V30 32 C 4.850403 -0.123581 0.135165 0
M  V30 33 C 4.837156 -0.358858 1.508005 0
M  V30 34 C 3.921759 -1.226144 2.065465 0
M  V30 35 H 5.208433 -0.647815 4.261801 0
M  V30 36 H 3.624085 -0.834760 5.205842 0
M  V30 37 H 4.766249 -2.206449 5.006348 0
M  V30 38 H 2.223696 -3.045725 4.123770 0
M  V30 39 H 0.250014 -1.222144 -1.008910 0
M  V30 40 H -1.062453 0.488316 -2.367152 0
M  V30 41 H -2.753202 0.736732 -1.905381 0
M  V30 42 H -0.203518 1.722627 -0.481224 0
M  V30 43 H -1.818230 2.106133 0.134579 0
M  V30 44 H -0.667686 3.022231 -2.563045 0
M  V30 45 H -0.851549 3.934570 -1.056242 0
M  V30 46 H -3.301276 3.668186 -1.243088 0
M  V30 47 H -3.149914 2.589082 -2.655195 0
M  V30 48 H -2.299286 5.563662 -2.432222 0
M  V30 49 H -3.716939 4.921270 -3.290065 0
M  V30 50 H -4.238950 0.484145 -0.122918 0
M  V30 51 H -5.728612 -0.539448 1.456007 0
M  V30 52 H -5.008649 -2.537941 2.700166 0
M  V30 53 H -2.823958 -3.454846 2.343182 0
M  V30 54 H 0.282595 -7.555282 0.918439 0
M  V30 55 H 2.332765 -2.134426 -0.793346 0
M  V30 56 H 3.969564 -0.564738 -1.750627 0
M  V30 57 H 5.575158 0.563714 -0.306261 0
M  V30 58 H 5.547387 0.135806 2.168162 0
M  V30 END ATOM
M  V30 BEGIN BOND
M  V30 1 1 1 2
M  V30 2 1 2 3
M  V30 3 2 3 4
M  V30 4 1 4 5
M  V30 5 2 5 6
M  V30 6 1 6 7
M  V30 7 2 7 8
M  V30 8 1 8 9
M  V30 9 1 9 10
M  V30 10 1 10 11
M  V30 11 1 11 12
M  V30 12 1 12 13
M  V30 13 1 13 14
M  V30 14 1 14 15
M  V30 15 3 15 16
M  V30 16 1 9 17
M  V30 17 2 17 18
M  V30 18 1 18 19
M  V30 19 2 19 20
M  V30 20 1 20 21
M  V30 21 2 21 22
M  V30 22 1 6 23
M  V30 23 2 23 24
M  V30 24 1 23 25
M  V30 25 1 25 26
M  V30 26 1 25 27
M  V30 27 2 27 28
M  V30 28 1 4 29
M  V30 29 2 29 30
M  V30 30 1 30 31
M  V30 31 2 31 32
M  V30 32 1 32 33
M  V30 33 2 33 34
M  V30 34 1 34 2
M  V30 35 1 27 5
M  V30 36 1 34 29
M  V30 37 1 22 7
M  V30 38 1 22 17
M  V30 39 1 1 35
M  V30 40 1 1 36
M  V30 41 1 1 37
M  V30 42 1 3 38
M  V30 43 1 8 39
M  V30 44 1 10 40
M  V30 45 1 10 41
M  V30 46 1 11 42
M  V30 47 1 11 43
M  V30 48 1 12 44
M  V30 49 1 12 45
M  V30 50 1 13 46
M  V30 51 1 13 47
M  V30 52 1 14 48
M  V30 53 1 14 49
M  V30 54 1 18 50
M  V30 55 1 19 51
M  V30 56 1 20 52
M  V30 57 1 21 53
M  V30 58 1 26 54
M  V30 59 1 30 55
M  V30 60 1 31 56
M  V30 61 1 32 57
M  V30 62 1 33 58
M  V30 END BOND
M  V30 END CTAB
M  END
>  <Dataset>  (734) 
ChEMBL_Kinases

>  <Ligand_Instance>  (734) 
nan

>  <PDB_ID>  (734) 
nan

>  <Standardized_SMILES>  (734) 
Cn1cc(C2=C(c3cn(CCCCCC#N)c4ccccc34)C(=O)N(O)C2=O)c2ccccc21

>  <Name>  (734) 
nan

>  <Pocket>  (734) 
nan

>  <ATP_Site>  (734) 
nan

>  <Peripheral>  (734) 
nan

>  <Num_H_Atoms_ProtBoundConf>  (734) 
nan

>  <Num_Resolved_Atoms>  (734) 
nan

>  <Num_Not_Resolved_Atoms>  (734) 
nan

$$$$
CHEMBL4764356
     RDKit          3D

  0  0  0  0  0  0  0  0  0  0999 V3000
M  V30 BEGIN CTAB
M  V30 COUNTS 43 45 0 0 0
M  V30 BEGIN ATOM
M  V30 1 C 0.313508 -7.136744 1.251382 0
M  V30 2 C -0.580636 -5.945110 0.990401 0
M  V30 3 C -1.957334 -6.493236 0.632633 0
M  V30 4 O -0.058207 -5.131258 -0.010934 0
M  V30 5 C 0.297464 -3.810941 0.084476 0
M  V30 6 C 0.792616 -3.247754 -1.073255 0
M  V30 7 C 1.208542 -1.938430 -1.199193 0
M  V30 8 C 1.124926 -1.117236 -0.076615 0
M  V30 9 C 1.552050 0.276271 -0.155526 0
M  V30 10 C 2.575440 0.688462 -0.982579 0
M  V30 11 N 2.850098 2.004560 -0.944342 0
M  V30 12 C 2.181052 2.868553 -0.159047 0
M  V30 13 N 2.557176 4.228329 -0.201454 0
M  V30 14 C 1.160207 2.489736 0.672952 0
M  V30 15 C 0.412888 3.399773 1.537379 0
M  V30 16 C 0.078920 3.186676 2.862673 0
M  V30 17 C -0.638972 4.151606 3.554375 0
M  V30 18 C -1.030305 5.326817 2.947028 0
M  V30 19 Cl -1.932820 6.529015 3.836525 0
M  V30 20 C -0.704704 5.552958 1.627052 0
M  V30 21 C 0.015445 4.592488 0.922048 0
M  V30 22 C 0.844105 1.129208 0.662260 0
M  V30 23 C 0.630452 -1.674392 1.085098 0
M  V30 24 C 0.214517 -2.983256 1.211696 0
M  V30 25 H -0.013171 -7.600252 2.201748 0
M  V30 26 H 0.178921 -7.857144 0.431767 0
M  V30 27 H 1.345998 -6.739142 1.342849 0
M  V30 28 H -0.697531 -5.415779 1.978852 0
M  V30 29 H -2.561414 -6.635896 1.555035 0
M  V30 30 H -2.401853 -5.753361 -0.050405 0
M  V30 31 H -1.916006 -7.468279 0.126724 0
M  V30 32 H 0.895522 -3.812467 -2.003226 0
M  V30 33 H 1.593220 -1.512178 -2.110410 0
M  V30 34 H 3.050929 -0.068571 -1.571485 0
M  V30 35 H 2.502524 4.901188 0.602144 0
M  V30 36 H 2.939137 4.786268 -0.996644 0
M  V30 37 H 0.414354 2.245500 3.283080 0
M  V30 38 H -0.867102 3.921202 4.586423 0
M  V30 39 H -1.026463 6.492581 1.168136 0
M  V30 40 H 0.212750 4.883530 -0.111419 0
M  V30 41 H 0.033586 0.806228 1.318159 0
M  V30 42 H 0.556467 -1.051159 1.974645 0
M  V30 43 H -0.171328 -3.447743 2.087782 0
M  V30 END ATOM
M  V30 BEGIN BOND
M  V30 1 1 1 2
M  V30 2 1 2 3
M  V30 3 1 2 4
M  V30 4 1 4 5
M  V30 5 2 5 6
M  V30 6 1 6 7
M  V30 7 2 7 8
M  V30 8 1 8 9
M  V30 9 2 9 10
M  V30 10 1 10 11
M  V30 11 2 11 12
M  V30 12 1 12 13
M  V30 13 1 12 14
M  V30 14 1 14 15
M  V30 15 2 15 16
M  V30 16 1 16 17
M  V30 17 2 17 18
M  V30 18 1 18 19
M  V30 19 1 18 20
M  V30 20 2 20 21
M  V30 21 2 14 22
M  V30 22 1 8 23
M  V30 23 2 23 24
M  V30 24 1 24 5
M  V30 25 1 22 9
M  V30 26 1 21 15
M  V30 27 1 1 25
M  V30 28 1 1 26
M  V30 29 1 1 27
M  V30 30 1 2 28
M  V30 31 1 3 29
M  V30 32 1 3 30
M  V30 33 1 3 31
M  V30 34 1 6 32
M  V30 35 1 7 33
M  V30 36 1 10 34
M  V30 37 1 13 35
M  V30 38 1 13 36
M  V30 39 1 16 37
M  V30 40 1 17 38
M  V30 41 1 20 39
M  V30 42 1 21 40
M  V30 43 1 22 41
M  V30 44 1 23 42
M  V30 45 1 24 43
M  V30 END BOND
M  V30 END CTAB
M  END
>  <Dataset>  (735) 
ChEMBL_Kinases

>  <Ligand_Instance>  (735) 
nan

>  <PDB_ID>  (735) 
nan

>  <Standardized_SMILES>  (735) 
CC(C)Oc1ccc(-c2cnc(N)c(-c3ccc(Cl)cc3)c2)cc1

>  <Name>  (735) 
nan

>  <Pocket>  (735) 
nan

>  <ATP_Site>  (735) 
nan

>  <Peripheral>  (735) 
nan

>  <Num_H_Atoms_ProtBoundConf>  (735) 
nan

>  <Num_Resolved_Atoms>  (735) 
nan

>  <Num_Not_Resolved_Atoms>  (735) 
nan

$$$$
CHEMBL4764361
     RDKit          3D

  0  0  0  0  0  0  0  0  0  0999 V3000
M  V30 BEGIN CTAB
M  V30 COUNTS 57 60 0 0 0
M  V30 BEGIN ATOM
M  V30 1 C 1.722122 -4.112254 3.404278 0
M  V30 2 C 2.811316 -3.888552 2.423866 0
M  V30 3 O 3.415731 -4.866668 1.866049 0
M  V30 4 N 3.235295 -2.573033 2.057567 0
M  V30 5 C 4.261038 -2.214468 1.136169 0 CFG=2
M  V30 6 C 5.410511 -1.458338 1.763226 0
M  V30 7 C 4.818919 -0.189156 2.295046 0
M  V30 8 C 4.165772 0.678983 1.268961 0
M  V30 9 C 3.502587 -0.006649 0.149349 0 CFG=2
M  V30 10 C 2.021402 0.137999 0.267547 0
M  V30 11 O 1.292330 -0.880834 0.371411 0
M  V30 12 N 1.384069 1.385012 0.268742 0
M  V30 13 C 0.016742 1.729761 0.369002 0
M  V30 14 C -1.047241 0.873102 0.494012 0
M  V30 15 C -2.376904 1.225077 0.590848 0
M  V30 16 C -3.425892 0.244645 0.719777 0
M  V30 17 C -3.982073 -0.313527 1.829716 0
M  V30 18 N -4.932878 -1.182997 1.419521 0
M  V30 19 N -5.016679 -1.212601 0.102648 0
M  V30 20 C -4.081657 -0.326108 -0.350424 0
M  V30 21 C -4.013599 -0.208692 -1.821474 0
M  V30 22 N -3.810169 -1.546011 -2.337387 0
M  V30 23 C -3.366972 -1.557191 -3.700582 0
M  V30 24 C -4.943010 -2.369348 -2.059056 0
M  V30 25 C -5.790426 -1.895084 -0.915552 0
M  V30 26 C -2.681357 2.569991 0.560233 0
M  V30 27 Cl -4.326026 3.163067 0.673392 0
M  V30 28 C -1.616256 3.437568 0.434673 0
M  V30 29 N -0.341791 3.021846 0.345133 0
M  V30 30 C 3.813972 -1.433790 -0.062921 0
M  V30 31 H 0.784938 -3.594892 3.126851 0
M  V30 32 H 1.496360 -5.198952 3.422160 0
M  V30 33 H 2.064880 -3.852789 4.443026 0
M  V30 34 H 2.713981 -1.808328 2.537625 0
M  V30 35 H 4.685205 -3.180817 0.740724 0
M  V30 36 H 5.774099 -2.040609 2.626951 0
M  V30 37 H 6.174694 -1.301819 0.990603 0
M  V30 38 H 4.130615 -0.462121 3.122282 0
M  V30 39 H 5.676066 0.351522 2.792613 0
M  V30 40 H 4.951424 1.387129 0.915669 0
M  V30 41 H 3.438775 1.323143 1.805541 0
M  V30 42 H 3.742685 0.567084 -0.795978 0
M  V30 43 H 2.072198 2.186213 0.177474 0
M  V30 44 H -0.861181 -0.188515 0.522739 0
M  V30 45 H -3.661120 -0.051638 2.828712 0
M  V30 46 H -3.296951 0.515332 -2.194224 0
M  V30 47 H -5.014315 0.101544 -2.203848 0
M  V30 48 H -2.328140 -1.984247 -3.764589 0
M  V30 49 H -3.270244 -0.523459 -4.077115 0
M  V30 50 H -4.045187 -2.092065 -4.383878 0
M  V30 51 H -4.592710 -3.388960 -1.808258 0
M  V30 52 H -5.617014 -2.475434 -2.943200 0
M  V30 53 H -6.538205 -1.194225 -1.330358 0
M  V30 54 H -6.327946 -2.773095 -0.504923 0
M  V30 55 H -1.762466 4.510794 0.402138 0
M  V30 56 H 4.607211 -1.559791 -0.830069 0
M  V30 57 H 2.945489 -2.016503 -0.491348 0
M  V30 END ATOM
M  V30 BEGIN BOND
M  V30 1 1 1 2
M  V30 2 2 2 3
M  V30 3 1 2 4
M  V30 4 1 4 5
M  V30 5 1 5 6
M  V30 6 1 6 7
M  V30 7 1 7 8
M  V30 8 1 8 9
M  V30 9 1 9 10
M  V30 10 2 10 11
M  V30 11 1 10 12
M  V30 12 1 12 13
M  V30 13 2 13 14
M  V30 14 1 14 15
M  V30 15 1 15 16
M  V30 16 1 16 17
M  V30 17 2 17 18
M  V30 18 1 18 19
M  V30 19 1 19 20
M  V30 20 1 20 21
M  V30 21 1 21 22
M  V30 22 1 22 23
M  V30 23 1 22 24
M  V30 24 1 24 25
M  V30 25 2 15 26
M  V30 26 1 26 27
M  V30 27 1 26 28
M  V30 28 2 28 29
M  V30 29 1 9 30
M  V30 30 1 30 5
M  V30 31 1 29 13
M  V30 32 2 20 16
M  V30 33 1 25 19
M  V30 34 1 1 31
M  V30 35 1 1 32
M  V30 36 1 1 33
M  V30 37 1 4 34
M  V30 38 1 5 35 CFG=3
M  V30 39 1 6 36
M  V30 40 1 6 37
M  V30 41 1 7 38
M  V30 42 1 7 39
M  V30 43 1 8 40
M  V30 44 1 8 41
M  V30 45 1 9 42 CFG=3
M  V30 46 1 12 43
M  V30 47 1 14 44
M  V30 48 1 17 45
M  V30 49 1 21 46
M  V30 50 1 21 47
M  V30 51 1 23 48
M  V30 52 1 23 49
M  V30 53 1 23 50
M  V30 54 1 24 51
M  V30 55 1 24 52
M  V30 56 1 25 53
M  V30 57 1 25 54
M  V30 58 1 28 55
M  V30 59 1 30 56
M  V30 60 1 30 57
M  V30 END BOND
M  V30 END CTAB
M  END
>  <Dataset>  (736) 
ChEMBL_Kinases

>  <Ligand_Instance>  (736) 
nan

>  <PDB_ID>  (736) 
nan

>  <Standardized_SMILES>  (736) 
CC(=O)N[C@@H]1CCC[C@H](C(=O)Nc2cc(-c3cnn4c3CN(C)CC4)c(Cl)cn2)C1

>  <Name>  (736) 
nan

>  <Pocket>  (736) 
nan

>  <ATP_Site>  (736) 
nan

>  <Peripheral>  (736) 
nan

>  <Num_H_Atoms_ProtBoundConf>  (736) 
nan

>  <Num_Resolved_Atoms>  (736) 
nan

>  <Num_Not_Resolved_Atoms>  (736) 
nan

$$$$
CHEMBL4245197
     RDKit          3D

  0  0  0  0  0  0  0  0  0  0999 V3000
M  V30 BEGIN CTAB
M  V30 COUNTS 62 66 0 0 0
M  V30 BEGIN ATOM
M  V30 1 C 1.699058 -2.940165 5.769592 0
M  V30 2 N 0.861825 -2.336538 4.771375 0
M  V30 3 C 0.694791 -0.921655 4.901260 0
M  V30 4 C 1.908027 -0.159134 4.416818 0
M  V30 5 N 2.389417 -0.567698 3.153154 0
M  V30 6 C 1.882486 0.212959 2.058281 0
M  V30 7 C 2.372838 1.625338 2.028786 0
M  V30 8 O 1.939395 2.414761 0.980133 0
M  V30 9 C 0.729508 2.802290 0.533155 0
M  V30 10 C 0.922814 3.627236 -0.585418 0
M  V30 11 C -0.115748 4.214604 -1.313565 0
M  V30 12 C -1.410021 3.926039 -0.852184 0
M  V30 13 C -1.659549 3.117938 0.245921 0
M  V30 14 C -3.079861 2.832409 0.670657 0
M  V30 15 C -3.515087 1.673919 -0.141622 0
M  V30 16 O -2.290671 1.874704 -0.492147 0
M  V30 17 N -4.358851 0.673063 -0.645070 0
M  V30 18 C -3.598800 -0.087071 -1.623749 0
M  V30 19 N -2.970801 -1.007312 -1.574122 0
M  V30 20 C -2.323975 -1.670947 -2.501135 0
M  V30 21 C -1.487826 -2.841562 -2.292065 0
M  V30 22 C -0.976000 -3.242010 -1.075220 0
M  V30 23 N -0.258125 -4.371966 -1.141428 0
M  V30 24 C -0.261766 -4.778836 -2.425373 0
M  V30 25 N 0.264351 -5.826407 -3.088642 0
M  V30 26 C 0.093289 -6.013390 -4.407454 0
M  V30 27 C -0.651968 -5.097560 -5.113074 0
M  V30 28 C -1.199828 -4.018501 -4.459833 0
M  V30 29 C -1.023293 -3.831112 -3.125646 0
M  V30 30 C -2.496219 -1.033015 -3.822347 0
M  V30 31 S -3.546058 0.375420 -3.465324 0
M  V30 32 C -0.566430 2.597829 0.883294 0
M  V30 33 C 2.396951 -1.961139 2.866225 0
M  V30 34 C 1.241705 -2.716159 3.443684 0
M  V30 35 H 2.775978 -2.859350 5.488347 0
M  V30 36 H 1.404884 -4.005391 5.856331 0
M  V30 37 H 1.544169 -2.385414 6.728684 0
M  V30 38 H -0.236583 -0.610062 4.410514 0
M  V30 39 H 0.601864 -0.659026 5.989530 0
M  V30 40 H 1.654789 0.894965 4.432889 0
M  V30 41 H 2.700337 -0.319360 5.185885 0
M  V30 42 H 0.758545 0.125553 2.123593 0
M  V30 43 H 2.186629 -0.263820 1.084937 0
M  V30 44 H 3.507451 1.540514 1.920195 0
M  V30 45 H 2.281079 2.154124 3.022174 0
M  V30 46 H 1.882830 3.925610 -1.044628 0
M  V30 47 H -0.006582 4.855135 -2.175427 0
M  V30 48 H -2.238845 4.384780 -1.413156 0
M  V30 49 H -3.737238 3.684261 0.405055 0
M  V30 50 H -3.146637 2.636472 1.762894 0
M  V30 51 H -5.188743 0.889510 -0.099318 0
M  V30 52 H -1.120206 -2.712598 -0.128715 0
M  V30 53 H 0.222480 -4.846934 -0.323682 0
M  V30 54 H 0.522428 -6.866696 -4.949419 0
M  V30 55 H -0.775200 -5.276204 -6.184321 0
M  V30 56 H -1.766102 -3.386933 -5.088240 0
M  V30 57 H -2.132015 -1.238524 -4.823121 0
M  V30 58 H -0.676362 1.966248 1.750112 0
M  V30 59 H 2.297732 -2.055944 1.752105 0
M  V30 60 H 3.337580 -2.447433 3.198573 0
M  V30 61 H 1.572260 -3.796693 3.491771 0
M  V30 62 H 0.366720 -2.695360 2.733230 0
M  V30 END ATOM
M  V30 BEGIN BOND
M  V30 1 1 1 2
M  V30 2 1 2 3
M  V30 3 1 3 4
M  V30 4 1 4 5
M  V30 5 1 5 6
M  V30 6 1 6 7
M  V30 7 1 7 8
M  V30 8 1 8 9
M  V30 9 2 9 10
M  V30 10 1 10 11
M  V30 11 2 11 12
M  V30 12 1 12 13
M  V30 13 1 13 14
M  V30 14 1 14 15
M  V30 15 2 15 16
M  V30 16 1 15 17
M  V30 17 1 17 18
M  V30 18 2 18 19
M  V30 19 1 19 20
M  V30 20 1 20 21
M  V30 21 2 21 22
M  V30 22 1 22 23
M  V30 23 1 23 24
M  V30 24 2 24 25
M  V30 25 1 25 26
M  V30 26 2 26 27
M  V30 27 1 27 28
M  V30 28 2 28 29
M  V30 29 2 20 30
M  V30 30 1 30 31
M  V30 31 2 13 32
M  V30 32 1 5 33
M  V30 33 1 33 34
M  V30 34 1 34 2
M  V30 35 1 32 9
M  V30 36 1 31 18
M  V30 37 1 29 21
M  V30 38 1 29 24
M  V30 39 1 1 35
M  V30 40 1 1 36
M  V30 41 1 1 37
M  V30 42 1 3 38
M  V30 43 1 3 39
M  V30 44 1 4 40
M  V30 45 1 4 41
M  V30 46 1 6 42
M  V30 47 1 6 43
M  V30 48 1 7 44
M  V30 49 1 7 45
M  V30 50 1 10 46
M  V30 51 1 11 47
M  V30 52 1 12 48
M  V30 53 1 14 49
M  V30 54 1 14 50
M  V30 55 1 17 51
M  V30 56 1 22 52
M  V30 57 1 23 53
M  V30 58 1 26 54
M  V30 59 1 27 55
M  V30 60 1 28 56
M  V30 61 1 30 57
M  V30 62 1 32 58
M  V30 63 1 33 59
M  V30 64 1 33 60
M  V30 65 1 34 61
M  V30 66 1 34 62
M  V30 END BOND
M  V30 END CTAB
M  END
>  <Dataset>  (737) 
ChEMBL_Kinases

>  <Ligand_Instance>  (737) 
nan

>  <PDB_ID>  (737) 
nan

>  <Standardized_SMILES>  (737) 
CN1CCN(CCOc2cccc(CC(=O)Nc3nc(-c4c[nH]c5ncccc45)cs3)c2)CC1

>  <Name>  (737) 
nan

>  <Pocket>  (737) 
nan

>  <ATP_Site>  (737) 
nan

>  <Peripheral>  (737) 
nan

>  <Num_H_Atoms_ProtBoundConf>  (737) 
nan

>  <Num_Resolved_Atoms>  (737) 
nan

>  <Num_Not_Resolved_Atoms>  (737) 
nan

$$$$
CHEMBL4245089
     RDKit          3D

  0  0  0  0  0  0  0  0  0  0999 V3000
M  V30 BEGIN CTAB
M  V30 COUNTS 39 42 0 0 0
M  V30 BEGIN ATOM
M  V30 1 O 0.739390 -0.398659 -0.846408 0
M  V30 2 C -0.169911 -1.165901 -1.309630 0
M  V30 3 C 0.189749 -2.332388 -2.162598 0
M  V30 4 C 1.680650 -2.350897 -2.302881 0
M  V30 5 C 2.406887 -3.067518 -1.358319 0
M  V30 6 C 3.786862 -3.142018 -1.406052 0
M  V30 7 C 4.414725 -2.475765 -2.429993 0
M  V30 8 C 3.706378 -1.755071 -3.382384 0
M  V30 9 O 4.369439 -1.090240 -4.408226 0
M  V30 10 C 2.319639 -1.685624 -3.326662 0
M  V30 11 N -1.491957 -0.846644 -0.971737 0
M  V30 12 C -1.538402 0.365096 -0.113614 0
M  V30 13 N -1.504536 0.524127 1.024365 0
M  V30 14 C -1.549809 1.627791 1.730063 0
M  V30 15 C -1.501520 1.751886 3.178920 0
M  V30 16 C -1.544415 2.874079 3.977499 0
M  V30 17 N -1.474365 2.587081 5.289063 0
M  V30 18 C -1.382544 1.248662 5.379814 0
M  V30 19 N -1.284776 0.389745 6.434479 0
M  V30 20 C -1.205223 -0.937737 6.228828 0
M  V30 21 C -1.216489 -1.509273 4.972557 0
M  V30 22 C -1.315195 -0.649397 3.895451 0
M  V30 23 C -1.398301 0.732333 4.101740 0
M  V30 24 C -1.659320 2.803755 0.909913 0
M  V30 25 S -1.678403 2.063248 -0.832632 0
M  V30 26 H -0.159256 -3.268141 -1.650424 0
M  V30 27 H -0.308081 -2.325323 -3.143581 0
M  V30 28 H 1.910033 -3.580901 -0.567847 0
M  V30 29 H 4.344870 -3.705659 -0.661661 0
M  V30 30 H 5.508493 -2.529801 -2.475004 0
M  V30 31 H 4.595977 -0.100681 -4.383140 0
M  V30 32 H 1.723985 -1.133402 -4.050502 0
M  V30 33 H -2.283871 -1.425338 -1.312059 0
M  V30 34 H -1.627282 3.890851 3.572091 0
M  V30 35 H -1.488589 3.268843 6.077845 0
M  V30 36 H -1.127024 -1.615947 7.087322 0
M  V30 37 H -1.154404 -2.567282 4.774709 0
M  V30 38 H -1.331436 -1.015410 2.859326 0
M  V30 39 H -1.715001 3.906715 1.347482 0
M  V30 END ATOM
M  V30 BEGIN BOND
M  V30 1 2 1 2
M  V30 2 1 2 3
M  V30 3 1 3 4
M  V30 4 2 4 5
M  V30 5 1 5 6
M  V30 6 2 6 7
M  V30 7 1 7 8
M  V30 8 1 8 9
M  V30 9 2 8 10
M  V30 10 1 2 11
M  V30 11 1 11 12
M  V30 12 2 12 13
M  V30 13 1 13 14
M  V30 14 1 14 15
M  V30 15 2 15 16
M  V30 16 1 16 17
M  V30 17 1 17 18
M  V30 18 2 18 19
M  V30 19 1 19 20
M  V30 20 2 20 21
M  V30 21 1 21 22
M  V30 22 2 22 23
M  V30 23 2 14 24
M  V30 24 1 24 25
M  V30 25 1 10 4
M  V30 26 1 25 12
M  V30 27 1 23 15
M  V30 28 1 23 18
M  V30 29 1 3 26
M  V30 30 1 3 27
M  V30 31 1 5 28
M  V30 32 1 6 29
M  V30 33 1 7 30
M  V30 34 1 9 31
M  V30 35 1 10 32
M  V30 36 1 11 33
M  V30 37 1 16 34
M  V30 38 1 17 35
M  V30 39 1 20 36
M  V30 40 1 21 37
M  V30 41 1 22 38
M  V30 42 1 24 39
M  V30 END BOND
M  V30 END CTAB
M  END
>  <Dataset>  (738) 
ChEMBL_Kinases

>  <Ligand_Instance>  (738) 
nan

>  <PDB_ID>  (738) 
nan

>  <Standardized_SMILES>  (738) 
O=C(Cc1cccc(O)c1)Nc1nc(-c2c[nH]c3ncccc23)cs1

>  <Name>  (738) 
nan

>  <Pocket>  (738) 
nan

>  <ATP_Site>  (738) 
nan

>  <Peripheral>  (738) 
nan

>  <Num_H_Atoms_ProtBoundConf>  (738) 
nan

>  <Num_Resolved_Atoms>  (738) 
nan

>  <Num_Not_Resolved_Atoms>  (738) 
nan

$$$$
CHEMBL4244717
     RDKit          3D

  0  0  0  0  0  0  0  0  0  0999 V3000
M  V30 BEGIN CTAB
M  V30 COUNTS 52 55 0 0 0
M  V30 BEGIN ATOM
M  V30 1 C 5.670257 0.989392 2.010342 0
M  V30 2 C 6.161509 -0.347961 2.505799 0
M  V30 3 C 5.603372 -0.627120 3.880974 0
M  V30 4 S 5.598563 -1.613392 1.394015 0
M  V30 5 O 6.128461 -1.228720 0.027472 0
M  V30 6 O 6.115091 -2.957178 1.768007 0
M  V30 7 N 3.884369 -1.598412 1.283652 0
M  V30 8 C 3.127307 -0.508864 0.809795 0
M  V30 9 C 3.446240 0.203191 -0.335228 0
M  V30 10 C 2.708600 1.272568 -0.807626 0
M  V30 11 C 1.599386 1.600501 -0.047208 0
M  V30 12 C 1.191614 0.961078 1.105399 0
M  V30 13 C -0.005641 1.416722 1.813195 0
M  V30 14 C -1.257398 0.783950 1.372124 0
M  V30 15 O -1.246135 -0.074897 0.453664 0
M  V30 16 N -2.477384 1.131284 1.970918 0
M  V30 17 C -3.734055 0.485676 1.516871 0
M  V30 18 N -4.070597 -0.319733 0.718760 0
M  V30 19 C -5.264301 -0.763561 0.468760 0
M  V30 20 C -5.649932 -1.753904 -0.518600 0
M  V30 21 C -6.892861 -2.254506 -0.818830 0
M  V30 22 N -6.852937 -3.167893 -1.804660 0
M  V30 23 C -5.585556 -3.282415 -2.168064 0
M  V30 24 N -4.958751 -4.033287 -3.091259 0
M  V30 25 C -3.634125 -3.995260 -3.302128 0
M  V30 26 C -2.826461 -3.152015 -2.552449 0
M  V30 27 C -3.465502 -2.375129 -1.599015 0
M  V30 28 C -4.826643 -2.418621 -1.386987 0
M  V30 29 C -6.291349 -0.143281 1.325585 0
M  V30 30 S -5.230873 1.021920 2.372321 0
M  V30 31 C 2.001834 -0.106880 1.501668 0
M  V30 32 H 5.875399 1.126812 0.939762 0
M  V30 33 H 4.585707 1.044406 2.193055 0
M  V30 34 H 6.185288 1.836441 2.529378 0
M  V30 35 H 7.275910 -0.364760 2.571923 0
M  V30 36 H 4.504273 -0.644859 3.800276 0
M  V30 37 H 5.988090 -1.586685 4.253205 0
M  V30 38 H 5.889240 0.207565 4.576303 0
M  V30 39 H 3.338165 -2.445654 1.582935 0
M  V30 40 H 4.318503 -0.079679 -0.904617 0
M  V30 41 H 2.966402 1.819583 -1.700415 0
M  V30 42 H 1.014797 2.445614 -0.419197 0
M  V30 43 H -0.117309 2.521547 1.610272 0
M  V30 44 H 0.142347 1.315414 2.928507 0
M  V30 45 H -2.452008 1.829940 2.711366 0
M  V30 46 H -7.815215 -1.938836 -0.305014 0
M  V30 47 H -7.702987 -3.672792 -2.183786 0
M  V30 48 H -3.150233 -4.602984 -4.044760 0
M  V30 49 H -1.752927 -3.076303 -2.675137 0
M  V30 50 H -2.890745 -1.707922 -0.993583 0
M  V30 51 H -7.503120 -0.439877 1.236754 0
M  V30 52 H 1.698662 -0.626767 2.409191 0
M  V30 END ATOM
M  V30 BEGIN BOND
M  V30 1 1 1 2
M  V30 2 1 2 3
M  V30 3 1 2 4
M  V30 4 2 4 5
M  V30 5 2 4 6
M  V30 6 1 4 7
M  V30 7 1 7 8
M  V30 8 2 8 9
M  V30 9 1 9 10
M  V30 10 2 10 11
M  V30 11 1 11 12
M  V30 12 1 12 13
M  V30 13 1 13 14
M  V30 14 2 14 15
M  V30 15 1 14 16
M  V30 16 1 16 17
M  V30 17 2 17 18
M  V30 18 1 18 19
M  V30 19 1 19 20
M  V30 20 2 20 21
M  V30 21 1 21 22
M  V30 22 1 22 23
M  V30 23 2 23 24
M  V30 24 1 24 25
M  V30 25 2 25 26
M  V30 26 1 26 27
M  V30 27 2 27 28
M  V30 28 2 19 29
M  V30 29 1 29 30
M  V30 30 2 12 31
M  V30 31 1 31 8
M  V30 32 1 30 17
M  V30 33 1 28 20
M  V30 34 1 28 23
M  V30 35 1 1 32
M  V30 36 1 1 33
M  V30 37 1 1 34
M  V30 38 1 2 35
M  V30 39 1 3 36
M  V30 40 1 3 37
M  V30 41 1 3 38
M  V30 42 1 7 39
M  V30 43 1 9 40
M  V30 44 1 10 41
M  V30 45 1 11 42
M  V30 46 1 13 43
M  V30 47 1 13 44
M  V30 48 1 16 45
M  V30 49 1 21 46
M  V30 50 1 22 47
M  V30 51 1 25 48
M  V30 52 1 26 49
M  V30 53 1 27 50
M  V30 54 1 29 51
M  V30 55 1 31 52
M  V30 END BOND
M  V30 END CTAB
M  END
>  <Dataset>  (739) 
ChEMBL_Kinases

>  <Ligand_Instance>  (739) 
nan

>  <PDB_ID>  (739) 
nan

>  <Standardized_SMILES>  (739) 
CC(C)S(=O)(=O)Nc1cccc(CC(=O)Nc2nc(-c3c[nH]c4ncccc34)cs2)c1

>  <Name>  (739) 
nan

>  <Pocket>  (739) 
nan

>  <ATP_Site>  (739) 
nan

>  <Peripheral>  (739) 
nan

>  <Num_H_Atoms_ProtBoundConf>  (739) 
nan

>  <Num_Resolved_Atoms>  (739) 
nan

>  <Num_Not_Resolved_Atoms>  (739) 
nan

$$$$
CHEMBL4764416
     RDKit          3D

  0  0  0  0  0  0  0  0  0  0999 V3000
M  V30 BEGIN CTAB
M  V30 COUNTS 41 43 0 0 0
M  V30 BEGIN ATOM
M  V30 1 C -0.723070 -4.644404 4.668745 0
M  V30 2 O -0.540860 -3.925617 3.462738 0
M  V30 3 C 0.751935 -3.652772 3.035891 0
M  V30 4 C 0.868087 -2.946256 1.848884 0
M  V30 5 C 2.121463 -2.639439 1.363822 0
M  V30 6 C 2.206537 -1.885395 0.095970 0
M  V30 7 C 3.005957 -2.089713 -0.990996 0
M  V30 8 N 2.697927 -1.123739 -1.889926 0
M  V30 9 N 1.752860 -0.328134 -1.427831 0
M  V30 10 C 1.091401 0.753437 -1.883710 0
M  V30 11 C 0.120329 1.383777 -1.130919 0
M  V30 12 O -0.586822 2.499676 -1.558306 0
M  V30 13 C -0.339496 3.066851 -2.830859 0
M  V30 14 C -0.220964 0.931551 0.134334 0
M  V30 15 C -1.230542 1.501954 1.043134 0
M  V30 16 C -0.875652 2.953989 1.354230 0
M  V30 17 C -2.610302 1.537163 0.434547 0
M  V30 18 O -1.329422 0.813581 2.237493 0
M  V30 19 N 0.459746 -0.162725 0.575608 0
M  V30 20 C 1.413253 -0.766850 -0.185570 0
M  V30 21 C 3.299570 -3.009966 2.017668 0
M  V30 22 C 3.103552 -3.718100 3.205382 0
M  V30 23 N 1.883885 -4.019875 3.682802 0
M  V30 24 H -0.345245 -4.106283 5.565373 0
M  V30 25 H -0.352527 -5.697240 4.608962 0
M  V30 26 H -1.831486 -4.768625 4.845194 0
M  V30 27 H 0.001926 -2.629501 1.293490 0
M  V30 28 H 3.732445 -2.892445 -1.062330 0
M  V30 29 H 1.325534 1.144024 -2.871037 0
M  V30 30 H 0.550339 3.724338 -2.810793 0
M  V30 31 H -0.244620 2.237840 -3.581098 0
M  V30 32 H -1.197600 3.677726 -3.181386 0
M  V30 33 H -1.183018 3.553171 0.457072 0
M  V30 34 H -1.384483 3.330642 2.240648 0
M  V30 35 H 0.230922 2.960601 1.465788 0
M  V30 36 H -3.311413 1.880219 1.222516 0
M  V30 37 H -2.967953 0.561178 0.070993 0
M  V30 38 H -2.586617 2.330245 -0.359875 0
M  V30 39 H -1.476925 -0.153738 2.035348 0
M  V30 40 H 4.273223 -2.760927 1.622836 0
M  V30 41 H 4.000959 -4.016270 3.730250 0
M  V30 END ATOM
M  V30 BEGIN BOND
M  V30 1 1 1 2
M  V30 2 1 2 3
M  V30 3 2 3 4
M  V30 4 1 4 5
M  V30 5 1 5 6
M  V30 6 1 6 7
M  V30 7 2 7 8
M  V30 8 1 8 9
M  V30 9 1 9 10
M  V30 10 2 10 11
M  V30 11 1 11 12
M  V30 12 1 12 13
M  V30 13 1 11 14
M  V30 14 1 14 15
M  V30 15 1 15 16
M  V30 16 1 15 17
M  V30 17 1 15 18
M  V30 18 2 14 19
M  V30 19 1 19 20
M  V30 20 2 5 21
M  V30 21 1 21 22
M  V30 22 2 22 23
M  V30 23 1 23 3
M  V30 24 2 20 6
M  V30 25 1 20 9
M  V30 26 1 1 24
M  V30 27 1 1 25
M  V30 28 1 1 26
M  V30 29 1 4 27
M  V30 30 1 7 28
M  V30 31 1 10 29
M  V30 32 1 13 30
M  V30 33 1 13 31
M  V30 34 1 13 32
M  V30 35 1 16 33
M  V30 36 1 16 34
M  V30 37 1 16 35
M  V30 38 1 17 36
M  V30 39 1 17 37
M  V30 40 1 17 38
M  V30 41 1 18 39
M  V30 42 1 21 40
M  V30 43 1 22 41
M  V30 END BOND
M  V30 END CTAB
M  END
>  <Dataset>  (740) 
ChEMBL_Kinases

>  <Ligand_Instance>  (740) 
nan

>  <PDB_ID>  (740) 
nan

>  <Standardized_SMILES>  (740) 
COc1cc(-c2cnn3cc(OC)c(C(C)(C)O)nc23)ccn1

>  <Name>  (740) 
nan

>  <Pocket>  (740) 
nan

>  <ATP_Site>  (740) 
nan

>  <Peripheral>  (740) 
nan

>  <Num_H_Atoms_ProtBoundConf>  (740) 
nan

>  <Num_Resolved_Atoms>  (740) 
nan

>  <Num_Not_Resolved_Atoms>  (740) 
nan

$$$$
CHEMBL4217923
     RDKit          3D

  0  0  0  0  0  0  0  0  0  0999 V3000
M  V30 BEGIN CTAB
M  V30 COUNTS 41 43 0 0 0
M  V30 BEGIN ATOM
M  V30 1 C -0.225099 -5.496138 1.697258 0
M  V30 2 N 0.839325 -5.105449 0.775667 0
M  V30 3 C 0.597900 -4.984146 -0.661510 0
M  V30 4 C 1.971055 -4.774570 -1.246201 0
M  V30 5 C 2.683360 -4.071506 -0.108670 0 CFG=1
M  V30 6 O 4.056454 -4.170533 -0.198536 0
M  V30 7 C 2.346149 -2.646280 -0.050404 0
M  V30 8 C 2.047705 -1.460581 -0.012978 0
M  V30 9 C 1.673397 -0.065821 0.030956 0
M  V30 10 C 2.423132 0.836227 -0.720398 0
M  V30 11 C 2.003272 2.149677 -0.626054 0
M  V30 12 C 0.916802 2.547946 0.156648 0
M  V30 13 C 0.228453 1.588990 0.869955 0
M  V30 14 C -0.899584 2.052139 1.673702 0
M  V30 15 C -1.701948 1.242080 2.449941 0
M  V30 16 N -2.730187 1.710336 3.174321 0
M  V30 17 C -3.023711 3.032388 3.167801 0
M  V30 18 C -2.232515 3.858851 2.397397 0
M  V30 19 C -2.491831 5.286802 2.344960 0
M  V30 20 N -1.717373 6.166004 1.578210 0
M  V30 21 O -3.394714 5.904781 2.943929 0
M  V30 22 N -1.199232 3.364725 1.673694 0
M  V30 23 C 0.596580 0.261414 0.818820 0
M  V30 24 C 2.185238 -4.799808 1.087559 0
M  V30 25 O 2.762730 -5.115493 2.174085 0
M  V30 26 H -1.219152 -5.203399 1.308432 0
M  V30 27 H -0.222211 -6.599950 1.883115 0
M  V30 28 H -0.074142 -4.954748 2.665750 0
M  V30 29 H -0.000764 -4.062033 -0.797024 0
M  V30 30 H 0.066163 -5.851180 -1.071701 0
M  V30 31 H 2.475911 -5.711021 -1.498775 0
M  V30 32 H 1.831934 -4.125577 -2.127735 0
M  V30 33 H 4.336997 -4.942348 0.363400 0
M  V30 34 H 3.258803 0.533402 -1.323052 0
M  V30 35 H 2.570675 2.888927 -1.204837 0
M  V30 36 H 0.687875 3.616791 0.144786 0
M  V30 37 H -1.493142 0.198375 2.473111 0
M  V30 38 H -3.827851 3.511015 3.714126 0
M  V30 39 H -1.313828 6.381613 0.622371 0
M  V30 40 H -1.312466 6.395184 0.648608 0
M  V30 41 H 0.072675 -0.483139 1.364354 0
M  V30 END ATOM
M  V30 BEGIN BOND
M  V30 1 1 1 2
M  V30 2 1 2 3
M  V30 3 1 3 4
M  V30 4 1 4 5
M  V30 5 1 5 6
M  V30 6 1 5 7 CFG=1
M  V30 7 3 7 8
M  V30 8 1 8 9
M  V30 9 2 9 10
M  V30 10 1 10 11
M  V30 11 2 11 12
M  V30 12 1 12 13
M  V30 13 1 13 14
M  V30 14 2 14 15
M  V30 15 1 15 16
M  V30 16 2 16 17
M  V30 17 1 17 18
M  V30 18 1 18 19
M  V30 19 1 19 20
M  V30 20 2 19 21
M  V30 21 2 18 22
M  V30 22 2 13 23
M  V30 23 1 5 24
M  V30 24 2 24 25
M  V30 25 1 24 2
M  V30 26 1 23 9
M  V30 27 1 22 14
M  V30 28 1 1 26
M  V30 29 1 1 27
M  V30 30 1 1 28
M  V30 31 1 3 29
M  V30 32 1 3 30
M  V30 33 1 4 31
M  V30 34 1 4 32
M  V30 35 1 6 33
M  V30 36 1 10 34
M  V30 37 1 11 35
M  V30 38 1 12 36
M  V30 39 1 15 37
M  V30 40 1 17 38
M  V30 41 1 20 39
M  V30 42 1 20 40
M  V30 43 1 23 41
M  V30 END BOND
M  V30 END CTAB
M  END
>  <Dataset>  (741) 
ChEMBL_Kinases

>  <Ligand_Instance>  (741) 
nan

>  <PDB_ID>  (741) 
nan

>  <Standardized_SMILES>  (741) 
CN1CC[C@@](O)(C#Cc2cccc(-c3cncc(C(N)=O)n3)c2)C1=O

>  <Name>  (741) 
nan

>  <Pocket>  (741) 
nan

>  <ATP_Site>  (741) 
nan

>  <Peripheral>  (741) 
nan

>  <Num_H_Atoms_ProtBoundConf>  (741) 
nan

>  <Num_Resolved_Atoms>  (741) 
nan

>  <Num_Not_Resolved_Atoms>  (741) 
nan

$$$$
CHEMBL4244382
     RDKit          3D

  0  0  0  0  0  0  0  0  0  0999 V3000
M  V30 BEGIN CTAB
M  V30 COUNTS 55 60 0 0 0
M  V30 BEGIN ATOM
M  V30 1 O 0.321063 -0.166046 -0.007636 0
M  V30 2 C 0.392319 -0.655154 1.140136 0
M  V30 3 C 1.261874 -0.216095 2.118140 0
M  V30 4 C 2.069147 0.830729 1.726582 0
M  V30 5 C 2.979149 1.353367 2.623314 0
M  V30 6 C 3.930059 2.450324 2.489991 0
M  V30 7 C 5.254822 2.133165 2.821940 0
M  V30 8 C 6.307731 3.023155 2.740494 0
M  V30 9 N 6.043809 4.253101 2.321764 0
M  V30 10 C 4.795359 4.625020 1.987458 0
M  V30 11 C 4.456732 5.905380 1.547019 0
M  V30 12 C 3.160933 6.245176 1.220643 0
M  V30 13 C 2.130591 5.316547 1.318628 0
M  V30 14 C 2.425924 4.040614 1.750030 0
M  V30 15 C 3.735439 3.747394 2.064158 0
M  V30 16 C 3.019245 0.768946 3.896916 0
M  V30 17 C 2.201766 -0.284657 4.279557 0
M  V30 18 C 1.300788 -0.788440 3.365560 0
M  V30 19 N 0.451019 -1.792926 3.579775 0
M  V30 20 C -0.412124 -2.251138 2.654490 0
M  V30 21 N -0.448030 -1.679568 1.415098 0
M  V30 22 C -1.392602 -2.233606 0.509167 0
M  V30 23 C -1.051475 -2.448853 -0.810485 0
M  V30 24 C -1.934362 -2.983890 -1.724664 0
M  V30 25 C -3.215310 -3.334263 -1.362699 0
M  V30 26 N -4.169507 -3.888894 -2.255566 0
M  V30 27 C -5.530884 -4.281921 -1.932352 0
M  V30 28 C -5.583637 -5.787927 -2.230745 0
M  V30 29 O -5.461975 -5.905099 -3.614525 0
M  V30 30 C -4.167033 -5.601199 -4.003103 0
M  V30 31 C -3.907726 -4.148803 -3.658642 0
M  V30 32 C -3.548614 -3.119303 -0.054938 0
M  V30 33 C -2.671709 -2.581781 0.877317 0
M  V30 34 H 2.086148 1.301491 0.776362 0
M  V30 35 H 5.519534 1.125323 3.173808 0
M  V30 36 H 7.308954 2.717412 3.011212 0
M  V30 37 H 5.268749 6.625197 1.473612 0
M  V30 38 H 2.897768 7.237028 0.879075 0
M  V30 39 H 1.130951 5.618268 1.055362 0
M  V30 40 H 1.619297 3.338456 1.827929 0
M  V30 41 H 3.686524 1.082286 4.695044 0
M  V30 42 H 2.221592 -0.736395 5.240107 0
M  V30 43 H -1.056867 -3.083468 2.959989 0
M  V30 44 H -0.050627 -2.183935 -1.128148 0
M  V30 45 H -1.597109 -3.118610 -2.718242 0
M  V30 46 H -6.235989 -3.846302 -2.700589 0
M  V30 47 H -5.854591 -4.059983 -0.922153 0
M  V30 48 H -4.646147 -6.207912 -1.792596 0
M  V30 49 H -6.487831 -6.253737 -1.844751 0
M  V30 50 H -4.126658 -5.680698 -5.106319 0
M  V30 51 H -3.392070 -6.261404 -3.600346 0
M  V30 52 H -2.968515 -3.773798 -4.042233 0
M  V30 53 H -4.703541 -3.584580 -4.231972 0
M  V30 54 H -4.503009 -3.336730 0.388472 0
M  V30 55 H -2.914264 -2.402200 1.920799 0
M  V30 END ATOM
M  V30 BEGIN BOND
M  V30 1 2 1 2
M  V30 2 1 2 3
M  V30 3 2 3 4
M  V30 4 1 4 5
M  V30 5 1 5 6
M  V30 6 2 6 7
M  V30 7 1 7 8
M  V30 8 2 8 9
M  V30 9 1 9 10
M  V30 10 2 10 11
M  V30 11 1 11 12
M  V30 12 2 12 13
M  V30 13 1 13 14
M  V30 14 2 14 15
M  V30 15 2 5 16
M  V30 16 1 16 17
M  V30 17 2 17 18
M  V30 18 1 18 19
M  V30 19 2 19 20
M  V30 20 1 20 21
M  V30 21 1 21 22
M  V30 22 2 22 23
M  V30 23 1 23 24
M  V30 24 2 24 25
M  V30 25 1 25 26
M  V30 26 1 26 27
M  V30 27 1 27 28
M  V30 28 1 28 29
M  V30 29 1 29 30
M  V30 30 1 30 31
M  V30 31 1 25 32
M  V30 32 2 32 33
M  V30 33 1 21 2
M  V30 34 1 33 22
M  V30 35 1 18 3
M  V30 36 1 31 26
M  V30 37 1 15 6
M  V30 38 1 15 10
M  V30 39 1 4 34
M  V30 40 1 7 35
M  V30 41 1 8 36
M  V30 42 1 11 37
M  V30 43 1 12 38
M  V30 44 1 13 39
M  V30 45 1 14 40
M  V30 46 1 16 41
M  V30 47 1 17 42
M  V30 48 1 20 43
M  V30 49 1 23 44
M  V30 50 1 24 45
M  V30 51 1 27 46
M  V30 52 1 27 47
M  V30 53 1 28 48
M  V30 54 1 28 49
M  V30 55 1 30 50
M  V30 56 1 30 51
M  V30 57 1 31 52
M  V30 58 1 31 53
M  V30 59 1 32 54
M  V30 60 1 33 55
M  V30 END BOND
M  V30 END CTAB
M  END
>  <Dataset>  (742) 
ChEMBL_Kinases

>  <Ligand_Instance>  (742) 
nan

>  <PDB_ID>  (742) 
nan

>  <Standardized_SMILES>  (742) 
O=c1c2cc(-c3ccnc4ccccc34)ccc2ncn1-c1ccc(N2CCOCC2)cc1

>  <Name>  (742) 
nan

>  <Pocket>  (742) 
nan

>  <ATP_Site>  (742) 
nan

>  <Peripheral>  (742) 
nan

>  <Num_H_Atoms_ProtBoundConf>  (742) 
nan

>  <Num_Resolved_Atoms>  (742) 
nan

>  <Num_Not_Resolved_Atoms>  (742) 
nan

$$$$
CHEMBL4243658
     RDKit          3D

  0  0  0  0  0  0  0  0  0  0999 V3000
M  V30 BEGIN CTAB
M  V30 COUNTS 55 58 0 0 0
M  V30 BEGIN ATOM
M  V30 1 C 2.471508 -2.335024 0.646332 0
M  V30 2 C 3.280102 -2.125114 1.910149 0
M  V30 3 C 3.569809 -0.657640 2.106350 0
M  V30 4 C 4.353290 -0.155120 0.922087 0
M  V30 5 S 4.733999 1.570533 1.082168 0
M  V30 6 O 5.521903 1.718944 2.352338 0
M  V30 7 O 5.632684 1.976763 -0.056108 0
M  V30 8 N 3.353857 2.564012 1.198836 0
M  V30 9 C 2.271696 2.814524 0.324661 0
M  V30 10 C 2.679796 3.041844 -0.987482 0
M  V30 11 C 1.772290 3.308920 -1.983536 0
M  V30 12 C 0.423269 3.360774 -1.715760 0
M  V30 13 C 0.025706 3.130768 -0.394872 0
M  V30 14 C -1.437801 3.181521 -0.056944 0
M  V30 15 C -1.941915 1.809187 -0.321631 0
M  V30 16 O -0.764253 1.460758 -0.674045 0
M  V30 17 N -3.237534 1.267514 -0.187103 0
M  V30 18 C -3.419453 -0.130750 -0.532542 0
M  V30 19 N -3.416811 -1.224866 -0.156125 0
M  V30 20 C -3.647589 -2.327508 -0.844266 0
M  V30 21 C -3.617501 -3.658251 -0.246095 0
M  V30 22 C -3.828967 -4.883247 -0.875853 0
M  V30 23 N -3.729458 -5.917872 -0.023876 0
M  V30 24 C -3.449407 -5.426801 1.200517 0
M  V30 25 N -3.247443 -5.990760 2.405347 0
M  V30 26 C -2.976859 -5.265635 3.507009 0
M  V30 27 C -2.896371 -3.872286 3.426365 0
M  V30 28 C -3.106377 -3.306825 2.181051 0
M  V30 29 C -3.384895 -4.058805 1.049759 0
M  V30 30 C -3.935274 -2.148872 -2.219621 0
M  V30 31 S -3.836260 -0.311003 -2.377753 0
M  V30 32 C 0.925714 2.864144 0.601445 0
M  V30 33 H 1.703940 -3.135307 0.798503 0
M  V30 34 H 1.993058 -1.371203 0.397361 0
M  V30 35 H 3.136262 -2.640377 -0.195621 0
M  V30 36 H 4.242387 -2.673528 1.840499 0
M  V30 37 H 2.647159 -2.512224 2.758880 0
M  V30 38 H 2.660978 -0.055653 2.229354 0
M  V30 39 H 4.177392 -0.598946 3.050556 0
M  V30 40 H 3.809921 -0.392198 0.004295 0
M  V30 41 H 5.311925 -0.705569 0.908026 0
M  V30 42 H 3.147665 3.164741 2.041443 0
M  V30 43 H 3.697949 3.044974 -1.405272 0
M  V30 44 H 1.992645 3.498262 -3.028402 0
M  V30 45 H -0.383589 3.565302 -2.432035 0
M  V30 46 H -1.943780 3.954471 -0.663262 0
M  V30 47 H -1.532026 3.366658 1.050247 0
M  V30 48 H -3.920343 1.947584 0.150316 0
M  V30 49 H -4.053332 -5.002876 -1.948281 0
M  V30 50 H -3.854693 -6.926933 -0.296935 0
M  V30 51 H -2.831601 -5.840829 4.434073 0
M  V30 52 H -2.679839 -3.370007 4.340138 0
M  V30 53 H -3.041673 -2.234516 2.131765 0
M  V30 54 H -4.154170 -2.977459 -2.947406 0
M  V30 55 H 0.677393 2.680866 1.628198 0
M  V30 END ATOM
M  V30 BEGIN BOND
M  V30 1 1 1 2
M  V30 2 1 2 3
M  V30 3 1 3 4
M  V30 4 1 4 5
M  V30 5 2 5 6
M  V30 6 2 5 7
M  V30 7 1 5 8
M  V30 8 1 8 9
M  V30 9 2 9 10
M  V30 10 1 10 11
M  V30 11 2 11 12
M  V30 12 1 12 13
M  V30 13 1 13 14
M  V30 14 1 14 15
M  V30 15 2 15 16
M  V30 16 1 15 17
M  V30 17 1 17 18
M  V30 18 2 18 19
M  V30 19 1 19 20
M  V30 20 1 20 21
M  V30 21 2 21 22
M  V30 22 1 22 23
M  V30 23 1 23 24
M  V30 24 2 24 25
M  V30 25 1 25 26
M  V30 26 2 26 27
M  V30 27 1 27 28
M  V30 28 2 28 29
M  V30 29 2 20 30
M  V30 30 1 30 31
M  V30 31 2 13 32
M  V30 32 1 32 9
M  V30 33 1 31 18
M  V30 34 1 29 21
M  V30 35 1 29 24
M  V30 36 1 1 33
M  V30 37 1 1 34
M  V30 38 1 1 35
M  V30 39 1 2 36
M  V30 40 1 2 37
M  V30 41 1 3 38
M  V30 42 1 3 39
M  V30 43 1 4 40
M  V30 44 1 4 41
M  V30 45 1 8 42
M  V30 46 1 10 43
M  V30 47 1 11 44
M  V30 48 1 12 45
M  V30 49 1 14 46
M  V30 50 1 14 47
M  V30 51 1 17 48
M  V30 52 1 22 49
M  V30 53 1 23 50
M  V30 54 1 26 51
M  V30 55 1 27 52
M  V30 56 1 28 53
M  V30 57 1 30 54
M  V30 58 1 32 55
M  V30 END BOND
M  V30 END CTAB
M  END
>  <Dataset>  (743) 
ChEMBL_Kinases

>  <Ligand_Instance>  (743) 
nan

>  <PDB_ID>  (743) 
nan

>  <Standardized_SMILES>  (743) 
CCCCS(=O)(=O)Nc1cccc(CC(=O)Nc2nc(-c3c[nH]c4ncccc34)cs2)c1

>  <Name>  (743) 
nan

>  <Pocket>  (743) 
nan

>  <ATP_Site>  (743) 
nan

>  <Peripheral>  (743) 
nan

>  <Num_H_Atoms_ProtBoundConf>  (743) 
nan

>  <Num_Resolved_Atoms>  (743) 
nan

>  <Num_Not_Resolved_Atoms>  (743) 
nan

$$$$
CHEMBL4243123
     RDKit          3D

  0  0  0  0  0  0  0  0  0  0999 V3000
M  V30 BEGIN CTAB
M  V30 COUNTS 49 52 0 0 0
M  V30 BEGIN ATOM
M  V30 1 C 2.447467 -3.579137 5.556191 0
M  V30 2 C 3.350643 -2.493817 5.045090 0
M  V30 3 N 4.139524 -2.919732 3.905432 0
M  V30 4 S 5.167979 -1.654816 3.338088 0
M  V30 5 O 6.111751 -1.183806 4.398933 0
M  V30 6 O 5.971509 -2.200037 2.197515 0
M  V30 7 C 4.243564 -0.273770 2.801100 0
M  V30 8 C 3.877983 0.776599 3.623768 0
M  V30 9 C 3.150487 1.827364 3.127058 0
M  V30 10 C 2.758608 1.877628 1.800749 0
M  V30 11 C 3.097778 0.858011 0.944861 0
M  V30 12 C 2.744695 0.781483 -0.500250 0
M  V30 13 C 1.434274 0.088013 -0.695759 0
M  V30 14 O 0.651631 -0.403545 0.164082 0
M  V30 15 N 1.009210 -0.033918 -2.059191 0
M  V30 16 C -0.290980 -0.731532 -2.132654 0
M  V30 17 N -1.333654 -0.335444 -2.110215 0
M  V30 18 C -2.555360 -0.786160 -2.160610 0
M  V30 19 C -3.793901 -0.036510 -2.152617 0
M  V30 20 C -3.876488 1.348252 -2.372280 0
M  V30 21 N -5.137409 1.806305 -2.285989 0
M  V30 22 C -5.928936 0.779295 -2.012217 0
M  V30 23 N -7.253996 0.680745 -1.813502 0
M  V30 24 C -7.854192 -0.505234 -1.524513 0
M  V30 25 C -7.038902 -1.642983 -1.437467 0
M  V30 26 C -5.701081 -1.516798 -1.643196 0
M  V30 27 C -5.113731 -0.320616 -1.933680 0
M  V30 28 C -2.527894 -2.100016 -2.271591 0
M  V30 29 S -0.681269 -2.532253 -2.288068 0
M  V30 30 C 3.828334 -0.184561 1.469556 0
M  V30 31 H 2.855117 -4.106524 6.455501 0
M  V30 32 H 2.188129 -4.340082 4.778688 0
M  V30 33 H 1.443622 -3.191498 5.896713 0
M  V30 34 H 4.095592 -2.238074 5.849634 0
M  V30 35 H 2.786179 -1.576241 4.836326 0
M  V30 36 H 4.714482 -3.731054 4.154252 0
M  V30 37 H 4.191000 0.721284 4.652042 0
M  V30 38 H 2.858593 2.662292 3.776265 0
M  V30 39 H 2.176746 2.694288 1.354706 0
M  V30 40 H 2.622209 1.797261 -0.886505 0
M  V30 41 H 3.539191 0.273776 -1.081602 0
M  V30 42 H 1.577574 0.335774 -2.844053 0
M  V30 43 H -3.048518 2.021244 -2.590900 0
M  V30 44 H -5.452469 2.778530 -2.407937 0
M  V30 45 H -8.925332 -0.538564 -1.372253 0
M  V30 46 H -7.571081 -2.539998 -1.207537 0
M  V30 47 H -5.183985 -2.422962 -1.539898 0
M  V30 48 H -3.295030 -3.072873 -2.380503 0
M  V30 49 H 4.123238 -1.023040 0.824036 0
M  V30 END ATOM
M  V30 BEGIN BOND
M  V30 1 1 1 2
M  V30 2 1 2 3
M  V30 3 1 3 4
M  V30 4 2 4 5
M  V30 5 2 4 6
M  V30 6 1 4 7
M  V30 7 2 7 8
M  V30 8 1 8 9
M  V30 9 2 9 10
M  V30 10 1 10 11
M  V30 11 1 11 12
M  V30 12 1 12 13
M  V30 13 2 13 14
M  V30 14 1 13 15
M  V30 15 1 15 16
M  V30 16 2 16 17
M  V30 17 1 17 18
M  V30 18 1 18 19
M  V30 19 2 19 20
M  V30 20 1 20 21
M  V30 21 1 21 22
M  V30 22 2 22 23
M  V30 23 1 23 24
M  V30 24 2 24 25
M  V30 25 1 25 26
M  V30 26 2 26 27
M  V30 27 2 18 28
M  V30 28 1 28 29
M  V30 29 2 11 30
M  V30 30 1 30 7
M  V30 31 1 29 16
M  V30 32 1 27 19
M  V30 33 1 27 22
M  V30 34 1 1 31
M  V30 35 1 1 32
M  V30 36 1 1 33
M  V30 37 1 2 34
M  V30 38 1 2 35
M  V30 39 1 3 36
M  V30 40 1 8 37
M  V30 41 1 9 38
M  V30 42 1 10 39
M  V30 43 1 12 40
M  V30 44 1 12 41
M  V30 45 1 15 42
M  V30 46 1 20 43
M  V30 47 1 21 44
M  V30 48 1 24 45
M  V30 49 1 25 46
M  V30 50 1 26 47
M  V30 51 1 28 48
M  V30 52 1 30 49
M  V30 END BOND
M  V30 END CTAB
M  END
>  <Dataset>  (744) 
ChEMBL_Kinases

>  <Ligand_Instance>  (744) 
nan

>  <PDB_ID>  (744) 
nan

>  <Standardized_SMILES>  (744) 
CCNS(=O)(=O)c1cccc(CC(=O)Nc2nc(-c3c[nH]c4ncccc34)cs2)c1

>  <Name>  (744) 
nan

>  <Pocket>  (744) 
nan

>  <ATP_Site>  (744) 
nan

>  <Peripheral>  (744) 
nan

>  <Num_H_Atoms_ProtBoundConf>  (744) 
nan

>  <Num_Resolved_Atoms>  (744) 
nan

>  <Num_Not_Resolved_Atoms>  (744) 
nan

$$$$
CHEMBL4764466
     RDKit          3D

  0  0  0  0  0  0  0  0  0  0999 V3000
M  V30 BEGIN CTAB
M  V30 COUNTS 41 44 0 0 0
M  V30 BEGIN ATOM
M  V30 1 O 0.225438 -0.968199 3.601126 0
M  V30 2 C -0.485566 -1.802449 2.954100 0
M  V30 3 N -0.253696 -1.727911 1.557211 0
M  V30 4 C 0.672779 -0.817464 0.962592 0
M  V30 5 C 0.891431 -0.753180 -0.403323 0
M  V30 6 C 1.810393 0.165907 -0.862523 0
M  V30 7 C 2.073959 0.278847 -2.220352 0
M  V30 8 C 3.014497 1.226842 -2.630595 0
M  V30 9 C 3.317649 1.372646 -4.062983 0
M  V30 10 C 2.757157 0.652352 -5.083227 0
M  V30 11 N 3.284708 1.066873 -6.267176 0
M  V30 12 C 4.165807 2.043415 -5.931198 0
M  V30 13 O 4.171088 2.208733 -4.631231 0
M  V30 14 C 3.686037 2.049248 -1.739022 0
M  V30 15 N 3.413169 1.921931 -0.417826 0
M  V30 16 C 2.521912 1.023481 -0.030109 0
M  V30 17 C 2.264849 0.916383 1.319217 0
M  V30 18 N 1.369923 0.019761 1.753587 0
M  V30 19 C -1.435340 -2.733019 3.586310 0
M  V30 20 C -2.856924 -2.539740 3.115561 0
M  V30 21 C -3.301614 -1.146827 3.430189 0
M  V30 22 N -3.307829 -0.955408 4.844714 0
M  V30 23 C -2.689302 -1.978759 5.622659 0
M  V30 24 C -1.376509 -2.469970 5.071032 0
M  V30 25 H -0.785638 -2.371471 0.915123 0
M  V30 26 H 0.353453 -1.404302 -1.054801 0
M  V30 27 H 1.563890 -0.349847 -2.930362 0
M  V30 28 H 2.018507 -0.111359 -4.917638 0
M  V30 29 H 4.786018 2.616512 -6.624977 0
M  V30 30 H 4.405743 2.772261 -2.072445 0
M  V30 31 H 2.763049 1.536867 2.065014 0
M  V30 32 H -1.145929 -3.775670 3.342607 0
M  V30 33 H -3.468873 -3.217045 3.774930 0
M  V30 34 H -3.029559 -2.870579 2.087392 0
M  V30 35 H -4.377653 -1.060404 3.098335 0
M  V30 36 H -2.773164 -0.371176 2.848804 0
M  V30 37 H -3.057526 0.020643 5.120472 0
M  V30 38 H -3.415096 -2.813698 5.806925 0
M  V30 39 H -2.485148 -1.543120 6.622864 0
M  V30 40 H -0.567738 -1.771548 5.363055 0
M  V30 41 H -1.165514 -3.435606 5.571051 0
M  V30 END ATOM
M  V30 BEGIN BOND
M  V30 1 2 1 2
M  V30 2 1 2 3
M  V30 3 1 3 4
M  V30 4 2 4 5
M  V30 5 1 5 6
M  V30 6 2 6 7
M  V30 7 1 7 8
M  V30 8 1 8 9
M  V30 9 2 9 10
M  V30 10 1 10 11
M  V30 11 2 11 12
M  V30 12 1 12 13
M  V30 13 2 8 14
M  V30 14 1 14 15
M  V30 15 2 15 16
M  V30 16 1 16 17
M  V30 17 2 17 18
M  V30 18 1 2 19
M  V30 19 1 19 20
M  V30 20 1 20 21
M  V30 21 1 21 22
M  V30 22 1 22 23
M  V30 23 1 23 24
M  V30 24 1 18 4
M  V30 25 1 24 19
M  V30 26 1 16 6
M  V30 27 1 13 9
M  V30 28 1 3 25
M  V30 29 1 5 26
M  V30 30 1 7 27
M  V30 31 1 10 28
M  V30 32 1 12 29
M  V30 33 1 14 30
M  V30 34 1 17 31
M  V30 35 1 19 32
M  V30 36 1 20 33
M  V30 37 1 20 34
M  V30 38 1 21 35
M  V30 39 1 21 36
M  V30 40 1 22 37
M  V30 41 1 23 38
M  V30 42 1 23 39
M  V30 43 1 24 40
M  V30 44 1 24 41
M  V30 END BOND
M  V30 END CTAB
M  END
>  <Dataset>  (745) 
ChEMBL_Kinases

>  <Ligand_Instance>  (745) 
nan

>  <PDB_ID>  (745) 
nan

>  <Standardized_SMILES>  (745) 
O=C(Nc1cc2cc(-c3cnco3)cnc2cn1)C1CCNCC1

>  <Name>  (745) 
nan

>  <Pocket>  (745) 
nan

>  <ATP_Site>  (745) 
nan

>  <Peripheral>  (745) 
nan

>  <Num_H_Atoms_ProtBoundConf>  (745) 
nan

>  <Num_Resolved_Atoms>  (745) 
nan

>  <Num_Not_Resolved_Atoms>  (745) 
nan

$$$$
CHEMBL4764492
     RDKit          3D

  0  0  0  0  0  0  0  0  0  0999 V3000
M  V30 BEGIN CTAB
M  V30 COUNTS 101 104 0 0 0
M  V30 BEGIN ATOM
M  V30 1 C 5.749308 -9.554392 -0.515655 0
M  V30 2 C 4.293155 -9.265111 -0.835595 0
M  V30 3 C 4.219086 -7.914617 -1.524217 0
M  V30 4 C 4.759193 -6.832637 -0.654078 0
M  V30 5 C 4.070478 -6.635457 0.652730 0
M  V30 6 C 2.624390 -6.282101 0.566104 0
M  V30 7 C 2.385454 -4.986302 -0.225347 0
M  V30 8 C 3.068665 -3.814954 0.383493 0
M  V30 9 C 2.941002 -2.506715 -0.325440 0
M  V30 10 C 1.578970 -1.954859 -0.521154 0
M  V30 11 N 0.760881 -2.793002 -1.343050 0
M  V30 12 C -0.512949 -2.190212 -1.465053 0
M  V30 13 O -1.033067 -1.101667 -1.008450 0
M  V30 14 C -1.851718 -2.282606 -2.025242 0 CFG=2
M  V30 15 C -2.016373 -2.463036 -3.479559 0
M  V30 16 C -1.474484 -1.404608 -4.369623 0
M  V30 17 C -0.013628 -1.147333 -4.342053 0
M  V30 18 C 0.833583 -2.323423 -4.739827 0
M  V30 19 C 1.741674 -1.987060 -5.930411 0
M  V30 20 C 2.565179 -0.747333 -5.680075 0
M  V30 21 C 1.712391 0.417846 -5.236372 0
M  V30 22 C 0.282506 -0.020702 -5.341722 0
M  V30 23 N -2.648838 -1.106996 -1.605551 0
M  V30 24 C -3.657005 -1.025466 -0.607447 0
M  V30 25 O -3.889911 -2.116071 -0.001049 0
M  V30 26 C -4.312566 0.252522 -0.369883 0
M  V30 27 C -4.156791 1.355558 -1.180820 0
M  V30 28 C -4.826533 2.502347 -0.813777 0
M  V30 29 C -5.633922 2.608936 0.305739 0
M  V30 30 C -6.297983 3.939912 0.560328 0
M  V30 31 N -5.348547 4.757243 1.271494 0
M  V30 32 C -4.951479 4.706461 2.630443 0
M  V30 33 O -5.492109 3.828263 3.352232 0
M  V30 34 C -3.963319 5.632100 3.148917 0
M  V30 35 C -3.319205 6.630630 2.467333 0
M  V30 36 N -2.473717 7.266154 3.303122 0
M  V30 37 N -2.558887 6.695206 4.519552 0
M  V30 38 C -1.724411 7.259279 5.496788 0
M  V30 39 C -0.345572 7.165948 5.254152 0
M  V30 40 C 0.557668 7.697493 6.155126 0
M  V30 41 C 0.172604 8.330389 7.308668 0
M  V30 42 C -1.187819 8.407875 7.522514 0
M  V30 43 C -2.111055 7.886685 6.640995 0
M  V30 44 C -3.454351 5.715527 4.420785 0
M  V30 45 N -3.778825 4.914306 5.535536 0
M  V30 46 C -5.774258 1.471460 1.111831 0
M  V30 47 C -5.119254 0.304563 0.775321 0
M  V30 48 H 6.380554 -9.311338 -1.373917 0
M  V30 49 H 5.822222 -10.642149 -0.278981 0
M  V30 50 H 6.069723 -8.996225 0.399652 0
M  V30 51 H 3.676193 -9.331731 0.059826 0
M  V30 52 H 4.023659 -10.006538 -1.631027 0
M  V30 53 H 3.249600 -7.708338 -1.986431 0
M  V30 54 H 4.942834 -8.001169 -2.389967 0
M  V30 55 H 5.824160 -7.101953 -0.422523 0
M  V30 56 H 4.840577 -5.875478 -1.220258 0
M  V30 57 H 4.177547 -7.520263 1.325121 0
M  V30 58 H 4.606830 -5.818289 1.186607 0
M  V30 59 H 2.279066 -6.044185 1.603353 0
M  V30 60 H 1.977753 -7.085411 0.214381 0
M  V30 61 H 2.681236 -5.188651 -1.265931 0
M  V30 62 H 1.271093 -4.787630 -0.157099 0
M  V30 63 H 4.180140 -3.995297 0.482489 0
M  V30 64 H 2.759236 -3.683501 1.470700 0
M  V30 65 H 3.610321 -1.790234 0.237510 0
M  V30 66 H 3.478142 -2.645871 -1.316164 0
M  V30 67 H 1.707586 -0.931158 -0.968657 0
M  V30 68 H 1.070105 -1.746297 0.463132 0
M  V30 69 H 0.514035 -3.612161 -1.943190 0
M  V30 70 H -2.368699 -3.133721 -1.486069 0
M  V30 71 H -1.721228 -3.490910 -3.808472 0
M  V30 72 H -3.134079 -2.465624 -3.669089 0
M  V30 73 H -1.740693 -1.716944 -5.426063 0
M  V30 74 H -2.064229 -0.474337 -4.214056 0
M  V30 75 H 0.363954 -0.816917 -3.351055 0
M  V30 76 H 1.550798 -2.650538 -3.945933 0
M  V30 77 H 0.240130 -3.198285 -5.078047 0
M  V30 78 H 1.189547 -1.875043 -6.865195 0
M  V30 79 H 2.479429 -2.822599 -6.065138 0
M  V30 80 H 3.356153 -0.925700 -4.913458 0
M  V30 81 H 3.054641 -0.476942 -6.620377 0
M  V30 82 H 1.924168 0.688878 -4.187272 0
M  V30 83 H 1.835076 1.293025 -5.908444 0
M  V30 84 H -0.344294 0.870000 -5.109776 0
M  V30 85 H -0.018224 -0.345560 -6.355520 0
M  V30 86 H -2.322440 -0.313038 -2.198355 0
M  V30 87 H -3.537370 1.300957 -2.053656 0
M  V30 88 H -4.699728 3.362459 -1.455530 0
M  V30 89 H -7.249220 3.810906 1.119236 0
M  V30 90 H -6.485995 4.384214 -0.431444 0
M  V30 91 H -4.854653 5.523191 0.716484 0
M  V30 92 H -3.466308 6.874111 1.409264 0
M  V30 93 H 0.068803 6.695488 4.389205 0
M  V30 94 H 1.621617 7.630077 5.972437 0
M  V30 95 H 0.903073 8.735117 7.990331 0
M  V30 96 H -1.503811 8.912683 8.440044 0
M  V30 97 H -3.189831 7.958638 6.831548 0
M  V30 98 H -4.467985 4.958605 6.317478 0
M  V30 99 H -3.195063 4.052382 5.622926 0
M  V30 100 H -6.413611 1.609322 1.969739 0
M  V30 101 H -5.246538 -0.542474 1.409594 0
M  V30 END ATOM
M  V30 BEGIN BOND
M  V30 1 1 1 2
M  V30 2 1 2 3
M  V30 3 1 3 4
M  V30 4 1 4 5
M  V30 5 1 5 6
M  V30 6 1 6 7
M  V30 7 1 7 8
M  V30 8 1 8 9
M  V30 9 1 9 10
M  V30 10 1 10 11
M  V30 11 1 11 12
M  V30 12 2 12 13
M  V30 13 1 12 14
M  V30 14 1 14 15
M  V30 15 1 15 16
M  V30 16 1 16 17
M  V30 17 1 17 18
M  V30 18 1 18 19
M  V30 19 1 19 20
M  V30 20 1 20 21
M  V30 21 1 21 22
M  V30 22 1 14 23
M  V30 23 1 23 24
M  V30 24 2 24 25
M  V30 25 1 24 26
M  V30 26 2 26 27
M  V30 27 1 27 28
M  V30 28 2 28 29
M  V30 29 1 29 30
M  V30 30 1 30 31
M  V30 31 1 31 32
M  V30 32 2 32 33
M  V30 33 1 32 34
M  V30 34 1 34 35
M  V30 35 2 35 36
M  V30 36 1 36 37
M  V30 37 1 37 38
M  V30 38 2 38 39
M  V30 39 1 39 40
M  V30 40 2 40 41
M  V30 41 1 41 42
M  V30 42 2 42 43
M  V30 43 1 37 44
M  V30 44 1 44 45
M  V30 45 1 29 46
M  V30 46 2 46 47
M  V30 47 1 22 17
M  V30 48 1 47 26
M  V30 49 2 44 34
M  V30 50 1 43 38
M  V30 51 1 1 48
M  V30 52 1 1 49
M  V30 53 1 1 50
M  V30 54 1 2 51
M  V30 55 1 2 52
M  V30 56 1 3 53
M  V30 57 1 3 54
M  V30 58 1 4 55
M  V30 59 1 4 56
M  V30 60 1 5 57
M  V30 61 1 5 58
M  V30 62 1 6 59
M  V30 63 1 6 60
M  V30 64 1 7 61
M  V30 65 1 7 62
M  V30 66 1 8 63
M  V30 67 1 8 64
M  V30 68 1 9 65
M  V30 69 1 9 66
M  V30 70 1 10 67
M  V30 71 1 10 68
M  V30 72 1 11 69
M  V30 73 1 14 70 CFG=1
M  V30 74 1 15 71
M  V30 75 1 15 72
M  V30 76 1 16 73
M  V30 77 1 16 74
M  V30 78 1 17 75
M  V30 79 1 18 76
M  V30 80 1 18 77
M  V30 81 1 19 78
M  V30 82 1 19 79
M  V30 83 1 20 80
M  V30 84 1 20 81
M  V30 85 1 21 82
M  V30 86 1 21 83
M  V30 87 1 22 84
M  V30 88 1 22 85
M  V30 89 1 23 86
M  V30 90 1 27 87
M  V30 91 1 28 88
M  V30 92 1 30 89
M  V30 93 1 30 90
M  V30 94 1 31 91
M  V30 95 1 35 92
M  V30 96 1 39 93
M  V30 97 1 40 94
M  V30 98 1 41 95
M  V30 99 1 42 96
M  V30 100 1 43 97
M  V30 101 1 45 98
M  V30 102 1 45 99
M  V30 103 1 46 100
M  V30 104 1 47 101
M  V30 END BOND
M  V30 END CTAB
M  END
>  <Dataset>  (746) 
ChEMBL_Kinases

>  <Ligand_Instance>  (746) 
nan

>  <PDB_ID>  (746) 
nan

>  <Standardized_SMILES>  (746) 
CCCCCCCCCCNC(=O)[C@H](CCC1CCCCC1)NC(=O)c1ccc(CNC(=O)c2cnn(-c3ccccc3)c2N)cc1

>  <Name>  (746) 
nan

>  <Pocket>  (746) 
nan

>  <ATP_Site>  (746) 
nan

>  <Peripheral>  (746) 
nan

>  <Num_H_Atoms_ProtBoundConf>  (746) 
nan

>  <Num_Resolved_Atoms>  (746) 
nan

>  <Num_Not_Resolved_Atoms>  (746) 
nan

$$$$
CHEMBL4242275
     RDKit          3D

  0  0  0  0  0  0  0  0  0  0999 V3000
M  V30 BEGIN CTAB
M  V30 COUNTS 37 39 0 0 0
M  V30 BEGIN ATOM
M  V30 1 N 0.075519 -5.550626 1.564526 0
M  V30 2 C 1.465557 -5.384971 1.310961 0
M  V30 3 O 2.245141 -6.323181 1.603586 0
M  V30 4 C 1.962552 -4.141990 0.721100 0
M  V30 5 C 3.314430 -4.001303 0.483125 0
M  V30 6 C 3.746704 -2.805786 -0.078165 0
M  V30 7 C 2.819851 -1.828057 -0.368011 0
M  V30 8 C 1.472546 -1.939110 -0.143142 0
M  V30 9 C 0.583379 -0.932461 -0.450114 0
M  V30 10 N 1.003830 0.276813 -1.020516 0
M  V30 11 C 0.182416 1.412018 -1.388409 0
M  V30 12 C -0.453007 1.949103 -0.156938 0
M  V30 13 C 0.411155 2.847192 0.483781 0
M  V30 14 C 0.056461 3.498520 1.650609 0
M  V30 15 C -1.179752 3.275555 2.222493 0
M  V30 16 C -2.018165 2.389617 1.579933 0
M  V30 17 C -3.388209 2.064519 2.104291 0
M  V30 18 F -3.409100 0.673925 2.204585 0
M  V30 19 F -3.575662 2.646070 3.318684 0
M  V30 20 F -4.357025 2.378562 1.170540 0
M  V30 21 C -1.683322 1.733367 0.419993 0
M  V30 22 N -0.686866 -1.194011 -0.171897 0
M  V30 23 N -1.085995 -2.318248 0.354962 0
M  V30 24 N -0.244142 -3.311242 0.662424 0
M  V30 25 C 1.087015 -3.136875 0.412923 0
M  V30 26 H -0.694780 -5.192654 2.193353 0
M  V30 27 H -0.372235 -6.264652 0.928926 0
M  V30 28 H 3.952567 -4.832838 0.749467 0
M  V30 29 H 4.810073 -2.713489 -0.257603 0
M  V30 30 H 3.252208 -0.957168 -0.792339 0
M  V30 31 H 1.990870 0.451168 -1.229158 0
M  V30 32 H -0.663473 1.019163 -2.016159 0
M  V30 33 H 0.728298 2.171579 -1.948035 0
M  V30 34 H 1.422380 3.130644 0.157669 0
M  V30 35 H 0.687554 4.195810 2.176586 0
M  V30 36 H -1.583877 3.716462 3.130014 0
M  V30 37 H -2.277248 1.042152 -0.141074 0
M  V30 END ATOM
M  V30 BEGIN BOND
M  V30 1 1 1 2
M  V30 2 2 2 3
M  V30 3 1 2 4
M  V30 4 2 4 5
M  V30 5 1 5 6
M  V30 6 2 6 7
M  V30 7 1 7 8
M  V30 8 2 8 9
M  V30 9 1 9 10
M  V30 10 1 10 11
M  V30 11 1 11 12
M  V30 12 2 12 13
M  V30 13 1 13 14
M  V30 14 2 14 15
M  V30 15 1 15 16
M  V30 16 1 16 17
M  V30 17 1 17 18
M  V30 18 1 17 19
M  V30 19 1 17 20
M  V30 20 2 16 21
M  V30 21 1 9 22
M  V30 22 2 22 23
M  V30 23 1 23 24
M  V30 24 2 24 25
M  V30 25 1 25 4
M  V30 26 1 25 8
M  V30 27 1 21 12
M  V30 28 1 1 26
M  V30 29 1 1 27
M  V30 30 1 5 28
M  V30 31 1 6 29
M  V30 32 1 7 30
M  V30 33 1 10 31
M  V30 34 1 11 32
M  V30 35 1 11 33
M  V30 36 1 13 34
M  V30 37 1 14 35
M  V30 38 1 15 36
M  V30 39 1 21 37
M  V30 END BOND
M  V30 END CTAB
M  END
>  <Dataset>  (747) 
ChEMBL_Kinases

>  <Ligand_Instance>  (747) 
nan

>  <PDB_ID>  (747) 
nan

>  <Standardized_SMILES>  (747) 
NC(=O)c1cccc2c(NCc3cccc(C(F)(F)F)c3)nnnc12

>  <Name>  (747) 
nan

>  <Pocket>  (747) 
nan

>  <ATP_Site>  (747) 
nan

>  <Peripheral>  (747) 
nan

>  <Num_H_Atoms_ProtBoundConf>  (747) 
nan

>  <Num_Resolved_Atoms>  (747) 
nan

>  <Num_Not_Resolved_Atoms>  (747) 
nan

$$$$
CHEMBL4242235
     RDKit          3D

  0  0  0  0  0  0  0  0  0  0999 V3000
M  V30 BEGIN CTAB
M  V30 COUNTS 42 46 0 0 0
M  V30 BEGIN ATOM
M  V30 1 C -2.398784 2.052546 -3.591668 0
M  V30 2 N -1.839921 1.589875 -2.330771 0
M  V30 3 C -2.549632 0.802300 -1.528542 0
M  V30 4 C -1.781252 0.503775 -0.396761 0
M  V30 5 C -2.068179 -0.297351 0.812921 0
M  V30 6 C -1.252060 -1.269452 1.263548 0
M  V30 7 C 0.034225 -1.893605 0.876139 0
M  V30 8 C 1.136338 -2.150479 1.665204 0
M  V30 9 N 2.028375 -2.751841 0.846326 0
M  V30 10 C 1.522556 -2.875256 -0.410878 0
M  V30 11 C 2.100745 -3.431119 -1.537731 0
M  V30 12 C 1.376698 -3.445205 -2.713304 0
M  V30 13 C 0.084150 -2.914881 -2.784850 0
M  V30 14 C -0.409415 -2.380088 -1.603857 0
M  V30 15 C 0.241249 -2.328466 -0.410014 0
M  V30 16 C -1.860167 -1.838565 2.480623 0
M  V30 17 O -1.499842 -2.764124 3.275251 0
M  V30 18 N -3.078640 -1.163324 2.738595 0
M  V30 19 O -3.962007 -1.347321 3.729813 0
M  V30 20 C -3.201655 -0.208708 1.700239 0
M  V30 21 O -4.158413 0.598856 1.566500 0
M  V30 22 C -0.574683 1.164726 -0.581063 0
M  V30 23 C 0.600646 1.320088 0.107340 0
M  V30 24 C 1.694526 2.057521 -0.284777 0
M  V30 25 C 1.599365 2.712649 -1.503559 0
M  V30 26 C 0.433037 2.599038 -2.254677 0
M  V30 27 C -0.616740 1.835418 -1.780933 0
M  V30 28 H -1.730546 2.792265 -4.069508 0
M  V30 29 H -3.365215 2.589219 -3.394537 0
M  V30 30 H -2.531472 1.213066 -4.312743 0
M  V30 31 H -3.546205 0.364943 -1.561324 0
M  V30 32 H 1.205232 -1.897421 2.715814 0
M  V30 33 H 2.973874 -3.076966 1.132354 0
M  V30 34 H 3.107264 -3.853000 -1.521047 0
M  V30 35 H 1.791780 -3.873817 -3.633074 0
M  V30 36 H -0.504737 -2.922192 -3.707106 0
M  V30 37 H -1.399714 -1.990219 -1.687325 0
M  V30 38 H -3.895456 -0.657867 4.431168 0
M  V30 39 H 0.730699 0.847307 1.064023 0
M  V30 40 H 2.592334 2.138555 0.310702 0
M  V30 41 H 2.407514 3.308523 -1.881103 0
M  V30 42 H 0.365505 3.119978 -3.216787 0
M  V30 END ATOM
M  V30 BEGIN BOND
M  V30 1 1 1 2
M  V30 2 1 2 3
M  V30 3 2 3 4
M  V30 4 1 4 5
M  V30 5 2 5 6
M  V30 6 1 6 7
M  V30 7 2 7 8
M  V30 8 1 8 9
M  V30 9 1 9 10
M  V30 10 2 10 11
M  V30 11 1 11 12
M  V30 12 2 12 13
M  V30 13 1 13 14
M  V30 14 2 14 15
M  V30 15 1 6 16
M  V30 16 2 16 17
M  V30 17 1 16 18
M  V30 18 1 18 19
M  V30 19 1 18 20
M  V30 20 2 20 21
M  V30 21 1 4 22
M  V30 22 2 22 23
M  V30 23 1 23 24
M  V30 24 2 24 25
M  V30 25 1 25 26
M  V30 26 2 26 27
M  V30 27 1 27 2
M  V30 28 1 20 5
M  V30 29 1 27 22
M  V30 30 1 15 7
M  V30 31 1 15 10
M  V30 32 1 1 28
M  V30 33 1 1 29
M  V30 34 1 1 30
M  V30 35 1 3 31
M  V30 36 1 8 32
M  V30 37 1 9 33
M  V30 38 1 11 34
M  V30 39 1 12 35
M  V30 40 1 13 36
M  V30 41 1 14 37
M  V30 42 1 19 38
M  V30 43 1 23 39
M  V30 44 1 24 40
M  V30 45 1 25 41
M  V30 46 1 26 42
M  V30 END BOND
M  V30 END CTAB
M  END
>  <Dataset>  (748) 
ChEMBL_Kinases

>  <Ligand_Instance>  (748) 
nan

>  <PDB_ID>  (748) 
nan

>  <Standardized_SMILES>  (748) 
Cn1cc(C2=C(c3c[nH]c4ccccc34)C(=O)N(O)C2=O)c2ccccc21

>  <Name>  (748) 
nan

>  <Pocket>  (748) 
nan

>  <ATP_Site>  (748) 
nan

>  <Peripheral>  (748) 
nan

>  <Num_H_Atoms_ProtBoundConf>  (748) 
nan

>  <Num_Resolved_Atoms>  (748) 
nan

>  <Num_Not_Resolved_Atoms>  (748) 
nan

$$$$
CHEMBL4242191
     RDKit          3D

  0  0  0  0  0  0  0  0  0  0999 V3000
M  V30 BEGIN CTAB
M  V30 COUNTS 62 66 0 0 0
M  V30 BEGIN ATOM
M  V30 1 O -1.113577 0.052846 3.289146 0
M  V30 2 C -0.266927 -0.518656 4.031640 0
M  V30 3 C 1.139212 -0.015536 4.230628 0
M  V30 4 C 1.382820 1.208969 3.462177 0
M  V30 5 C 1.117644 2.412351 4.114003 0
M  V30 6 C 1.351380 3.565893 3.374088 0
M  V30 7 C 1.820745 3.499124 2.066093 0
M  V30 8 C 2.070890 2.282901 1.457032 0
M  V30 9 O 2.528408 2.407041 0.166838 0
M  V30 10 C 2.856988 1.311360 -0.671044 0
M  V30 11 C 3.313011 1.800824 -1.993091 0
M  V30 12 C 2.338972 2.624566 -2.772862 0
M  V30 13 N 1.171444 1.970086 -3.118861 0
M  V30 14 C 0.163593 1.609040 -2.232443 0
M  V30 15 C -0.178303 0.136739 -2.445402 0
M  V30 16 N -0.722046 0.013634 -3.784736 0
M  V30 17 C -0.547407 1.172174 -4.604353 0
M  V30 18 C 0.812276 1.821665 -4.484452 0
M  V30 19 C 1.847858 1.134566 2.166921 0
M  V30 20 N -0.561393 -1.690179 4.749288 0
M  V30 21 C -1.960332 -2.274472 4.610084 0
M  V30 22 N -2.017212 -3.245611 3.502413 0
M  V30 23 C -3.269296 -3.700621 3.456038 0
M  V30 24 C -3.508790 -4.701487 2.388701 0
M  V30 25 C -4.691818 -5.350620 2.089033 0
M  V30 26 N -4.595549 -6.205397 1.064768 0
M  V30 27 C -3.326433 -6.167610 0.625251 0
M  V30 28 N -2.640368 -6.786660 -0.351299 0
M  V30 29 C -1.337473 -6.536832 -0.558632 0
M  V30 30 C -0.604009 -5.628244 0.212075 0
M  V30 31 C -1.323151 -5.003021 1.208277 0
M  V30 32 C -2.680269 -5.258557 1.429579 0
M  V30 33 C -4.386502 -3.353563 4.290357 0
M  V30 34 S -3.579572 -2.148308 5.381164 0
M  V30 35 H 1.331804 0.065062 5.316421 0
M  V30 36 H 1.854840 -0.801149 3.848431 0
M  V30 37 H 0.754179 2.443305 5.127959 0
M  V30 38 H 1.142644 4.509085 3.888164 0
M  V30 39 H 1.952109 4.486152 1.624513 0
M  V30 40 H 2.084394 0.539350 -0.700178 0
M  V30 41 H 3.762303 0.775539 -0.219334 0
M  V30 42 H 4.289025 2.338414 -1.840914 0
M  V30 43 H 3.554279 0.912050 -2.661531 0
M  V30 44 H 2.029918 3.532490 -2.135642 0
M  V30 45 H 2.892638 3.069384 -3.653598 0
M  V30 46 H -0.785287 2.147644 -2.576668 0
M  V30 47 H 0.261745 1.887334 -1.180414 0
M  V30 48 H -0.852464 -0.226511 -1.656424 0
M  V30 49 H 0.761302 -0.446856 -2.402962 0
M  V30 50 H -0.404542 -0.832509 -4.275615 0
M  V30 51 H -0.624825 0.811308 -5.670410 0
M  V30 52 H -1.390773 1.896369 -4.502430 0
M  V30 53 H 0.734867 2.844430 -4.933711 0
M  V30 54 H 1.548181 1.285651 -5.111699 0
M  V30 55 H 2.056723 0.214969 1.651542 0
M  V30 56 H 0.043293 -2.235068 5.377418 0
M  V30 57 H -5.661766 -5.229078 2.598571 0
M  V30 58 H -5.330795 -6.806147 0.650373 0
M  V30 59 H -0.762103 -7.035891 -1.354566 0
M  V30 60 H 0.446553 -5.424642 0.047248 0
M  V30 61 H -0.765375 -4.301076 1.806817 0
M  V30 62 H -5.328861 -3.680248 4.273926 0
M  V30 END ATOM
M  V30 BEGIN BOND
M  V30 1 2 1 2
M  V30 2 1 2 3
M  V30 3 1 3 4
M  V30 4 2 4 5
M  V30 5 1 5 6
M  V30 6 2 6 7
M  V30 7 1 7 8
M  V30 8 1 8 9
M  V30 9 1 9 10
M  V30 10 1 10 11
M  V30 11 1 11 12
M  V30 12 1 12 13
M  V30 13 1 13 14
M  V30 14 1 14 15
M  V30 15 1 15 16
M  V30 16 1 16 17
M  V30 17 1 17 18
M  V30 18 2 8 19
M  V30 19 1 2 20
M  V30 20 1 20 21
M  V30 21 2 21 22
M  V30 22 1 22 23
M  V30 23 1 23 24
M  V30 24 2 24 25
M  V30 25 1 25 26
M  V30 26 1 26 27
M  V30 27 2 27 28
M  V30 28 1 28 29
M  V30 29 2 29 30
M  V30 30 1 30 31
M  V30 31 2 31 32
M  V30 32 2 23 33
M  V30 33 1 33 34
M  V30 34 1 19 4
M  V30 35 1 34 21
M  V30 36 1 18 13
M  V30 37 1 32 24
M  V30 38 1 32 27
M  V30 39 1 3 35
M  V30 40 1 3 36
M  V30 41 1 5 37
M  V30 42 1 6 38
M  V30 43 1 7 39
M  V30 44 1 10 40
M  V30 45 1 10 41
M  V30 46 1 11 42
M  V30 47 1 11 43
M  V30 48 1 12 44
M  V30 49 1 12 45
M  V30 50 1 14 46
M  V30 51 1 14 47
M  V30 52 1 15 48
M  V30 53 1 15 49
M  V30 54 1 16 50
M  V30 55 1 17 51
M  V30 56 1 17 52
M  V30 57 1 18 53
M  V30 58 1 18 54
M  V30 59 1 19 55
M  V30 60 1 20 56
M  V30 61 1 25 57
M  V30 62 1 26 58
M  V30 63 1 29 59
M  V30 64 1 30 60
M  V30 65 1 31 61
M  V30 66 1 33 62
M  V30 END BOND
M  V30 END CTAB
M  END
>  <Dataset>  (749) 
ChEMBL_Kinases

>  <Ligand_Instance>  (749) 
nan

>  <PDB_ID>  (749) 
nan

>  <Standardized_SMILES>  (749) 
O=C(Cc1cccc(OCCCN2CCNCC2)c1)Nc1nc(-c2c[nH]c3ncccc23)cs1

>  <Name>  (749) 
nan

>  <Pocket>  (749) 
nan

>  <ATP_Site>  (749) 
nan

>  <Peripheral>  (749) 
nan

>  <Num_H_Atoms_ProtBoundConf>  (749) 
nan

>  <Num_Resolved_Atoms>  (749) 
nan

>  <Num_Not_Resolved_Atoms>  (749) 
nan

$$$$
CHEMBL4764499
     RDKit          3D

  0  0  0  0  0  0  0  0  0  0999 V3000
M  V30 BEGIN CTAB
M  V30 COUNTS 76 80 0 0 0
M  V30 BEGIN ATOM
M  V30 1 C 3.962804 0.837411 4.137633 0
M  V30 2 C 3.980748 0.035226 2.894220 0
M  V30 3 C 5.117992 -0.726131 2.712358 0
M  V30 4 C 5.349503 -1.561019 1.639880 0
M  V30 5 C 4.339064 -1.612448 0.692330 0
M  V30 6 C 4.564417 -2.508247 -0.433206 0
M  V30 7 O 5.630102 -3.190357 -0.492991 0
M  V30 8 N 3.713699 -2.744168 -1.541169 0
M  V30 9 C 3.979142 -3.641275 -2.625273 0
M  V30 10 C 2.810980 -4.409084 -3.154402 0
M  V30 11 C 3.454765 -3.284699 -3.953478 0
M  V30 12 C 3.159434 -0.866220 0.811968 0
M  V30 13 C 2.994598 -0.040704 1.927483 0
M  V30 14 N 1.810997 0.731008 2.103045 0
M  V30 15 C 1.836619 2.000002 2.532889 0
M  V30 16 C 0.768596 2.830991 2.764185 0
M  V30 17 N -0.451596 2.315393 2.530966 0
M  V30 18 C -0.618960 1.060064 2.096557 0
M  V30 19 N -1.681160 0.246772 1.708470 0
M  V30 20 C -2.736395 -0.560098 1.323374 0 CFG=1
M  V30 21 C -3.567397 -1.148326 2.422854 0
M  V30 22 C -4.906218 -1.280734 2.659243 0
M  V30 23 C -5.315364 -1.903276 3.813474 0
M  V30 24 C -4.457391 -2.407382 4.755749 0
M  V30 25 C -3.116749 -2.261683 4.493507 0
M  V30 26 C -2.626034 -1.633622 3.329806 0
M  V30 27 C -3.725150 0.077775 0.368854 0 CFG=1
M  V30 28 C -4.323156 1.269198 1.137265 0
M  V30 29 C -2.999878 0.705449 -0.812237 0
M  V30 30 N -2.190146 -0.152404 -1.582901 0
M  V30 31 C -2.839846 -1.144201 -2.332111 0
M  V30 32 C -2.850389 -0.782680 -3.786072 0
M  V30 33 N -1.517837 -0.554092 -4.284149 0
M  V30 34 C -0.799004 0.449571 -3.552508 0 CFG=2
M  V30 35 C 0.674058 0.364310 -3.874877 0
M  V30 36 C -1.033315 0.470232 -2.098436 0
M  V30 37 C 0.531344 0.260310 1.881653 0
M  V30 38 O 0.594244 -0.939903 1.478322 0
M  V30 39 H 4.477456 0.217152 4.943530 0
M  V30 40 H 2.963899 1.013137 4.543085 0
M  V30 41 H 4.534498 1.777274 4.000687 0
M  V30 42 H 5.934326 -0.704200 3.436843 0
M  V30 43 H 6.268987 -2.145587 1.540960 0
M  V30 44 H 2.805806 -2.200211 -1.557488 0
M  V30 45 H 4.948388 -4.184756 -2.549429 0
M  V30 46 H 2.986054 -5.440518 -3.472640 0
M  V30 47 H 1.823754 -4.214165 -2.686787 0
M  V30 48 H 2.807067 -2.397098 -4.108351 0
M  V30 49 H 4.105942 -3.555571 -4.807650 0
M  V30 50 H 2.417246 -0.938992 0.051231 0
M  V30 51 H 2.739565 2.526077 2.732546 0
M  V30 52 H 0.750920 3.845210 3.105966 0
M  V30 53 H -2.406369 0.963805 2.021026 0
M  V30 54 H -2.378843 -1.486183 0.756073 0
M  V30 55 H -5.482892 -0.862217 1.851175 0
M  V30 56 H -6.390975 -1.957581 3.921058 0
M  V30 57 H -4.866091 -2.879693 5.633052 0
M  V30 58 H -2.499145 -2.695693 5.294225 0
M  V30 59 H -1.548553 -1.654574 3.367125 0
M  V30 60 H -4.522796 -0.543564 0.016440 0
M  V30 61 H -5.397962 1.427306 0.837099 0
M  V30 62 H -4.348849 1.116372 2.221940 0
M  V30 63 H -3.819426 2.207583 0.841082 0
M  V30 64 H -2.389260 1.569483 -0.448054 0
M  V30 65 H -3.765515 1.198891 -1.487730 0
M  V30 66 H -2.384634 -2.161885 -2.244369 0
M  V30 67 H -3.911439 -1.199769 -1.996432 0
M  V30 68 H -3.262690 -1.673274 -4.321988 0
M  V30 69 H -3.479034 0.081657 -4.003303 0
M  V30 70 H -0.956864 -1.423230 -4.319991 0
M  V30 71 H -1.142754 1.443210 -3.972473 0
M  V30 72 H 1.174131 1.366199 -3.827698 0
M  V30 73 H 1.219529 -0.259865 -3.107520 0
M  V30 74 H 0.866448 -0.016884 -4.904479 0
M  V30 75 H -1.022941 1.537907 -1.718360 0
M  V30 76 H -0.131502 0.023457 -1.585219 0
M  V30 END ATOM
M  V30 BEGIN BOND
M  V30 1 1 1 2
M  V30 2 2 2 3
M  V30 3 1 3 4
M  V30 4 2 4 5
M  V30 5 1 5 6
M  V30 6 2 6 7
M  V30 7 1 6 8
M  V30 8 1 8 9
M  V30 9 1 9 10
M  V30 10 1 10 11
M  V30 11 1 5 12
M  V30 12 2 12 13
M  V30 13 1 13 14
M  V30 14 1 14 15
M  V30 15 2 15 16
M  V30 16 1 16 17
M  V30 17 2 17 18
M  V30 18 1 18 19
M  V30 19 1 19 20
M  V30 20 1 20 21
M  V30 21 2 21 22
M  V30 22 1 22 23
M  V30 23 2 23 24
M  V30 24 1 24 25
M  V30 25 2 25 26
M  V30 26 1 20 27
M  V30 27 1 27 28
M  V30 28 1 27 29
M  V30 29 1 29 30
M  V30 30 1 30 31
M  V30 31 1 31 32
M  V30 32 1 32 33
M  V30 33 1 33 34
M  V30 34 1 34 35
M  V30 35 1 34 36
M  V30 36 1 18 37
M  V30 37 2 37 38
M  V30 38 1 13 2
M  V30 39 1 37 14
M  V30 40 1 11 9
M  V30 41 1 26 21
M  V30 42 1 36 30
M  V30 43 1 1 39
M  V30 44 1 1 40
M  V30 45 1 1 41
M  V30 46 1 3 42
M  V30 47 1 4 43
M  V30 48 1 8 44
M  V30 49 1 9 45
M  V30 50 1 10 46
M  V30 51 1 10 47
M  V30 52 1 11 48
M  V30 53 1 11 49
M  V30 54 1 12 50
M  V30 55 1 15 51
M  V30 56 1 16 52
M  V30 57 1 19 53
M  V30 58 1 20 54 CFG=3
M  V30 59 1 22 55
M  V30 60 1 23 56
M  V30 61 1 24 57
M  V30 62 1 25 58
M  V30 63 1 26 59
M  V30 64 1 27 60 CFG=3
M  V30 65 1 28 61
M  V30 66 1 28 62
M  V30 67 1 28 63
M  V30 68 1 29 64
M  V30 69 1 29 65
M  V30 70 1 31 66
M  V30 71 1 31 67
M  V30 72 1 32 68
M  V30 73 1 32 69
M  V30 74 1 33 70
M  V30 75 1 34 71 CFG=3
M  V30 76 1 35 72
M  V30 77 1 35 73
M  V30 78 1 35 74
M  V30 79 1 36 75
M  V30 80 1 36 76
M  V30 END BOND
M  V30 END CTAB
M  END
>  <Dataset>  (750) 
ChEMBL_Kinases

>  <Ligand_Instance>  (750) 
nan

>  <PDB_ID>  (750) 
nan

>  <Standardized_SMILES>  (750) 
Cc1ccc(C(=O)NC2CC2)cc1-n1ccnc(N[C@@H](c2ccccc2)[C@@H](C)CN2CCN[C@H](C)C2)c1=O

>  <Name>  (750) 
nan

>  <Pocket>  (750) 
nan

>  <ATP_Site>  (750) 
nan

>  <Peripheral>  (750) 
nan

>  <Num_H_Atoms_ProtBoundConf>  (750) 
nan

>  <Num_Resolved_Atoms>  (750) 
nan

>  <Num_Not_Resolved_Atoms>  (750) 
nan

$$$$
CHEMBL476452
     RDKit          3D

  0  0  0  0  0  0  0  0  0  0999 V3000
M  V30 BEGIN CTAB
M  V30 COUNTS 42 45 0 0 0
M  V30 BEGIN ATOM
M  V30 1 O 3.777554 -3.177711 1.615230 0
M  V30 2 C 2.611691 -2.755559 1.533245 0
M  V30 3 C 1.507683 -3.542922 0.928617 0
M  V30 4 C 0.433018 -2.679869 0.341937 0
M  V30 5 N 0.602955 -2.415362 -1.045793 0
M  V30 6 C 1.784826 -1.749992 -1.451268 0
M  V30 7 C 1.663065 -0.290885 -1.741937 0
M  V30 8 O 0.476097 0.036353 -2.394263 0
M  V30 9 C -0.629450 -0.474204 -1.720366 0
M  V30 10 C -0.564875 -1.965100 -1.721700 0
M  V30 11 O 0.176874 -1.556268 1.144986 0
M  V30 12 C 1.132265 -0.844088 1.856331 0
M  V30 13 C 2.372292 -1.410665 2.074962 0
M  V30 14 C 3.317094 -0.676534 2.792528 0
M  V30 15 C 2.985016 0.586834 3.259360 0
M  V30 16 C 1.728914 1.119914 3.018591 0
M  V30 17 C 0.766816 0.414452 2.307790 0
M  V30 18 C -0.550071 0.990355 2.063424 0
M  V30 19 C -0.838397 2.252591 1.653374 0
M  V30 20 C -2.140864 2.673760 1.458280 0
M  V30 21 C -3.155538 1.765049 1.694441 0
M  V30 22 C -2.906188 0.454996 2.117614 0
M  V30 23 C -1.575897 0.084476 2.298154 0
M  V30 24 H 1.884392 -4.271212 0.185375 0
M  V30 25 H 1.076692 -4.136956 1.771816 0
M  V30 26 H -0.518730 -3.288244 0.410587 0
M  V30 27 H 2.101212 -2.229312 -2.424858 0
M  V30 28 H 2.637015 -1.907839 -0.781238 0
M  V30 29 H 1.812425 0.368505 -0.853414 0
M  V30 30 H 2.498657 -0.009975 -2.439028 0
M  V30 31 H -0.802488 -0.012449 -0.743368 0
M  V30 32 H -1.515312 -0.184823 -2.350563 0
M  V30 33 H -1.493658 -2.346306 -1.259218 0
M  V30 34 H -0.506852 -2.293202 -2.782691 0
M  V30 35 H 4.283905 -1.142698 2.951449 0
M  V30 36 H 3.760286 1.116524 3.813804 0
M  V30 37 H 1.487462 2.120494 3.396769 0
M  V30 38 H -0.005749 2.900031 1.490412 0
M  V30 39 H -2.346013 3.685433 1.130879 0
M  V30 40 H -4.163963 2.128746 1.531592 0
M  V30 41 H -3.769753 -0.167426 2.271233 0
M  V30 42 H -1.529517 -0.961459 2.628637 0
M  V30 END ATOM
M  V30 BEGIN BOND
M  V30 1 2 1 2
M  V30 2 1 2 3
M  V30 3 1 3 4
M  V30 4 1 4 5
M  V30 5 1 5 6
M  V30 6 1 6 7
M  V30 7 1 7 8
M  V30 8 1 8 9
M  V30 9 1 9 10
M  V30 10 1 4 11
M  V30 11 1 11 12
M  V30 12 2 12 13
M  V30 13 1 13 14
M  V30 14 2 14 15
M  V30 15 1 15 16
M  V30 16 2 16 17
M  V30 17 1 17 18
M  V30 18 2 18 19
M  V30 19 1 19 20
M  V30 20 2 20 21
M  V30 21 1 21 22
M  V30 22 2 22 23
M  V30 23 1 13 2
M  V30 24 1 23 18
M  V30 25 1 10 5
M  V30 26 1 17 12
M  V30 27 1 3 24
M  V30 28 1 3 25
M  V30 29 1 4 26
M  V30 30 1 6 27
M  V30 31 1 6 28
M  V30 32 1 7 29
M  V30 33 1 7 30
M  V30 34 1 9 31
M  V30 35 1 9 32
M  V30 36 1 10 33
M  V30 37 1 10 34
M  V30 38 1 14 35
M  V30 39 1 15 36
M  V30 40 1 16 37
M  V30 41 1 19 38
M  V30 42 1 20 39
M  V30 43 1 21 40
M  V30 44 1 22 41
M  V30 45 1 23 42
M  V30 END BOND
M  V30 END CTAB
M  END
>  <Dataset>  (751) 
ChEMBL_Kinases

>  <Ligand_Instance>  (751) 
nan

>  <PDB_ID>  (751) 
nan

>  <Standardized_SMILES>  (751) 
O=C1CC(N2CCOCC2)Oc2c1cccc2-c1ccccc1

>  <Name>  (751) 
nan

>  <Pocket>  (751) 
nan

>  <ATP_Site>  (751) 
nan

>  <Peripheral>  (751) 
nan

>  <Num_H_Atoms_ProtBoundConf>  (751) 
nan

>  <Num_Resolved_Atoms>  (751) 
nan

>  <Num_Not_Resolved_Atoms>  (751) 
nan

$$$$
CHEMBL476454
     RDKit          3D

  0  0  0  0  0  0  0  0  0  0999 V3000
M  V30 BEGIN CTAB
M  V30 COUNTS 59 63 0 0 0
M  V30 BEGIN ATOM
M  V30 1 C 0.836411 -0.078939 -3.569117 0
M  V30 2 N 1.973593 -0.344864 -2.741495 0
M  V30 3 C 1.845432 0.132141 -1.383352 0
M  V30 4 C 0.609188 -0.385978 -0.737950 0
M  V30 5 C 0.155891 -1.577119 -0.335823 0
M  V30 6 N -0.957026 -1.598840 0.544619 0
M  V30 7 C -1.729853 -0.541984 1.134423 0
M  V30 8 C -1.277271 -0.080206 2.480136 0
M  V30 9 C 0.101120 0.444409 2.415412 0
M  V30 10 C 1.289567 -0.136650 2.799715 0
M  V30 11 N 2.317512 0.706835 2.562751 0
M  V30 12 C 1.889408 1.844092 2.031273 0
M  V30 13 C 2.419864 3.037277 1.587502 0
M  V30 14 C 1.614621 4.045914 1.065271 0
M  V30 15 C 0.245705 3.899929 0.967597 0
M  V30 16 C -0.287438 2.700064 1.415199 0
M  V30 17 C 0.520271 1.687180 1.938557 0
M  V30 18 C -1.444859 -2.908115 0.945141 0
M  V30 19 O -1.244444 -4.122532 0.811652 0
M  V30 20 C -2.584945 -3.141562 1.825203 0
M  V30 21 C -2.648577 -3.431942 3.179667 0
M  V30 22 C -3.838847 -3.618563 3.850816 0
M  V30 23 C -5.057996 -3.521997 3.181498 0
M  V30 24 Cl -6.473708 -3.777009 4.151628 0
M  V30 25 C -5.049425 -3.235352 1.831324 0
M  V30 26 C -3.836127 -3.054735 1.194695 0
M  V30 27 C 0.872376 -2.739908 -0.856251 0
M  V30 28 C 1.231845 -2.655807 -2.324717 0
M  V30 29 C 2.340899 -1.737198 -2.657240 0
M  V30 30 C 3.439937 -1.665513 -1.621628 0
M  V30 31 C 3.040993 -0.508220 -0.710218 0
M  V30 32 H 1.088027 0.820774 -4.192874 0
M  V30 33 H 0.584905 -0.876270 -4.264598 0
M  V30 34 H -0.045302 0.201013 -2.961294 0
M  V30 35 H 1.862300 1.218783 -1.350041 0
M  V30 36 H -0.111956 0.432073 -0.550828 0
M  V30 37 H -1.829367 0.321668 0.411192 0
M  V30 38 H -2.813229 -0.842283 1.265979 0
M  V30 39 H -1.417065 -0.825497 3.277577 0
M  V30 40 H -1.897228 0.802866 2.836386 0
M  V30 41 H 1.378021 -1.127634 3.231883 0
M  V30 42 H 3.343920 0.521282 2.760037 0
M  V30 43 H 3.501686 3.168743 1.658832 0
M  V30 44 H 2.133295 4.943492 0.738655 0
M  V30 45 H -0.339286 4.702940 0.559247 0
M  V30 46 H -1.375973 2.579188 1.338209 0
M  V30 47 H -1.637956 -3.490098 3.617180 0
M  V30 48 H -3.699968 -3.839291 4.913369 0
M  V30 49 H -6.000857 -3.174019 1.365806 0
M  V30 50 H -3.913282 -2.833985 0.128010 0
M  V30 51 H 0.286576 -3.669119 -0.751143 0
M  V30 52 H 1.820875 -2.953359 -0.287955 0
M  V30 53 H 0.361577 -2.448063 -2.946555 0
M  V30 54 H 1.571548 -3.692301 -2.594912 0
M  V30 55 H 2.777556 -2.019180 -3.625651 0
M  V30 56 H 4.413901 -1.367971 -2.101207 0
M  V30 57 H 3.647759 -2.590975 -1.093484 0
M  V30 58 H 3.836351 0.255672 -0.656193 0
M  V30 59 H 2.827921 -0.868195 0.307632 0
M  V30 END ATOM
M  V30 BEGIN BOND
M  V30 1 1 1 2
M  V30 2 1 2 3
M  V30 3 1 3 4
M  V30 4 2 4 5
M  V30 5 1 5 6
M  V30 6 1 6 7
M  V30 7 1 7 8
M  V30 8 1 8 9
M  V30 9 2 9 10
M  V30 10 1 10 11
M  V30 11 1 11 12
M  V30 12 2 12 13
M  V30 13 1 13 14
M  V30 14 2 14 15
M  V30 15 1 15 16
M  V30 16 2 16 17
M  V30 17 1 6 18
M  V30 18 2 18 19
M  V30 19 1 18 20
M  V30 20 2 20 21
M  V30 21 1 21 22
M  V30 22 2 22 23
M  V30 23 1 23 24
M  V30 24 1 23 25
M  V30 25 2 25 26
M  V30 26 1 5 27
M  V30 27 1 27 28
M  V30 28 1 28 29
M  V30 29 1 29 30
M  V30 30 1 30 31
M  V30 31 1 29 2
M  V30 32 1 31 3
M  V30 33 1 17 9
M  V30 34 1 26 20
M  V30 35 1 17 12
M  V30 36 1 1 32
M  V30 37 1 1 33
M  V30 38 1 1 34
M  V30 39 1 3 35
M  V30 40 1 4 36
M  V30 41 1 7 37
M  V30 42 1 7 38
M  V30 43 1 8 39
M  V30 44 1 8 40
M  V30 45 1 10 41
M  V30 46 1 11 42
M  V30 47 1 13 43
M  V30 48 1 14 44
M  V30 49 1 15 45
M  V30 50 1 16 46
M  V30 51 1 21 47
M  V30 52 1 22 48
M  V30 53 1 25 49
M  V30 54 1 26 50
M  V30 55 1 27 51
M  V30 56 1 27 52
M  V30 57 1 28 53
M  V30 58 1 28 54
M  V30 59 1 29 55
M  V30 60 1 30 56
M  V30 61 1 30 57
M  V30 62 1 31 58
M  V30 63 1 31 59
M  V30 END BOND
M  V30 END CTAB
M  END
>  <Dataset>  (752) 
ChEMBL_Kinases

>  <Ligand_Instance>  (752) 
nan

>  <PDB_ID>  (752) 
nan

>  <Standardized_SMILES>  (752) 
CN1C2C=C(N(CCc3c[nH]c4ccccc34)C(=O)c3ccc(Cl)cc3)CCC1CC2

>  <Name>  (752) 
nan

>  <Pocket>  (752) 
nan

>  <ATP_Site>  (752) 
nan

>  <Peripheral>  (752) 
nan

>  <Num_H_Atoms_ProtBoundConf>  (752) 
nan

>  <Num_Resolved_Atoms>  (752) 
nan

>  <Num_Not_Resolved_Atoms>  (752) 
nan

$$$$
CHEMBL4244623
     RDKit          3D

  0  0  0  0  0  0  0  0  0  0999 V3000
M  V30 BEGIN CTAB
M  V30 COUNTS 42 45 0 0 0
M  V30 BEGIN ATOM
M  V30 1 C -4.842057 -3.989647 -4.160664 0
M  V30 2 O -5.024150 -2.590707 -4.277907 0
M  V30 3 C -4.007626 -1.680401 -4.121435 0
M  V30 4 C -4.403181 -0.361466 -4.277897 0
M  V30 5 C -3.471182 0.665330 -4.145417 0
M  V30 6 C -2.179422 0.342772 -3.862084 0
M  V30 7 C -1.754994 -0.958540 -3.700710 0
M  V30 8 C -0.363184 -1.302866 -3.395607 0
M  V30 9 C -0.141184 -1.348775 -1.907135 0
M  V30 10 O -1.297375 -1.058654 -1.504205 0
M  V30 11 N 1.119259 -1.658939 -1.369871 0
M  V30 12 C 1.115840 -1.649197 0.047168 0
M  V30 13 N 1.296110 -0.910135 0.903700 0
M  V30 14 C 1.251676 -1.067263 2.203536 0
M  V30 15 C 1.516515 0.013401 3.149384 0
M  V30 16 C 1.501376 -0.024823 4.545324 0
M  V30 17 N 1.789305 1.142580 5.106946 0
M  V30 18 C 2.011985 2.022351 4.120997 0
M  V30 19 N 2.338960 3.337545 4.109083 0
M  V30 20 C 2.512751 4.018216 2.970112 0
M  V30 21 C 2.359040 3.380071 1.749704 0
M  V30 22 C 2.022794 2.027063 1.729396 0
M  V30 23 C 1.847610 1.341894 2.938179 0
M  V30 24 C 0.931718 -2.346560 2.641183 0
M  V30 25 S 0.714279 -3.248325 0.985766 0
M  V30 26 C -2.692806 -1.947901 -3.836518 0
M  V30 27 H -4.703367 -4.476723 -5.139131 0
M  V30 28 H -4.020975 -4.237725 -3.464347 0
M  V30 29 H -5.758027 -4.465831 -3.713329 0
M  V30 30 H -5.404134 -0.052394 -4.500822 0
M  V30 31 H -3.780088 1.703337 -4.268054 0
M  V30 32 H -1.439620 1.135310 -3.755645 0
M  V30 33 H 0.331922 -0.607032 -3.884964 0
M  V30 34 H -0.153778 -2.316209 -3.818050 0
M  V30 35 H 1.869815 -1.850022 -2.068266 0
M  V30 36 H 1.277381 -0.916079 5.148278 0
M  V30 37 H 1.837957 1.354738 6.122116 0
M  V30 38 H 2.771089 5.059272 3.083106 0
M  V30 39 H 2.504118 3.948963 0.837918 0
M  V30 40 H 1.897317 1.506876 0.776187 0
M  V30 41 H 0.847545 -2.666696 3.745407 0
M  V30 42 H -2.427833 -2.987428 -3.722809 0
M  V30 END ATOM
M  V30 BEGIN BOND
M  V30 1 1 1 2
M  V30 2 1 2 3
M  V30 3 2 3 4
M  V30 4 1 4 5
M  V30 5 2 5 6
M  V30 6 1 6 7
M  V30 7 1 7 8
M  V30 8 1 8 9
M  V30 9 2 9 10
M  V30 10 1 9 11
M  V30 11 1 11 12
M  V30 12 2 12 13
M  V30 13 1 13 14
M  V30 14 1 14 15
M  V30 15 2 15 16
M  V30 16 1 16 17
M  V30 17 1 17 18
M  V30 18 2 18 19
M  V30 19 1 19 20
M  V30 20 2 20 21
M  V30 21 1 21 22
M  V30 22 2 22 23
M  V30 23 2 14 24
M  V30 24 1 24 25
M  V30 25 2 7 26
M  V30 26 1 26 3
M  V30 27 1 25 12
M  V30 28 1 23 15
M  V30 29 1 23 18
M  V30 30 1 1 27
M  V30 31 1 1 28
M  V30 32 1 1 29
M  V30 33 1 4 30
M  V30 34 1 5 31
M  V30 35 1 6 32
M  V30 36 1 8 33
M  V30 37 1 8 34
M  V30 38 1 11 35
M  V30 39 1 16 36
M  V30 40 1 17 37
M  V30 41 1 20 38
M  V30 42 1 21 39
M  V30 43 1 22 40
M  V30 44 1 24 41
M  V30 45 1 26 42
M  V30 END BOND
M  V30 END CTAB
M  END
>  <Dataset>  (753) 
ChEMBL_Kinases

>  <Ligand_Instance>  (753) 
nan

>  <PDB_ID>  (753) 
nan

>  <Standardized_SMILES>  (753) 
COc1cccc(CC(=O)Nc2nc(-c3c[nH]c4ncccc34)cs2)c1

>  <Name>  (753) 
nan

>  <Pocket>  (753) 
nan

>  <ATP_Site>  (753) 
nan

>  <Peripheral>  (753) 
nan

>  <Num_H_Atoms_ProtBoundConf>  (753) 
nan

>  <Num_Resolved_Atoms>  (753) 
nan

>  <Num_Not_Resolved_Atoms>  (753) 
nan

$$$$
CHEMBL4247780
     RDKit          3D

  0  0  0  0  0  0  0  0  0  0999 V3000
M  V30 BEGIN CTAB
M  V30 COUNTS 42 45 0 0 0
M  V30 BEGIN ATOM
M  V30 1 C 0.912814 -6.197015 -1.491190 0
M  V30 2 O 0.705900 -4.815058 -1.672852 0
M  V30 3 C 1.712636 -3.889833 -1.769292 0
M  V30 4 C 3.030627 -4.304553 -1.687121 0
M  V30 5 C 4.007925 -3.334792 -1.789937 0
M  V30 6 C 3.654842 -2.013231 -1.967138 0
M  V30 7 C 2.335766 -1.617137 -2.046944 0
M  V30 8 C 1.925803 -0.182493 -2.240142 0
M  V30 9 C 1.781806 0.397549 -0.890181 0
M  V30 10 O 2.104154 -0.711656 -0.391169 0
M  V30 11 N 1.415294 1.706985 -0.560568 0
M  V30 12 C 1.359777 1.982816 0.925618 0
M  V30 13 N 0.439723 1.852076 1.604590 0
M  V30 14 C 0.284573 2.059216 2.886624 0
M  V30 15 C -0.886666 1.887028 3.721926 0
M  V30 16 C -0.930419 2.139480 5.073289 0
M  V30 17 C -2.048135 1.968981 5.839352 0
M  V30 18 N -3.170302 1.530344 5.244607 0
M  V30 19 C -3.206468 1.262006 3.929191 0
M  V30 20 N -4.204093 0.818703 3.128144 0
M  V30 21 C -3.754143 0.700819 1.868440 0
M  V30 22 C -2.430267 1.085624 1.893705 0
M  V30 23 C -2.066060 1.441005 3.173259 0
M  V30 24 C 1.531307 2.534956 3.487616 0
M  V30 25 S 2.704149 2.579592 2.000476 0
M  V30 26 C 1.316133 -2.571161 -1.947065 0
M  V30 27 H 1.781448 -6.427056 -0.843569 0
M  V30 28 H 1.135408 -6.630717 -2.489338 0
M  V30 29 H -0.015277 -6.680354 -1.116931 0
M  V30 30 H 3.336535 -5.312304 -1.551204 0
M  V30 31 H 5.051870 -3.622642 -1.730043 0
M  V30 32 H 4.366911 -1.218731 -2.053321 0
M  V30 33 H 2.731681 0.289381 -2.841514 0
M  V30 34 H 1.011425 -0.112439 -2.855886 0
M  V30 35 H 1.224618 2.336738 -1.342857 0
M  V30 36 H -0.053037 2.489796 5.575680 0
M  V30 37 H -2.030518 2.181765 6.898675 0
M  V30 38 H -5.197149 0.581127 3.369779 0
M  V30 39 H -4.245354 0.383124 0.966884 0
M  V30 40 H -1.741554 1.121424 1.068458 0
M  V30 41 H 1.704559 2.814599 4.658791 0
M  V30 42 H 0.276649 -2.296507 -2.005129 0
M  V30 END ATOM
M  V30 BEGIN BOND
M  V30 1 1 1 2
M  V30 2 1 2 3
M  V30 3 2 3 4
M  V30 4 1 4 5
M  V30 5 2 5 6
M  V30 6 1 6 7
M  V30 7 1 7 8
M  V30 8 1 8 9
M  V30 9 2 9 10
M  V30 10 1 9 11
M  V30 11 1 11 12
M  V30 12 2 12 13
M  V30 13 1 13 14
M  V30 14 1 14 15
M  V30 15 2 15 16
M  V30 16 1 16 17
M  V30 17 2 17 18
M  V30 18 1 18 19
M  V30 19 1 19 20
M  V30 20 1 20 21
M  V30 21 2 21 22
M  V30 22 1 22 23
M  V30 23 2 14 24
M  V30 24 1 24 25
M  V30 25 2 7 26
M  V30 26 1 26 3
M  V30 27 1 25 12
M  V30 28 1 23 15
M  V30 29 2 23 19
M  V30 30 1 1 27
M  V30 31 1 1 28
M  V30 32 1 1 29
M  V30 33 1 4 30
M  V30 34 1 5 31
M  V30 35 1 6 32
M  V30 36 1 8 33
M  V30 37 1 8 34
M  V30 38 1 11 35
M  V30 39 1 16 36
M  V30 40 1 17 37
M  V30 41 1 20 38
M  V30 42 1 21 39
M  V30 43 1 22 40
M  V30 44 1 24 41
M  V30 45 1 26 42
M  V30 END BOND
M  V30 END CTAB
M  END
>  <Dataset>  (754) 
ChEMBL_Kinases

>  <Ligand_Instance>  (754) 
nan

>  <PDB_ID>  (754) 
nan

>  <Standardized_SMILES>  (754) 
COc1cccc(CC(=O)Nc2nc(-c3ccnc4[nH]ccc34)cs2)c1

>  <Name>  (754) 
nan

>  <Pocket>  (754) 
nan

>  <ATP_Site>  (754) 
nan

>  <Peripheral>  (754) 
nan

>  <Num_H_Atoms_ProtBoundConf>  (754) 
nan

>  <Num_Resolved_Atoms>  (754) 
nan

>  <Num_Not_Resolved_Atoms>  (754) 
nan

$$$$
CHEMBL4763655
     RDKit          3D

  0  0  0  0  0  0  0  0  0  0999 V3000
M  V30 BEGIN CTAB
M  V30 COUNTS 57 61 0 0 0
M  V30 BEGIN ATOM
M  V30 1 C 0.339159 -1.982025 5.080628 0
M  V30 2 O 0.988388 -1.091203 4.207247 0
M  V30 3 C 2.063436 -1.399072 3.419247 0
M  V30 4 C 2.564896 -2.690953 3.475494 0
M  V30 5 C 3.649412 -2.971681 2.669559 0
M  V30 6 C 4.237395 -2.051131 1.836648 0
M  V30 7 C 3.712479 -0.785050 1.809575 0
M  V30 8 F 4.237102 0.177523 1.014333 0
M  V30 9 C 2.615773 -0.431043 2.598718 0
M  V30 10 C 2.098060 0.928208 2.531231 0
M  V30 11 C 1.117737 1.102054 1.570848 0
M  V30 12 C 0.550794 2.354327 1.414741 0
M  V30 13 C 0.958423 3.418253 2.207999 0
M  V30 14 C 1.939875 3.188680 3.150246 0
M  V30 15 N 2.487354 1.968522 3.297219 0
M  V30 16 C 0.242242 4.528488 1.847320 0
M  V30 17 N -0.595111 4.144414 0.842425 0
M  V30 18 N -0.396742 2.848488 0.599624 0
M  V30 19 C -1.104972 2.106342 -0.395134 0
M  V30 20 C -1.541781 2.790257 -1.530993 0
M  V30 21 C -2.239137 2.113221 -2.534941 0
M  V30 22 C -2.445116 0.766880 -2.306940 0
M  V30 23 C -2.025195 0.066386 -1.195325 0
M  V30 24 N -2.281679 -1.322979 -1.042618 0
M  V30 25 C -1.884372 -2.150274 0.083528 0
M  V30 26 C -2.193825 -3.552308 -0.313275 0
M  V30 27 C -2.374781 -3.496353 -1.777952 0 CFG=2
M  V30 28 N -1.208053 -3.762848 -2.558043 0
M  V30 29 C -0.111846 -2.883924 -2.351058 0
M  V30 30 C -1.469011 -3.789238 -3.982076 0
M  V30 31 C -2.982692 -2.133558 -1.990858 0
M  V30 32 N -1.362125 0.788503 -0.276589 0
M  V30 33 H 0.175776 -2.967965 4.597551 0
M  V30 34 H -0.632772 -1.513931 5.377550 0
M  V30 35 H 0.987703 -2.096406 5.991980 0
M  V30 36 H 2.151661 -3.460420 4.106075 0
M  V30 37 H 4.043152 -3.990698 2.715508 0
M  V30 38 H 5.090719 -2.290135 1.209204 0
M  V30 39 H 0.757362 0.331858 0.928588 0
M  V30 40 H 2.282851 4.008869 3.791733 0
M  V30 41 H 0.342846 5.495170 2.287258 0
M  V30 42 H -1.366941 3.840654 -1.682457 0
M  V30 43 H -2.594607 2.601393 -3.427958 0
M  V30 44 H -2.989343 0.255632 -3.098447 0
M  V30 45 H -0.853579 -1.962262 0.414429 0
M  V30 46 H -2.528641 -1.802591 0.938504 0
M  V30 47 H -3.162659 -3.827728 0.161691 0
M  V30 48 H -1.471733 -4.300151 0.049393 0
M  V30 49 H -3.130920 -4.275032 -2.053409 0
M  V30 50 H -0.392401 -1.847313 -2.653322 0
M  V30 51 H 0.385246 -2.960317 -1.382863 0
M  V30 52 H 0.672539 -3.172171 -3.103791 0
M  V30 53 H -1.533410 -2.747173 -4.402103 0
M  V30 54 H -2.281088 -4.439483 -4.297266 0
M  V30 55 H -0.525169 -4.187310 -4.458378 0
M  V30 56 H -4.058750 -2.221997 -1.684705 0
M  V30 57 H -2.891915 -1.781149 -3.034503 0
M  V30 END ATOM
M  V30 BEGIN BOND
M  V30 1 1 1 2
M  V30 2 1 2 3
M  V30 3 2 3 4
M  V30 4 1 4 5
M  V30 5 2 5 6
M  V30 6 1 6 7
M  V30 7 1 7 8
M  V30 8 2 7 9
M  V30 9 1 9 10
M  V30 10 2 10 11
M  V30 11 1 11 12
M  V30 12 2 12 13
M  V30 13 1 13 14
M  V30 14 2 14 15
M  V30 15 1 13 16
M  V30 16 2 16 17
M  V30 17 1 17 18
M  V30 18 1 18 19
M  V30 19 2 19 20
M  V30 20 1 20 21
M  V30 21 2 21 22
M  V30 22 1 22 23
M  V30 23 1 23 24
M  V30 24 1 24 25
M  V30 25 1 25 26
M  V30 26 1 26 27
M  V30 27 1 27 28
M  V30 28 1 28 29
M  V30 29 1 28 30
M  V30 30 1 27 31
M  V30 31 2 23 32
M  V30 32 1 9 3
M  V30 33 1 15 10
M  V30 34 1 32 19
M  V30 35 1 18 12
M  V30 36 1 31 24
M  V30 37 1 1 33
M  V30 38 1 1 34
M  V30 39 1 1 35
M  V30 40 1 4 36
M  V30 41 1 5 37
M  V30 42 1 6 38
M  V30 43 1 11 39
M  V30 44 1 14 40
M  V30 45 1 16 41
M  V30 46 1 20 42
M  V30 47 1 21 43
M  V30 48 1 22 44
M  V30 49 1 25 45
M  V30 50 1 25 46
M  V30 51 1 26 47
M  V30 52 1 26 48
M  V30 53 1 27 49 CFG=3
M  V30 54 1 29 50
M  V30 55 1 29 51
M  V30 56 1 29 52
M  V30 57 1 30 53
M  V30 58 1 30 54
M  V30 59 1 30 55
M  V30 60 1 31 56
M  V30 61 1 31 57
M  V30 END BOND
M  V30 END CTAB
M  END
>  <Dataset>  (755) 
ChEMBL_Kinases

>  <Ligand_Instance>  (755) 
nan

>  <PDB_ID>  (755) 
nan

>  <Standardized_SMILES>  (755) 
COc1cccc(F)c1-c1cc2c(cn1)cnn2-c1cccc(N2CC[C@H](N(C)C)C2)n1

>  <Name>  (755) 
nan

>  <Pocket>  (755) 
nan

>  <ATP_Site>  (755) 
nan

>  <Peripheral>  (755) 
nan

>  <Num_H_Atoms_ProtBoundConf>  (755) 
nan

>  <Num_Resolved_Atoms>  (755) 
nan

>  <Num_Not_Resolved_Atoms>  (755) 
nan

$$$$
CHEMBL4763674
     RDKit          3D

  0  0  0  0  0  0  0  0  0  0999 V3000
M  V30 BEGIN CTAB
M  V30 COUNTS 91 96 0 0 0
M  V30 BEGIN ATOM
M  V30 1 C 5.498312 -7.549364 2.171428 0
M  V30 2 N 4.513222 -6.483220 2.252472 0
M  V30 3 C 4.780374 -5.182746 2.751050 0
M  V30 4 O 5.949716 -4.957377 3.142177 0
M  V30 5 C 3.757079 -4.154712 2.811336 0
M  V30 6 S 4.362825 -2.525860 3.510773 0
M  V30 7 C 2.719036 -1.734231 3.330297 0
M  V30 8 C 2.619897 -0.346302 3.763600 0
M  V30 9 C 3.685980 0.365869 4.283625 0
M  V30 10 C 3.615295 1.679096 4.703238 0
M  V30 11 N 2.405313 2.281902 4.584049 0
M  V30 12 C 1.350084 1.630686 4.087249 0
M  V30 13 N 0.191905 2.446434 4.053668 0
M  V30 14 C -0.865371 2.684143 4.951079 0
M  V30 15 O -0.748174 2.020029 6.012848 0
M  V30 16 C -1.913526 3.639549 4.531796 0
M  V30 17 C -2.211994 3.767777 3.091159 0
M  V30 18 C -1.496409 4.876486 3.818477 0
M  V30 19 C 1.455218 0.338960 3.684075 0
M  V30 20 N 2.075853 -2.567383 2.882783 0
M  V30 21 C 2.419919 -3.813993 2.564454 0
M  V30 22 O 1.940915 -4.983676 2.050435 0
M  V30 23 C 0.713396 -5.366585 1.596309 0
M  V30 24 C 0.113033 -4.647271 0.440754 0
M  V30 25 O 0.853466 -4.691201 -0.714433 0
M  V30 26 C 0.113286 -4.058865 -1.728684 0
M  V30 27 C 0.919179 -4.052289 -3.029461 0
M  V30 28 O 2.065572 -3.344795 -2.783302 0
M  V30 29 C 2.915777 -3.277400 -3.834486 0
M  V30 30 C 2.435456 -2.600586 -5.056811 0
M  V30 31 O 2.078893 -1.295243 -5.019207 0
M  V30 32 C 1.028942 -0.950391 -4.239602 0
M  V30 33 C 0.705606 0.537385 -4.295404 0
M  V30 34 O -0.370488 0.914907 -3.517123 0
M  V30 35 C -0.578027 0.861135 -2.187055 0
M  V30 36 C 0.175181 0.442731 -1.121448 0
M  V30 37 C -0.222558 0.467652 0.191545 0
M  V30 38 C -1.478218 0.946904 0.514482 0
M  V30 39 C -2.273509 1.382598 -0.539423 0
M  V30 40 C -1.848908 1.346112 -1.854208 0
M  V30 41 C -3.006133 1.895654 -2.591654 0
M  V30 42 O -3.041071 2.038504 -3.834160 0
M  V30 43 N -4.058408 2.231868 -1.698309 0
M  V30 44 C -5.354746 2.793828 -2.041641 0
M  V30 45 C -6.157314 1.816807 -2.881515 0
M  V30 46 C -7.133516 2.509285 -3.805507 0
M  V30 47 C -6.329269 3.294565 -4.784376 0
M  V30 48 O -6.404598 3.213191 -6.037442 0
M  V30 49 N -5.401730 4.209235 -4.165249 0
M  V30 50 C -5.137180 4.079361 -2.750948 0
M  V30 51 O -4.716026 5.068219 -2.105602 0
M  V30 52 C -3.618974 1.915830 -0.384535 0
M  V30 53 O -4.310281 2.091280 0.635991 0
M  V30 54 H 5.583226 -7.925159 1.123493 0
M  V30 55 H 5.227671 -8.420442 2.785577 0
M  V30 56 H 6.460582 -7.166852 2.573423 0
M  V30 57 H 3.537419 -6.657836 1.929964 0
M  V30 58 H 4.653038 -0.087142 4.388201 0
M  V30 59 H 4.489361 2.198427 5.108848 0
M  V30 60 H 0.293093 2.898748 3.099899 0
M  V30 61 H -2.734671 3.770466 5.251305 0
M  V30 62 H -1.651558 3.211764 2.311192 0
M  V30 63 H -3.218622 4.066939 2.748197 0
M  V30 64 H -0.449877 5.034846 3.506725 0
M  V30 65 H -2.022775 5.818595 4.042453 0
M  V30 66 H 0.577153 -0.148192 3.293222 0
M  V30 67 H -0.014720 -5.211001 2.458760 0
M  V30 68 H 0.618742 -6.461011 1.390835 0
M  V30 69 H -0.858691 -5.165060 0.202624 0
M  V30 70 H -0.171263 -3.597223 0.670249 0
M  V30 71 H -0.869673 -4.531628 -1.838824 0
M  V30 72 H -0.047206 -3.006029 -1.438395 0
M  V30 73 H 1.140036 -5.134822 -3.281859 0
M  V30 74 H 0.254101 -3.669397 -3.812585 0
M  V30 75 H 3.896294 -2.824503 -3.465815 0
M  V30 76 H 3.189021 -4.349175 -4.113422 0
M  V30 77 H 3.209264 -2.750552 -5.878894 0
M  V30 78 H 1.567774 -3.214919 -5.464953 0
M  V30 79 H 1.163970 -1.246750 -3.197130 0
M  V30 80 H 0.095595 -1.461655 -4.625650 0
M  V30 81 H 0.444884 0.815934 -5.359811 0
M  V30 82 H 1.635509 1.133089 -4.094708 0
M  V30 83 H 1.145077 0.087889 -1.349314 0
M  V30 84 H 0.455617 0.112408 0.934769 0
M  V30 85 H -1.769816 0.956036 1.541310 0
M  V30 86 H -5.962212 2.948470 -1.111220 0
M  V30 87 H -6.729751 1.110220 -2.250879 0
M  V30 88 H -5.477478 1.216882 -3.516585 0
M  V30 89 H -7.799312 3.185600 -3.208966 0
M  V30 90 H -7.757358 1.735964 -4.267292 0
M  V30 91 H -4.931826 4.947569 -4.728091 0
M  V30 END ATOM
M  V30 BEGIN BOND
M  V30 1 1 1 2
M  V30 2 1 2 3
M  V30 3 2 3 4
M  V30 4 1 3 5
M  V30 5 1 5 6
M  V30 6 1 6 7
M  V30 7 1 7 8
M  V30 8 2 8 9
M  V30 9 1 9 10
M  V30 10 2 10 11
M  V30 11 1 11 12
M  V30 12 1 12 13
M  V30 13 1 13 14
M  V30 14 2 14 15
M  V30 15 1 14 16
M  V30 16 1 16 17
M  V30 17 1 17 18
M  V30 18 2 12 19
M  V30 19 2 7 20
M  V30 20 1 20 21
M  V30 21 1 21 22
M  V30 22 1 22 23
M  V30 23 1 23 24
M  V30 24 1 24 25
M  V30 25 1 25 26
M  V30 26 1 26 27
M  V30 27 1 27 28
M  V30 28 1 28 29
M  V30 29 1 29 30
M  V30 30 1 30 31
M  V30 31 1 31 32
M  V30 32 1 32 33
M  V30 33 1 33 34
M  V30 34 1 34 35
M  V30 35 2 35 36
M  V30 36 1 36 37
M  V30 37 2 37 38
M  V30 38 1 38 39
M  V30 39 2 39 40
M  V30 40 1 40 41
M  V30 41 2 41 42
M  V30 42 1 41 43
M  V30 43 1 43 44
M  V30 44 1 44 45
M  V30 45 1 45 46
M  V30 46 1 46 47
M  V30 47 2 47 48
M  V30 48 1 47 49
M  V30 49 1 49 50
M  V30 50 2 50 51
M  V30 51 1 43 52
M  V30 52 2 52 53
M  V30 53 2 21 5
M  V30 54 1 40 35
M  V30 55 1 50 44
M  V30 56 1 19 8
M  V30 57 1 52 39
M  V30 58 1 18 16
M  V30 59 1 1 54
M  V30 60 1 1 55
M  V30 61 1 1 56
M  V30 62 1 2 57
M  V30 63 1 9 58
M  V30 64 1 10 59
M  V30 65 1 13 60
M  V30 66 1 16 61
M  V30 67 1 17 62
M  V30 68 1 17 63
M  V30 69 1 18 64
M  V30 70 1 18 65
M  V30 71 1 19 66
M  V30 72 1 23 67
M  V30 73 1 23 68
M  V30 74 1 24 69
M  V30 75 1 24 70
M  V30 76 1 26 71
M  V30 77 1 26 72
M  V30 78 1 27 73
M  V30 79 1 27 74
M  V30 80 1 29 75
M  V30 81 1 29 76
M  V30 82 1 30 77
M  V30 83 1 30 78
M  V30 84 1 32 79
M  V30 85 1 32 80
M  V30 86 1 33 81
M  V30 87 1 33 82
M  V30 88 1 36 83
M  V30 89 1 37 84
M  V30 90 1 38 85
M  V30 91 1 44 86
M  V30 92 1 45 87
M  V30 93 1 45 88
M  V30 94 1 46 89
M  V30 95 1 46 90
M  V30 96 1 49 91
M  V30 END BOND
M  V30 END CTAB
M  END
>  <Dataset>  (756) 
ChEMBL_Kinases

>  <Ligand_Instance>  (756) 
nan

>  <PDB_ID>  (756) 
nan

>  <Standardized_SMILES>  (756) 
CNC(=O)c1sc(-c2ccnc(NC(=O)C3CC3)c2)nc1OCCOCCOCCOCCOc1cccc2c1C(=O)N(C1CCC(=O)NC1=O)C2=O

>  <Name>  (756) 
nan

>  <Pocket>  (756) 
nan

>  <ATP_Site>  (756) 
nan

>  <Peripheral>  (756) 
nan

>  <Num_H_Atoms_ProtBoundConf>  (756) 
nan

>  <Num_Resolved_Atoms>  (756) 
nan

>  <Num_Not_Resolved_Atoms>  (756) 
nan

$$$$
CHEMBL4763711
     RDKit          3D

  0  0  0  0  0  0  0  0  0  0999 V3000
M  V30 BEGIN CTAB
M  V30 COUNTS 24 25 0 0 0
M  V30 BEGIN ATOM
M  V30 1 C 0.755788 -1.990333 5.564858 0
M  V30 2 C 0.812253 -1.792939 4.090829 0
M  V30 3 O 0.291963 -2.562922 3.241368 0
M  V30 4 N 1.518572 -0.633475 3.673026 0
M  V30 5 C 1.529822 -0.506958 2.179558 0
M  V30 6 N 0.751287 0.037513 1.571689 0
M  V30 7 C 0.604177 0.245934 0.277264 0
M  V30 8 C -0.347030 0.911652 -0.470644 0
M  V30 9 C -0.261330 0.979651 -1.833374 0
M  V30 10 C -1.305534 1.709250 -2.640574 0
M  V30 11 C 0.771604 0.396073 -2.578227 0
M  V30 12 C 1.749410 -0.281742 -1.882264 0
M  V30 13 C 1.590723 -0.305867 -0.496362 0
M  V30 14 S 2.708094 -1.124174 0.788087 0
M  V30 15 H 0.149703 -2.905119 5.763108 0
M  V30 16 H 0.295060 -1.131889 6.096943 0
M  V30 17 H 1.789691 -2.154178 5.916285 0
M  V30 18 H 2.001460 0.097917 4.230908 0
M  V30 19 H -1.195829 1.405608 -0.019610 0
M  V30 20 H -2.322175 1.540452 -2.177958 0
M  V30 21 H -1.384629 1.247833 -3.640000 0
M  V30 22 H -1.161197 2.791248 -2.625367 0
M  V30 23 H 0.898199 0.411722 -3.643756 0
M  V30 24 H 2.612057 -0.793510 -2.231779 0
M  V30 END ATOM
M  V30 BEGIN BOND
M  V30 1 1 1 2
M  V30 2 2 2 3
M  V30 3 1 2 4
M  V30 4 1 4 5
M  V30 5 2 5 6
M  V30 6 1 6 7
M  V30 7 2 7 8
M  V30 8 1 8 9
M  V30 9 1 9 10
M  V30 10 2 9 11
M  V30 11 1 11 12
M  V30 12 2 12 13
M  V30 13 1 13 14
M  V30 14 1 14 5
M  V30 15 1 13 7
M  V30 16 1 1 15
M  V30 17 1 1 16
M  V30 18 1 1 17
M  V30 19 1 4 18
M  V30 20 1 8 19
M  V30 21 1 10 20
M  V30 22 1 10 21
M  V30 23 1 10 22
M  V30 24 1 11 23
M  V30 25 1 12 24
M  V30 END BOND
M  V30 END CTAB
M  END
>  <Dataset>  (757) 
ChEMBL_Kinases

>  <Ligand_Instance>  (757) 
nan

>  <PDB_ID>  (757) 
nan

>  <Standardized_SMILES>  (757) 
CC(=O)Nc1nc2cc(C)ccc2s1

>  <Name>  (757) 
nan

>  <Pocket>  (757) 
nan

>  <ATP_Site>  (757) 
nan

>  <Peripheral>  (757) 
nan

>  <Num_H_Atoms_ProtBoundConf>  (757) 
nan

>  <Num_Resolved_Atoms>  (757) 
nan

>  <Num_Not_Resolved_Atoms>  (757) 
nan

$$$$
CHEMBL4763804
     RDKit          3D

  0  0  0  0  0  0  0  0  0  0999 V3000
M  V30 BEGIN CTAB
M  V30 COUNTS 144 150 0 0 0
M  V30 BEGIN ATOM
M  V30 1 C -2.585367 6.777824 -0.571763 0
M  V30 2 C -2.327291 7.247838 -1.973059 0
M  V30 3 N -3.325498 7.853154 -2.513533 0
M  V30 4 C -3.080214 8.300847 -3.818377 0
M  V30 5 S -1.341852 7.758262 -4.115677 0
M  V30 6 C -1.092773 7.015436 -2.551626 0
M  V30 7 C 0.140643 6.411377 -2.202287 0
M  V30 8 C 1.169197 6.496497 -3.146182 0
M  V30 9 C 2.435627 5.944539 -2.917703 0
M  V30 10 C 2.703137 5.289818 -1.731678 0
M  V30 11 C 4.010492 4.703068 -1.407326 0
M  V30 12 N 4.193449 3.316514 -1.734605 0
M  V30 13 C 4.435699 2.740145 -2.984735 0
M  V30 14 O 4.456153 3.646073 -3.890081 0
M  V30 15 C 4.671720 1.359576 -3.480001 0 CFG=2
M  V30 16 C 3.390323 0.826258 -4.080991 0
M  V30 17 C 3.332022 -0.595648 -3.653687 0 CFG=1
M  V30 18 O 3.370339 -1.401959 -4.809430 0
M  V30 19 C 4.482919 -0.853832 -2.745215 0
M  V30 20 N 5.126532 0.423910 -2.514365 0
M  V30 21 C 6.043834 0.501906 -1.441878 0
M  V30 22 O 6.546173 1.649847 -1.340219 0
M  V30 23 C 6.596944 -0.325389 -0.405236 0 CFG=1
M  V30 24 N 6.300067 -1.744089 -0.465008 0
M  V30 25 C 5.787388 -2.804713 0.322020 0
M  V30 26 O 5.398637 -2.597112 1.511186 0
M  V30 27 C 5.693529 -4.190414 -0.194975 0
M  V30 28 O 6.134410 -4.244298 -1.490515 0
M  V30 29 C 6.326848 -5.493857 -2.013486 0
M  V30 30 C 5.159945 -6.369591 -1.959250 0
M  V30 31 O 4.030299 -5.923573 -2.654923 0
M  V30 32 C 3.103498 -6.957510 -2.472290 0
M  V30 33 C 1.805851 -6.837791 -3.158226 0
M  V30 34 N 0.981490 -5.714697 -2.848862 0
M  V30 35 C 0.472402 -5.379583 -1.544917 0
M  V30 36 O 0.815465 -6.141796 -0.591892 0
M  V30 37 C -0.381522 -4.179954 -1.554057 0
M  V30 38 C -0.818089 -3.717777 -0.205127 0
M  V30 39 C -1.544496 -4.726075 0.584801 0
M  V30 40 O -1.937425 -5.884806 0.872543 0
M  V30 41 N -2.284533 -4.304874 1.719064 0
M  V30 42 C -2.974539 -5.138998 2.678131 0
M  V30 43 C -3.116339 -4.461862 4.036617 0
M  V30 44 N -4.147324 -3.452093 3.848884 0
M  V30 45 C -4.400224 -2.594624 4.937665 0 CFG=1
M  V30 46 C -3.492355 -1.441661 5.181113 0
M  V30 47 C -3.946231 -0.169490 4.520197 0
M  V30 48 C -5.341628 0.203393 4.812355 0 CFG=1
M  V30 49 N -5.891733 0.841919 3.612704 0
M  V30 50 C -6.594803 0.256351 2.498850 0
M  V30 51 N -6.926755 -1.030140 2.541622 0
M  V30 52 C -7.594215 -1.641086 1.565628 0
M  V30 53 N -7.943439 -0.897198 0.480506 0
M  V30 54 N -7.583208 0.398766 0.481550 0
M  V30 55 C -7.881498 1.187345 -0.554993 0
M  V30 56 C -7.357776 2.419981 -0.219454 0
M  V30 57 C -6.742404 2.349216 1.036596 0
M  V30 58 C -6.047827 3.425940 1.729635 0
M  V30 59 C -7.005434 4.099267 2.682644 0
M  V30 60 C -5.748196 4.486224 0.634408 0
M  V30 61 C -6.909321 1.058753 1.442201 0
M  V30 62 C -6.273313 -0.882360 5.245858 0
M  V30 63 C -5.844264 -2.283734 5.201344 0
M  V30 64 C -4.009243 -2.869786 2.539974 0
M  V30 65 C -2.537522 -2.910065 2.101821 0
M  V30 66 C 8.123391 -0.203430 -0.336941 0
M  V30 67 C 8.769190 -0.606888 -1.642156 0
M  V30 68 C 8.547698 1.203199 -0.011717 0
M  V30 69 C 8.646886 -1.173078 0.728023 0
M  V30 70 C 1.719018 5.179903 -0.770255 0
M  V30 71 C 0.503368 5.749342 -1.073010 0
M  V30 72 H -3.541619 7.138706 -0.141754 0
M  V30 73 H -1.806130 7.280943 0.072196 0
M  V30 74 H -2.531124 5.682714 -0.474061 0
M  V30 75 H -3.932933 8.855546 -4.369713 0
M  V30 76 H 1.129391 6.976055 -4.129413 0
M  V30 77 H 3.218623 6.027672 -3.657709 0
M  V30 78 H 4.165682 4.821598 -0.298258 0
M  V30 79 H 4.805326 5.287313 -1.956252 0
M  V30 80 H 4.127548 2.601975 -0.970301 0
M  V30 81 H 5.403142 1.458457 -4.343136 0
M  V30 82 H 3.436633 0.909935 -5.194945 0
M  V30 83 H 2.509377 1.396480 -3.687440 0
M  V30 84 H 2.365632 -0.778650 -3.123648 0
M  V30 85 H 2.774293 -1.018587 -5.512584 0
M  V30 86 H 5.173392 -1.550956 -3.309968 0
M  V30 87 H 4.223619 -1.395436 -1.834917 0
M  V30 88 H 6.240865 0.009079 0.622655 0
M  V30 89 H 6.585071 -1.999030 -1.435078 0
M  V30 90 H 6.277193 -4.814182 0.510106 0
M  V30 91 H 4.634148 -4.566468 -0.134922 0
M  V30 92 H 7.187171 -6.025210 -1.504263 0
M  V30 93 H 6.651981 -5.424114 -3.108297 0
M  V30 94 H 5.372025 -7.437909 -2.232062 0
M  V30 95 H 4.825775 -6.437499 -0.887399 0
M  V30 96 H 3.615369 -7.912843 -2.804076 0
M  V30 97 H 2.924400 -7.125629 -1.378525 0
M  V30 98 H 1.950973 -6.911369 -4.269556 0
M  V30 99 H 1.169246 -7.758374 -2.942904 0
M  V30 100 H 0.742312 -5.096841 -3.676123 0
M  V30 101 H 0.257912 -3.351360 -1.987741 0
M  V30 102 H -1.219482 -4.305915 -2.275413 0
M  V30 103 H -1.429998 -2.794193 -0.354862 0
M  V30 104 H 0.101181 -3.366104 0.325935 0
M  V30 105 H -3.955012 -5.454586 2.276606 0
M  V30 106 H -2.360476 -6.046487 2.830504 0
M  V30 107 H -3.503735 -5.208120 4.733936 0
M  V30 108 H -2.149253 -4.100967 4.344371 0
M  V30 109 H -4.118528 -3.283740 5.830326 0
M  V30 110 H -2.461216 -1.629762 4.943431 0
M  V30 111 H -3.493296 -1.201108 6.296373 0
M  V30 112 H -3.701490 -0.045588 3.472551 0
M  V30 113 H -3.287717 0.630241 5.020848 0
M  V30 114 H -5.344887 1.004690 5.612940 0
M  V30 115 H -5.683155 1.841849 3.724929 0
M  V30 116 H -7.820161 -2.684809 1.685455 0
M  V30 117 H -8.395872 1.039118 -1.488467 0
M  V30 118 H -7.403047 3.333221 -0.826315 0
M  V30 119 H -5.119183 3.203814 2.242074 0
M  V30 120 H -7.591016 4.902515 2.181814 0
M  V30 121 H -7.711857 3.389836 3.173113 0
M  V30 122 H -6.423384 4.556656 3.532738 0
M  V30 123 H -5.006679 5.165173 1.078955 0
M  V30 124 H -5.368658 3.950048 -0.253003 0
M  V30 125 H -6.715532 4.958561 0.396993 0
M  V30 126 H -6.497681 -0.654534 6.348958 0
M  V30 127 H -7.273826 -0.680779 4.809048 0
M  V30 128 H -6.198909 -2.809985 6.152794 0
M  V30 129 H -6.430790 -2.835555 4.435400 0
M  V30 130 H -4.537792 -3.584901 1.839961 0
M  V30 131 H -4.379514 -1.897113 2.357927 0
M  V30 132 H -1.901070 -2.672870 2.941171 0
M  V30 133 H -2.458981 -2.215350 1.242869 0
M  V30 134 H 9.886984 -0.519683 -1.495287 0
M  V30 135 H 8.527418 -1.624122 -1.967758 0
M  V30 136 H 8.566411 0.153067 -2.447525 0
M  V30 137 H 7.788070 1.779643 0.551392 0
M  V30 138 H 9.505961 1.136421 0.571006 0
M  V30 139 H 8.810559 1.715452 -0.957919 0
M  V30 140 H 8.671252 -2.217534 0.370886 0
M  V30 141 H 8.026789 -1.006007 1.615200 0
M  V30 142 H 9.688606 -0.900360 0.999748 0
M  V30 143 H 1.903980 4.669126 0.173073 0
M  V30 144 H -0.229780 5.635516 -0.300994 0
M  V30 END ATOM
M  V30 BEGIN BOND
M  V30 1 1 1 2
M  V30 2 1 2 3
M  V30 3 2 3 4
M  V30 4 1 4 5
M  V30 5 1 5 6
M  V30 6 1 6 7
M  V30 7 2 7 8
M  V30 8 1 8 9
M  V30 9 2 9 10
M  V30 10 1 10 11
M  V30 11 1 11 12
M  V30 12 1 12 13
M  V30 13 2 13 14
M  V30 14 1 13 15
M  V30 15 1 15 16
M  V30 16 1 16 17
M  V30 17 1 17 18
M  V30 18 1 17 19
M  V30 19 1 19 20
M  V30 20 1 20 21
M  V30 21 2 21 22
M  V30 22 1 21 23
M  V30 23 1 23 24
M  V30 24 1 24 25
M  V30 25 2 25 26
M  V30 26 1 25 27
M  V30 27 1 27 28
M  V30 28 1 28 29
M  V30 29 1 29 30
M  V30 30 1 30 31
M  V30 31 1 31 32
M  V30 32 1 32 33
M  V30 33 1 33 34
M  V30 34 1 34 35
M  V30 35 2 35 36
M  V30 36 1 35 37
M  V30 37 1 37 38
M  V30 38 1 38 39
M  V30 39 2 39 40
M  V30 40 1 39 41
M  V30 41 1 41 42
M  V30 42 1 42 43
M  V30 43 1 43 44
M  V30 44 1 44 45
M  V30 45 1 45 46
M  V30 46 1 46 47
M  V30 47 1 47 48
M  V30 48 1 48 49
M  V30 49 1 49 50
M  V30 50 2 50 51
M  V30 51 1 51 52
M  V30 52 2 52 53
M  V30 53 1 53 54
M  V30 54 1 54 55
M  V30 55 2 55 56
M  V30 56 1 56 57
M  V30 57 1 57 58
M  V30 58 1 58 59
M  V30 59 1 58 60
M  V30 60 2 57 61
M  V30 61 1 48 62
M  V30 62 1 62 63
M  V30 63 1 44 64
M  V30 64 1 64 65
M  V30 65 1 23 66
M  V30 66 1 66 67
M  V30 67 1 66 68
M  V30 68 1 66 69
M  V30 69 1 10 70
M  V30 70 2 70 71
M  V30 71 2 6 2
M  V30 72 1 71 7
M  V30 73 1 20 15
M  V30 74 1 65 41
M  V30 75 1 63 45
M  V30 76 1 61 50
M  V30 77 1 61 54
M  V30 78 1 1 72
M  V30 79 1 1 73
M  V30 80 1 1 74
M  V30 81 1 4 75
M  V30 82 1 8 76
M  V30 83 1 9 77
M  V30 84 1 11 78
M  V30 85 1 11 79
M  V30 86 1 12 80
M  V30 87 1 15 81 CFG=3
M  V30 88 1 16 82
M  V30 89 1 16 83
M  V30 90 1 17 84 CFG=1
M  V30 91 1 18 85
M  V30 92 1 19 86
M  V30 93 1 19 87
M  V30 94 1 23 88 CFG=1
M  V30 95 1 24 89
M  V30 96 1 27 90
M  V30 97 1 27 91
M  V30 98 1 29 92
M  V30 99 1 29 93
M  V30 100 1 30 94
M  V30 101 1 30 95
M  V30 102 1 32 96
M  V30 103 1 32 97
M  V30 104 1 33 98
M  V30 105 1 33 99
M  V30 106 1 34 100
M  V30 107 1 37 101
M  V30 108 1 37 102
M  V30 109 1 38 103
M  V30 110 1 38 104
M  V30 111 1 42 105
M  V30 112 1 42 106
M  V30 113 1 43 107
M  V30 114 1 43 108
M  V30 115 1 45 109 CFG=1
M  V30 116 1 46 110
M  V30 117 1 46 111
M  V30 118 1 47 112
M  V30 119 1 47 113
M  V30 120 1 48 114 CFG=1
M  V30 121 1 49 115
M  V30 122 1 52 116
M  V30 123 1 55 117
M  V30 124 1 56 118
M  V30 125 1 58 119
M  V30 126 1 59 120
M  V30 127 1 59 121
M  V30 128 1 59 122
M  V30 129 1 60 123
M  V30 130 1 60 124
M  V30 131 1 60 125
M  V30 132 1 62 126
M  V30 133 1 62 127
M  V30 134 1 63 128
M  V30 135 1 63 129
M  V30 136 1 64 130
M  V30 137 1 64 131
M  V30 138 1 65 132
M  V30 139 1 65 133
M  V30 140 1 67 134
M  V30 141 1 67 135
M  V30 142 1 67 136
M  V30 143 1 68 137
M  V30 144 1 68 138
M  V30 145 1 68 139
M  V30 146 1 69 140
M  V30 147 1 69 141
M  V30 148 1 69 142
M  V30 149 1 70 143
M  V30 150 1 71 144
M  V30 END BOND
M  V30 END CTAB
M  END
>  <Dataset>  (758) 
ChEMBL_Kinases

>  <Ligand_Instance>  (758) 
nan

>  <PDB_ID>  (758) 
nan

>  <Standardized_SMILES>  (758) 
Cc1ncsc1-c1ccc(CNC(=O)[C@@H]2C[C@@H](O)CN2C(=O)[C@@H](NC(=O)COCCOCCNC(=O)CCC(=O)N2CCN([C@H]3CC[C@@H](Nc4ncnn5ccc(C(C)C)c45)CC3)CC2)C(C)(C)C)cc1

>  <Name>  (758) 
nan

>  <Pocket>  (758) 
nan

>  <ATP_Site>  (758) 
nan

>  <Peripheral>  (758) 
nan

>  <Num_H_Atoms_ProtBoundConf>  (758) 
nan

>  <Num_Resolved_Atoms>  (758) 
nan

>  <Num_Not_Resolved_Atoms>  (758) 
nan

$$$$
CHEMBL4763823
     RDKit          3D

  0  0  0  0  0  0  0  0  0  0999 V3000
M  V30 BEGIN CTAB
M  V30 COUNTS 56 60 0 0 0
M  V30 BEGIN ATOM
M  V30 1 O -1.884466 -4.740901 -0.627980 0
M  V30 2 S -2.469918 -4.014406 0.539935 0
M  V30 3 O -1.968817 -4.690519 1.796529 0
M  V30 4 N -1.825123 -2.383548 0.604388 0
M  V30 5 C -2.278525 -1.741827 1.808465 0
M  V30 6 C -1.782385 -0.356310 1.926479 0
M  V30 7 C -0.319998 -0.159808 1.975060 0
M  V30 8 N 0.451075 -0.555280 0.838163 0
M  V30 9 C 0.116892 0.163285 -0.368141 0
M  V30 10 N -0.801548 -0.066827 -1.317495 0
M  V30 11 C -0.917002 0.762258 -2.367422 0
M  V30 12 C -0.091607 1.848497 -2.468090 0
M  V30 13 C 0.859146 2.098763 -1.498571 0
M  V30 14 C 1.674456 3.273770 -1.719659 0
M  V30 15 C 3.024669 3.041911 -1.847563 0
M  V30 16 C 3.873983 1.864822 -1.810612 0
M  V30 17 C 3.521148 0.981736 -2.833142 0
M  V30 18 C 4.202112 -0.225498 -2.997282 0
M  V30 19 C 5.241371 -0.532976 -2.120876 0
M  V30 20 C 5.580034 0.351344 -1.112535 0
M  V30 21 F 6.573363 0.135653 -0.218262 0
M  V30 22 C 4.908400 1.533169 -0.957109 0
M  V30 23 N 3.619368 4.227670 -2.047450 0
M  V30 24 C 2.653432 5.185865 -2.044158 0
M  V30 25 S 2.210169 6.976978 -2.193514 0
M  V30 26 C 0.356587 6.648652 -1.946042 0
M  V30 27 C 0.312065 5.270432 -1.787091 0
M  V30 28 N 1.452731 4.590141 -1.840968 0
M  V30 29 N 0.929846 1.228436 -0.462078 0
M  V30 30 C -4.214483 -3.979063 0.501920 0
M  V30 31 C -5.055328 -4.002645 1.586773 0
M  V30 32 C -6.420046 -3.968671 1.343160 0
M  V30 33 C -6.927727 -3.913109 0.060694 0
M  V30 34 Cl -8.654342 -3.872917 -0.193267 0
M  V30 35 C -6.086153 -3.888587 -1.050962 0
M  V30 36 C -4.722782 -3.922906 -0.795152 0
M  V30 37 H -0.807443 -2.423588 0.500473 0
M  V30 38 H -3.405120 -1.797066 1.843518 0
M  V30 39 H -1.970737 -2.311995 2.722792 0
M  V30 40 H -2.200256 0.305923 1.101009 0
M  V30 41 H -2.203588 0.121501 2.851155 0
M  V30 42 H -0.156200 0.961645 2.083092 0
M  V30 43 H 0.096318 -0.571434 2.931924 0
M  V30 44 H 1.229453 -1.237911 0.593784 0
M  V30 45 H -1.680848 0.499032 -3.078335 0
M  V30 46 H -0.277146 2.442213 -3.353883 0
M  V30 47 H 2.730709 1.112137 -3.575479 0
M  V30 48 H 3.963689 -0.946224 -3.778583 0
M  V30 49 H 5.824737 -1.450981 -2.176224 0
M  V30 50 H 5.074408 2.307392 -0.212560 0
M  V30 51 H -0.263068 7.518845 -1.972743 0
M  V30 52 H -0.716125 5.002803 -1.640584 0
M  V30 53 H -4.573346 -4.046460 2.550797 0
M  V30 54 H -7.047877 -3.988272 2.209412 0
M  V30 55 H -6.516178 -3.845199 -2.037175 0
M  V30 56 H -4.123296 -3.900674 -1.711930 0
M  V30 END ATOM
M  V30 BEGIN BOND
M  V30 1 2 1 2
M  V30 2 2 2 3
M  V30 3 1 2 4
M  V30 4 1 4 5
M  V30 5 1 5 6
M  V30 6 1 6 7
M  V30 7 1 7 8
M  V30 8 1 8 9
M  V30 9 2 9 10
M  V30 10 1 10 11
M  V30 11 2 11 12
M  V30 12 1 12 13
M  V30 13 1 13 14
M  V30 14 2 14 15
M  V30 15 1 15 16
M  V30 16 2 16 17
M  V30 17 1 17 18
M  V30 18 2 18 19
M  V30 19 1 19 20
M  V30 20 1 20 21
M  V30 21 2 20 22
M  V30 22 1 15 23
M  V30 23 2 23 24
M  V30 24 1 24 25
M  V30 25 1 25 26
M  V30 26 2 26 27
M  V30 27 1 27 28
M  V30 28 2 13 29
M  V30 29 1 2 30
M  V30 30 2 30 31
M  V30 31 1 31 32
M  V30 32 2 32 33
M  V30 33 1 33 34
M  V30 34 1 33 35
M  V30 35 2 35 36
M  V30 36 1 29 9
M  V30 37 1 36 30
M  V30 38 1 28 14
M  V30 39 1 22 16
M  V30 40 1 28 24
M  V30 41 1 4 37
M  V30 42 1 5 38
M  V30 43 1 5 39
M  V30 44 1 6 40
M  V30 45 1 6 41
M  V30 46 1 7 42
M  V30 47 1 7 43
M  V30 48 1 8 44
M  V30 49 1 11 45
M  V30 50 1 12 46
M  V30 51 1 17 47
M  V30 52 1 18 48
M  V30 53 1 19 49
M  V30 54 1 22 50
M  V30 55 1 26 51
M  V30 56 1 27 52
M  V30 57 1 31 53
M  V30 58 1 32 54
M  V30 59 1 35 55
M  V30 60 1 36 56
M  V30 END BOND
M  V30 END CTAB
M  END
>  <Dataset>  (759) 
ChEMBL_Kinases

>  <Ligand_Instance>  (759) 
nan

>  <PDB_ID>  (759) 
nan

>  <Standardized_SMILES>  (759) 
O=S(=O)(NCCCNc1nccc(-c2c(-c3cccc(F)c3)nc3sccn23)n1)c1ccc(Cl)cc1

>  <Name>  (759) 
nan

>  <Pocket>  (759) 
nan

>  <ATP_Site>  (759) 
nan

>  <Peripheral>  (759) 
nan

>  <Num_H_Atoms_ProtBoundConf>  (759) 
nan

>  <Num_Resolved_Atoms>  (759) 
nan

>  <Num_Not_Resolved_Atoms>  (759) 
nan

$$$$
CHEMBL4764023
     RDKit          3D

  0  0  0  0  0  0  0  0  0  0999 V3000
M  V30 BEGIN CTAB
M  V30 COUNTS 59 62 0 0 0
M  V30 BEGIN ATOM
M  V30 1 C 0.003564 0.608615 5.077504 0
M  V30 2 N 1.153685 0.907148 5.913548 0
M  V30 3 C 2.410939 1.219012 5.321435 0
M  V30 4 C 3.560758 1.514253 6.012630 0
M  V30 5 C 4.740692 1.805504 5.352712 0
M  V30 6 C 4.824394 1.814736 3.978356 0
M  V30 7 C 3.710638 1.528301 3.256971 0
M  V30 8 C 3.645376 1.498733 1.801096 0
M  V30 9 C 4.741085 1.765125 1.010557 0
M  V30 10 C 4.663821 1.733097 -0.378847 0
M  V30 11 N 3.482591 1.432688 -0.983481 0
M  V30 12 C 2.416268 1.173452 -0.210388 0
M  V30 13 N 1.106502 0.848700 -0.648737 0
M  V30 14 C 0.593567 -0.440409 -0.936825 0
M  V30 15 C 1.344707 -1.585727 -0.828921 0
M  V30 16 C 0.757824 -2.784500 -1.132154 0
M  V30 17 C -0.566313 -2.894823 -1.544583 0
M  V30 18 C -1.325102 -1.734361 -1.651247 0
M  V30 19 C -0.721357 -0.498252 -1.340606 0
M  V30 20 N -2.727081 -1.763638 -2.057047 0
M  V30 21 C -3.649982 -0.791855 -1.584151 0
M  V30 22 C -5.068562 -1.268387 -1.395364 0
M  V30 23 C -3.230905 -0.386829 -0.158567 0
M  V30 24 C -2.980012 -2.835599 -2.979069 0 CFG=2
M  V30 25 C -4.341940 -3.104778 -3.448260 0
M  V30 26 C -2.541016 -4.145556 -2.351749 0
M  V30 27 O -3.149614 -5.244292 -2.148166 0
M  V30 28 N -1.182758 -4.149852 -1.902178 0
M  V30 29 C -0.328595 -5.334564 -1.760005 0
M  V30 30 N 2.509832 1.208943 1.131320 0
M  V30 31 C 2.530937 1.237328 3.943634 0
M  V30 32 H 0.256392 -0.177647 4.328199 0
M  V30 33 H -0.839705 0.281850 5.710269 0
M  V30 34 H -0.348225 1.495399 4.504523 0
M  V30 35 H 1.065598 0.895127 6.940893 0
M  V30 36 H 3.506855 1.509977 7.099761 0
M  V30 37 H 5.626280 2.033676 5.934370 0
M  V30 38 H 5.742035 2.041402 3.471665 0
M  V30 39 H 5.698000 2.008351 1.438595 0
M  V30 40 H 5.524005 1.941862 -1.019988 0
M  V30 41 H 0.552124 1.725469 -0.730942 0
M  V30 42 H 2.378020 -1.527964 -0.509335 0
M  V30 43 H 1.329174 -3.719449 -1.056739 0
M  V30 44 H -1.319878 0.395600 -1.441759 0
M  V30 45 H -3.713621 0.053613 -2.274887 0
M  V30 46 H -5.199852 -2.130160 -0.754622 0
M  V30 47 H -5.540814 -0.428770 -0.784220 0
M  V30 48 H -5.681574 -1.222967 -2.316476 0
M  V30 49 H -2.404054 -1.011091 0.227741 0
M  V30 50 H -3.111409 0.688673 -0.029971 0
M  V30 51 H -4.067256 -0.630183 0.585466 0
M  V30 52 H -2.332981 -2.708460 -3.866070 0
M  V30 53 H -5.053871 -3.492970 -2.694224 0
M  V30 54 H -4.221190 -4.022909 -4.118700 0
M  V30 55 H -4.764405 -2.380973 -4.168126 0
M  V30 56 H 0.037690 -5.449378 -0.726083 0
M  V30 57 H 0.516495 -5.315003 -2.479759 0
M  V30 58 H -0.969957 -6.203527 -1.989202 0
M  V30 59 H 1.621047 1.003301 3.369754 0
M  V30 END ATOM
M  V30 BEGIN BOND
M  V30 1 1 1 2
M  V30 2 1 2 3
M  V30 3 2 3 4
M  V30 4 1 4 5
M  V30 5 2 5 6
M  V30 6 1 6 7
M  V30 7 1 7 8
M  V30 8 2 8 9
M  V30 9 1 9 10
M  V30 10 2 10 11
M  V30 11 1 11 12
M  V30 12 1 12 13
M  V30 13 1 13 14
M  V30 14 2 14 15
M  V30 15 1 15 16
M  V30 16 2 16 17
M  V30 17 1 17 18
M  V30 18 2 18 19
M  V30 19 1 18 20
M  V30 20 1 20 21
M  V30 21 1 21 22
M  V30 22 1 21 23
M  V30 23 1 20 24
M  V30 24 1 24 25
M  V30 25 1 24 26
M  V30 26 2 26 27
M  V30 27 1 26 28
M  V30 28 1 28 29
M  V30 29 2 12 30
M  V30 30 2 7 31
M  V30 31 1 31 3
M  V30 32 1 30 8
M  V30 33 1 19 14
M  V30 34 1 28 17
M  V30 35 1 1 32
M  V30 36 1 1 33
M  V30 37 1 1 34
M  V30 38 1 2 35
M  V30 39 1 4 36
M  V30 40 1 5 37
M  V30 41 1 6 38
M  V30 42 1 9 39
M  V30 43 1 10 40
M  V30 44 1 13 41
M  V30 45 1 15 42
M  V30 46 1 16 43
M  V30 47 1 19 44
M  V30 48 1 21 45
M  V30 49 1 22 46
M  V30 50 1 22 47
M  V30 51 1 22 48
M  V30 52 1 23 49
M  V30 53 1 23 50
M  V30 54 1 23 51
M  V30 55 1 24 52 CFG=3
M  V30 56 1 25 53
M  V30 57 1 25 54
M  V30 58 1 25 55
M  V30 59 1 29 56
M  V30 60 1 29 57
M  V30 61 1 29 58
M  V30 62 1 31 59
M  V30 END BOND
M  V30 END CTAB
M  END
>  <Dataset>  (760) 
ChEMBL_Kinases

>  <Ligand_Instance>  (760) 
nan

>  <PDB_ID>  (760) 
nan

>  <Standardized_SMILES>  (760) 
CNc1cccc(-c2ccnc(Nc3ccc4c(c3)N(C(C)C)[C@H](C)C(=O)N4C)n2)c1

>  <Name>  (760) 
nan

>  <Pocket>  (760) 
nan

>  <ATP_Site>  (760) 
nan

>  <Peripheral>  (760) 
nan

>  <Num_H_Atoms_ProtBoundConf>  (760) 
nan

>  <Num_Resolved_Atoms>  (760) 
nan

>  <Num_Not_Resolved_Atoms>  (760) 
nan

$$$$
CHEMBL4764030
     RDKit          3D

  0  0  0  0  0  0  0  0  0  0999 V3000
M  V30 BEGIN CTAB
M  V30 COUNTS 56 60 0 0 0
M  V30 BEGIN ATOM
M  V30 1 O 0.665180 1.459303 0.702729 0
M  V30 2 C -0.075035 1.270417 1.728579 0
M  V30 3 C 0.624076 1.426012 3.031559 0
M  V30 4 C 2.042540 1.863269 2.878866 0
M  V30 5 N 2.767009 0.921287 2.104202 0
M  V30 6 C 3.000855 -0.358773 2.674804 0
M  V30 7 C 4.136162 -0.467530 3.626314 0
M  V30 8 C 5.061740 0.691802 3.706349 0
M  V30 9 C 5.067371 1.642982 2.574094 0
M  V30 10 C 3.995767 1.424776 1.549227 0
M  V30 11 N -1.432470 0.945045 1.595583 0
M  V30 12 C -1.878811 0.847933 0.240788 0
M  V30 13 C -2.278130 2.103143 -0.241866 0
M  V30 14 C -2.746924 2.254790 -1.528516 0
M  V30 15 C -2.842573 1.188201 -2.390414 0
M  V30 16 C -2.446105 -0.022632 -1.893793 0
M  V30 17 C -1.979520 -0.213197 -0.631117 0
M  V30 18 C -2.639365 -0.987146 -2.950439 0
M  V30 19 C -2.334368 -2.255395 -2.882312 0
M  V30 20 C -1.748059 -3.090472 -1.853909 0
M  V30 21 C -0.628988 -3.193100 -1.008962 0
M  V30 22 N -0.711653 -4.280581 -0.230990 0
M  V30 23 C -1.854208 -4.926729 -0.517481 0
M  V30 24 C -2.297819 -6.084308 0.063747 0
M  V30 25 C -3.500373 -6.584229 -0.380430 0
M  V30 26 C -4.191193 -5.916240 -1.366581 0
M  V30 27 C -3.638246 -4.766434 -1.866763 0
M  V30 28 N -2.453589 -4.209037 -1.478892 0
M  V30 29 C -3.174757 -0.281838 -4.099701 0
M  V30 30 O -3.475151 -0.776118 -5.208378 0
M  V30 31 N -3.294042 1.076885 -3.729956 0
M  V30 32 H 0.051332 2.164638 3.635578 0
M  V30 33 H 0.531251 0.470821 3.578909 0
M  V30 34 H 2.459899 1.975195 3.914739 0
M  V30 35 H 2.149458 2.866139 2.427816 0
M  V30 36 H 2.063988 -0.785620 3.133091 0
M  V30 37 H 3.194032 -1.055981 1.801573 0
M  V30 38 H 3.706765 -0.650358 4.656581 0
M  V30 39 H 4.692689 -1.430686 3.425951 0
M  V30 40 H 6.109974 0.273536 3.786387 0
M  V30 41 H 4.949755 1.221833 4.699394 0
M  V30 42 H 4.875629 2.678577 2.984228 0
M  V30 43 H 6.053422 1.732997 2.074735 0
M  V30 44 H 3.760713 2.354014 0.989196 0
M  V30 45 H 4.355678 0.685599 0.804545 0
M  V30 46 H -1.932900 0.817821 2.511257 0
M  V30 47 H -2.260251 3.020894 0.309068 0
M  V30 48 H -3.062286 3.210387 -1.929604 0
M  V30 49 H -1.664038 -1.047823 -0.095327 0
M  V30 50 H -2.559643 -2.825999 -3.804066 0
M  V30 51 H 0.076872 -2.358301 -1.165778 0
M  V30 52 H -1.742360 -6.592781 0.835310 0
M  V30 53 H -3.913435 -7.492625 0.029720 0
M  V30 54 H -5.134140 -6.300935 -1.720805 0
M  V30 55 H -4.229306 -4.287669 -2.640636 0
M  V30 56 H -3.648914 1.848370 -4.335359 0
M  V30 END ATOM
M  V30 BEGIN BOND
M  V30 1 2 1 2
M  V30 2 1 2 3
M  V30 3 1 3 4
M  V30 4 1 4 5
M  V30 5 1 5 6
M  V30 6 1 6 7
M  V30 7 1 7 8
M  V30 8 1 8 9
M  V30 9 1 9 10
M  V30 10 1 2 11
M  V30 11 1 11 12
M  V30 12 2 12 13
M  V30 13 1 13 14
M  V30 14 2 14 15
M  V30 15 1 15 16
M  V30 16 2 16 17
M  V30 17 1 16 18
M  V30 18 2 18 19
M  V30 19 1 19 20
M  V30 20 2 20 21
M  V30 21 1 21 22
M  V30 22 2 22 23
M  V30 23 1 23 24
M  V30 24 2 24 25
M  V30 25 1 25 26
M  V30 26 2 26 27
M  V30 27 1 27 28
M  V30 28 1 18 29
M  V30 29 2 29 30
M  V30 30 1 29 31
M  V30 31 1 10 5
M  V30 32 1 17 12
M  V30 33 1 28 20
M  V30 34 1 31 15
M  V30 35 1 28 23
M  V30 36 1 3 32
M  V30 37 1 3 33
M  V30 38 1 4 34
M  V30 39 1 4 35
M  V30 40 1 6 36
M  V30 41 1 6 37
M  V30 42 1 7 38
M  V30 43 1 7 39
M  V30 44 1 8 40
M  V30 45 1 8 41
M  V30 46 1 9 42
M  V30 47 1 9 43
M  V30 48 1 10 44
M  V30 49 1 10 45
M  V30 50 1 11 46
M  V30 51 1 13 47
M  V30 52 1 14 48
M  V30 53 1 17 49
M  V30 54 1 19 50
M  V30 55 1 21 51
M  V30 56 1 24 52
M  V30 57 1 25 53
M  V30 58 1 26 54
M  V30 59 1 27 55
M  V30 60 1 31 56
M  V30 END BOND
M  V30 END CTAB
M  END
>  <Dataset>  (761) 
ChEMBL_Kinases

>  <Ligand_Instance>  (761) 
nan

>  <PDB_ID>  (761) 
nan

>  <Standardized_SMILES>  (761) 
O=C(CCN1CCCCC1)Nc1ccc2c(c1)/C(=C\c1cnc3ccccn13)C(=O)N2

>  <Name>  (761) 
nan

>  <Pocket>  (761) 
nan

>  <ATP_Site>  (761) 
nan

>  <Peripheral>  (761) 
nan

>  <Num_H_Atoms_ProtBoundConf>  (761) 
nan

>  <Num_Resolved_Atoms>  (761) 
nan

>  <Num_Not_Resolved_Atoms>  (761) 
nan

$$$$
CHEMBL4764056
     RDKit          3D

  0  0  0  0  0  0  0  0  0  0999 V3000
M  V30 BEGIN CTAB
M  V30 COUNTS 73 77 0 0 0
M  V30 BEGIN ATOM
M  V30 1 C 2.372158 1.551794 4.611232 0
M  V30 2 C 2.471353 2.226750 3.291015 0
M  V30 3 C 3.582153 2.967797 2.943013 0
M  V30 4 C 3.695524 3.610307 1.705223 0
M  V30 5 C 2.651055 3.490107 0.809540 0
M  V30 6 C 2.798829 4.171095 -0.472747 0
M  V30 7 O 3.851283 4.817695 -0.679197 0
M  V30 8 N 1.837797 4.154331 -1.502721 0
M  V30 9 C 2.019677 4.847636 -2.773575 0
M  V30 10 C 1.435863 4.187593 -3.983053 0
M  V30 11 C 0.740071 5.386755 -3.416940 0
M  V30 12 C 1.532368 2.754180 1.138004 0
M  V30 13 C 1.440606 2.120031 2.381849 0
M  V30 14 N 0.238192 1.365363 2.656740 0
M  V30 15 C -0.676129 1.810617 3.505185 0
M  V30 16 C -1.783109 1.013075 3.693802 0
M  V30 17 N -1.874244 -0.144255 3.024400 0
M  V30 18 C -0.930125 -0.595120 2.153947 0
M  V30 19 N -1.026835 -1.860531 1.465740 0
M  V30 20 C -2.132696 -2.841404 1.519782 0 CFG=1
M  V30 21 C -3.064062 -2.504215 0.465130 0
M  V30 22 C -3.237715 -1.176265 0.101872 0
M  V30 23 C -4.099103 -0.741933 -0.867123 0
M  V30 24 C -4.889179 -1.641930 -1.580618 0
M  V30 25 C -4.766818 -2.982789 -1.270403 0
M  V30 26 C -3.874667 -3.327061 -0.280905 0
M  V30 27 C -1.497310 -4.173302 1.572843 0 CFG=1
M  V30 28 C -2.396943 -5.374770 1.653460 0
M  V30 29 C -0.234473 -4.375617 0.821630 0
M  V30 30 N -0.198463 -4.158292 -0.578348 0
M  V30 31 C 1.204952 -4.271365 -1.073690 0
M  V30 32 C 1.265958 -3.706766 -2.461682 0
M  V30 33 N 0.138463 -4.212830 -3.226916 0
M  V30 34 C -0.251681 -5.479866 -2.664721 0
M  V30 35 C -0.853343 -5.256067 -1.276833 0
M  V30 36 C 0.192017 0.216698 1.964833 0
M  V30 37 O 1.079925 -0.177563 1.164880 0
M  V30 38 H 2.795685 0.522317 4.521350 0
M  V30 39 H 2.959367 2.140244 5.369796 0
M  V30 40 H 1.318785 1.474150 4.906976 0
M  V30 41 H 4.414654 3.075160 3.631785 0
M  V30 42 H 4.615033 4.179968 1.510058 0
M  V30 43 H 0.951799 3.623389 -1.357695 0
M  V30 44 H 2.940547 5.408567 -2.940894 0
M  V30 45 H 0.925568 3.201164 -3.883188 0
M  V30 46 H 1.934864 4.350140 -4.957840 0
M  V30 47 H 0.822026 6.357512 -3.973842 0
M  V30 48 H -0.222642 5.217571 -2.887079 0
M  V30 49 H 0.716109 2.662219 0.434117 0
M  V30 50 H -0.558203 2.751503 4.022147 0
M  V30 51 H -2.585732 1.295423 4.370468 0
M  V30 52 H -0.224602 -2.107731 0.851447 0
M  V30 53 H -2.610832 -2.633271 2.513237 0
M  V30 54 H -2.735978 -0.323925 0.500862 0
M  V30 55 H -4.275930 0.280430 -1.192221 0
M  V30 56 H -5.584331 -1.360755 -2.353043 0
M  V30 57 H -5.358839 -3.700996 -1.799248 0
M  V30 58 H -3.836751 -4.387042 -0.098571 0
M  V30 59 H -1.076725 -4.165348 2.687810 0
M  V30 60 H -3.396283 -5.119748 2.075814 0
M  V30 61 H -2.007261 -6.113252 2.446583 0
M  V30 62 H -2.425187 -6.018788 0.761055 0
M  V30 63 H 0.656430 -3.834576 1.273459 0
M  V30 64 H 0.068844 -5.459686 1.062310 0
M  V30 65 H 1.532035 -5.327766 -1.053551 0
M  V30 66 H 1.879638 -3.724049 -0.389352 0
M  V30 67 H 2.181365 -4.054157 -2.987233 0
M  V30 68 H 1.259719 -2.592147 -2.425684 0
M  V30 69 H 0.383370 -4.293669 -4.221754 0
M  V30 70 H 0.605685 -6.177887 -2.641910 0
M  V30 71 H -1.022151 -5.991472 -3.287662 0
M  V30 72 H -1.943710 -5.162369 -1.337550 0
M  V30 73 H -0.616984 -6.186633 -0.722470 0
M  V30 END ATOM
M  V30 BEGIN BOND
M  V30 1 1 1 2
M  V30 2 2 2 3
M  V30 3 1 3 4
M  V30 4 2 4 5
M  V30 5 1 5 6
M  V30 6 2 6 7
M  V30 7 1 6 8
M  V30 8 1 8 9
M  V30 9 1 9 10
M  V30 10 1 10 11
M  V30 11 1 5 12
M  V30 12 2 12 13
M  V30 13 1 13 14
M  V30 14 1 14 15
M  V30 15 2 15 16
M  V30 16 1 16 17
M  V30 17 2 17 18
M  V30 18 1 18 19
M  V30 19 1 19 20
M  V30 20 1 20 21
M  V30 21 2 21 22
M  V30 22 1 22 23
M  V30 23 2 23 24
M  V30 24 1 24 25
M  V30 25 2 25 26
M  V30 26 1 20 27
M  V30 27 1 27 28
M  V30 28 1 27 29
M  V30 29 1 29 30
M  V30 30 1 30 31
M  V30 31 1 31 32
M  V30 32 1 32 33
M  V30 33 1 33 34
M  V30 34 1 34 35
M  V30 35 1 18 36
M  V30 36 2 36 37
M  V30 37 1 13 2
M  V30 38 1 36 14
M  V30 39 1 11 9
M  V30 40 1 26 21
M  V30 41 1 35 30
M  V30 42 1 1 38
M  V30 43 1 1 39
M  V30 44 1 1 40
M  V30 45 1 3 41
M  V30 46 1 4 42
M  V30 47 1 8 43
M  V30 48 1 9 44
M  V30 49 1 10 45
M  V30 50 1 10 46
M  V30 51 1 11 47
M  V30 52 1 11 48
M  V30 53 1 12 49
M  V30 54 1 15 50
M  V30 55 1 16 51
M  V30 56 1 19 52
M  V30 57 1 20 53 CFG=1
M  V30 58 1 22 54
M  V30 59 1 23 55
M  V30 60 1 24 56
M  V30 61 1 25 57
M  V30 62 1 26 58
M  V30 63 1 27 59 CFG=1
M  V30 64 1 28 60
M  V30 65 1 28 61
M  V30 66 1 28 62
M  V30 67 1 29 63
M  V30 68 1 29 64
M  V30 69 1 31 65
M  V30 70 1 31 66
M  V30 71 1 32 67
M  V30 72 1 32 68
M  V30 73 1 33 69
M  V30 74 1 34 70
M  V30 75 1 34 71
M  V30 76 1 35 72
M  V30 77 1 35 73
M  V30 END BOND
M  V30 END CTAB
M  END
>  <Dataset>  (762) 
ChEMBL_Kinases

>  <Ligand_Instance>  (762) 
nan

>  <PDB_ID>  (762) 
nan

>  <Standardized_SMILES>  (762) 
Cc1ccc(C(=O)NC2CC2)cc1-n1ccnc(N[C@@H](c2ccccc2)[C@@H](C)CN2CCNCC2)c1=O

>  <Name>  (762) 
nan

>  <Pocket>  (762) 
nan

>  <ATP_Site>  (762) 
nan

>  <Peripheral>  (762) 
nan

>  <Num_H_Atoms_ProtBoundConf>  (762) 
nan

>  <Num_Resolved_Atoms>  (762) 
nan

>  <Num_Not_Resolved_Atoms>  (762) 
nan

$$$$
CHEMBL4764076
     RDKit          3D

  0  0  0  0  0  0  0  0  0  0999 V3000
M  V30 BEGIN CTAB
M  V30 COUNTS 48 51 0 0 0
M  V30 BEGIN ATOM
M  V30 1 C 0.811553 -5.593278 2.306740 0
M  V30 2 O 1.411632 -5.521257 1.009600 0
M  V30 3 C 1.197510 -4.434138 0.174608 0
M  V30 4 C 1.859722 -4.529515 -1.052637 0
M  V30 5 C 1.680576 -3.464295 -1.932762 0
M  V30 6 C 0.894545 -2.351172 -1.642095 0
M  V30 7 N 0.780982 -1.320281 -2.615305 0
M  V30 8 N 1.074127 -1.426173 -3.900465 0
M  V30 9 N 0.857716 -0.284806 -4.532655 0
M  V30 10 C 0.409236 0.567440 -3.592924 0
M  V30 11 C 0.020094 1.889737 -3.644371 0
M  V30 12 N -0.392579 2.497524 -2.517496 0
M  V30 13 C -0.454667 1.891227 -1.310387 0
M  V30 14 N -0.904442 2.606527 -0.163168 0
M  V30 15 C -0.959729 1.939352 1.105289 0 CFG=1
M  V30 16 C 0.358988 1.430921 1.569900 0
M  V30 17 C 0.543131 1.268041 3.023312 0
M  V30 18 C -0.686234 1.095144 3.853147 0 CFG=2
M  V30 19 C -0.902685 -0.364980 4.205096 0
M  V30 20 O -1.052030 -1.165491 3.089007 0
M  V30 21 C -1.916405 1.755984 3.301090 0
M  V30 22 C -1.562326 2.761410 2.197400 0
M  V30 23 N -0.076321 0.619970 -1.281686 0
M  V30 24 C 0.352483 -0.067636 -2.369278 0
M  V30 25 C 0.258842 -2.291499 -0.426783 0
M  V30 26 C 0.417134 -3.326373 0.460102 0
M  V30 27 H 1.425501 -4.966854 3.006149 0
M  V30 28 H 0.817062 -6.634800 2.664681 0
M  V30 29 H -0.227691 -5.233935 2.301920 0
M  V30 30 H 2.491491 -5.351101 -1.371529 0
M  V30 31 H 2.183670 -3.504996 -2.902167 0
M  V30 32 H 0.038427 2.451246 -4.569639 0
M  V30 33 H -1.185192 3.604625 -0.270554 0
M  V30 34 H -1.629784 1.047049 0.974150 0
M  V30 35 H 1.124518 2.146331 1.151512 0
M  V30 36 H 0.572405 0.477717 1.002036 0
M  V30 37 H 1.197950 2.079796 3.416712 0
M  V30 38 H 1.167613 0.341964 3.171828 0
M  V30 39 H -0.493715 1.595444 4.834602 0
M  V30 40 H -1.792269 -0.486228 4.840213 0
M  V30 41 H 0.017932 -0.709065 4.718101 0
M  V30 42 H -0.208529 -1.299365 2.592820 0
M  V30 43 H -2.519201 0.976613 2.783279 0
M  V30 44 H -2.551391 2.234057 4.043623 0
M  V30 45 H -0.817901 3.479138 2.612911 0
M  V30 46 H -2.510146 3.253997 1.912153 0
M  V30 47 H -0.351870 -1.461283 -0.160550 0
M  V30 48 H -0.025709 -3.389946 1.429197 0
M  V30 END ATOM
M  V30 BEGIN BOND
M  V30 1 1 1 2
M  V30 2 1 2 3
M  V30 3 2 3 4
M  V30 4 1 4 5
M  V30 5 2 5 6
M  V30 6 1 6 7
M  V30 7 1 7 8
M  V30 8 2 8 9
M  V30 9 1 9 10
M  V30 10 2 10 11
M  V30 11 1 11 12
M  V30 12 2 12 13
M  V30 13 1 13 14
M  V30 14 1 14 15
M  V30 15 1 15 16
M  V30 16 1 16 17
M  V30 17 1 17 18
M  V30 18 1 18 19
M  V30 19 1 19 20
M  V30 20 1 18 21
M  V30 21 1 21 22
M  V30 22 1 13 23
M  V30 23 2 23 24
M  V30 24 1 6 25
M  V30 25 2 25 26
M  V30 26 1 26 3
M  V30 27 1 24 7
M  V30 28 1 24 10
M  V30 29 1 22 15
M  V30 30 1 1 27
M  V30 31 1 1 28
M  V30 32 1 1 29
M  V30 33 1 4 30
M  V30 34 1 5 31
M  V30 35 1 11 32
M  V30 36 1 14 33
M  V30 37 1 15 34 CFG=3
M  V30 38 1 16 35
M  V30 39 1 16 36
M  V30 40 1 17 37
M  V30 41 1 17 38
M  V30 42 1 18 39 CFG=1
M  V30 43 1 19 40
M  V30 44 1 19 41
M  V30 45 1 20 42
M  V30 46 1 21 43
M  V30 47 1 21 44
M  V30 48 1 22 45
M  V30 49 1 22 46
M  V30 50 1 25 47
M  V30 51 1 26 48
M  V30 END BOND
M  V30 END CTAB
M  END
>  <Dataset>  (763) 
ChEMBL_Kinases

>  <Ligand_Instance>  (763) 
nan

>  <PDB_ID>  (763) 
nan

>  <Standardized_SMILES>  (763) 
COc1ccc(-n2nnc3cnc(N[C@H]4CC[C@H](CO)CC4)nc32)cc1

>  <Name>  (763) 
nan

>  <Pocket>  (763) 
nan

>  <ATP_Site>  (763) 
nan

>  <Peripheral>  (763) 
nan

>  <Num_H_Atoms_ProtBoundConf>  (763) 
nan

>  <Num_Resolved_Atoms>  (763) 
nan

>  <Num_Not_Resolved_Atoms>  (763) 
nan

$$$$
CHEMBL4764140
     RDKit          3D

  0  0  0  0  0  0  0  0  0  0999 V3000
M  V30 BEGIN CTAB
M  V30 COUNTS 37 39 0 0 0
M  V30 BEGIN ATOM
M  V30 1 C -1.485807 -5.463296 0.537892 0
M  V30 2 C -0.191742 -4.703227 0.609624 0
M  V30 3 O 0.254436 -4.382914 1.732707 0
M  V30 4 N 0.492237 -4.367054 -0.588662 0
M  V30 5 C 1.726813 -3.647114 -0.630746 0
M  V30 6 C 1.562230 -2.296608 -0.004575 0
M  V30 7 C 0.517224 -1.467388 -0.718843 0
M  V30 8 N 0.416389 -0.180355 -0.056905 0
M  V30 9 C 1.161490 0.887608 -0.404807 0
M  V30 10 O 1.979488 0.754194 -1.347583 0
M  V30 11 C 1.018122 2.085172 0.264719 0
M  V30 12 C 1.813186 3.160471 -0.134087 0
M  V30 13 C 1.629020 4.351369 0.576765 0
M  V30 14 F 2.399466 5.400683 0.193444 0
M  V30 15 C 0.734712 4.524349 1.619139 0
M  V30 16 C -0.033615 3.432294 1.981803 0
M  V30 17 C 0.126898 2.251684 1.300978 0
M  V30 18 N -0.605006 1.183466 1.634490 0
M  V30 19 C -1.535149 0.998457 2.561907 0
M  V30 20 S -2.190149 1.960343 3.684062 0
M  V30 21 N -1.966313 -0.271643 2.483160 0
M  V30 22 N -1.296297 -0.867835 1.501818 0
M  V30 23 C -0.438862 0.033339 0.960683 0
M  V30 24 H -1.289323 -6.285201 -0.208683 0
M  V30 25 H -1.759317 -5.897205 1.499517 0
M  V30 26 H -2.213388 -4.779191 0.088113 0
M  V30 27 H 0.033980 -4.683397 -1.493404 0
M  V30 28 H 2.540980 -4.165408 -0.047429 0
M  V30 29 H 2.090326 -3.567994 -1.675003 0
M  V30 30 H 2.516288 -1.722394 0.031837 0
M  V30 31 H 1.245783 -2.387682 1.053723 0
M  V30 32 H -0.437512 -1.992910 -0.780556 0
M  V30 33 H 0.937016 -1.246356 -1.730309 0
M  V30 34 H 2.531762 3.112462 -0.932559 0
M  V30 35 H 0.694128 5.506211 2.084781 0
M  V30 36 H -0.705265 3.625893 2.791996 0
M  V30 37 H -2.676583 -0.849247 3.003963 0
M  V30 END ATOM
M  V30 BEGIN BOND
M  V30 1 1 1 2
M  V30 2 2 2 3
M  V30 3 1 2 4
M  V30 4 1 4 5
M  V30 5 1 5 6
M  V30 6 1 6 7
M  V30 7 1 7 8
M  V30 8 1 8 9
M  V30 9 2 9 10
M  V30 10 1 9 11
M  V30 11 2 11 12
M  V30 12 1 12 13
M  V30 13 1 13 14
M  V30 14 2 13 15
M  V30 15 1 15 16
M  V30 16 2 16 17
M  V30 17 1 17 18
M  V30 18 1 18 19
M  V30 19 2 19 20
M  V30 20 1 19 21
M  V30 21 1 21 22
M  V30 22 2 22 23
M  V30 23 1 23 8
M  V30 24 1 17 11
M  V30 25 1 23 18
M  V30 26 1 1 24
M  V30 27 1 1 25
M  V30 28 1 1 26
M  V30 29 1 4 27
M  V30 30 1 5 28
M  V30 31 1 5 29
M  V30 32 1 6 30
M  V30 33 1 6 31
M  V30 34 1 7 32
M  V30 35 1 7 33
M  V30 36 1 12 34
M  V30 37 1 15 35
M  V30 38 1 16 36
M  V30 39 1 21 37
M  V30 END BOND
M  V30 END CTAB
M  END
>  <Dataset>  (764) 
ChEMBL_Kinases

>  <Ligand_Instance>  (764) 
nan

>  <PDB_ID>  (764) 
nan

>  <Standardized_SMILES>  (764) 
CC(=O)NCCCn1c(=O)c2cc(F)ccc2n2c(=S)[nH]nc12

>  <Name>  (764) 
nan

>  <Pocket>  (764) 
nan

>  <ATP_Site>  (764) 
nan

>  <Peripheral>  (764) 
nan

>  <Num_H_Atoms_ProtBoundConf>  (764) 
nan

>  <Num_Resolved_Atoms>  (764) 
nan

>  <Num_Not_Resolved_Atoms>  (764) 
nan

$$$$
CHEMBL4764299
     RDKit          3D

  0  0  0  0  0  0  0  0  0  0999 V3000
M  V30 BEGIN CTAB
M  V30 COUNTS 66 73 0 0 0
M  V30 BEGIN ATOM
M  V30 1 C 3.438354 -0.374734 0.567330 0
M  V30 2 O 2.136172 -0.491171 0.184301 0
M  V30 3 C 1.618279 -1.688356 -0.146653 0 CFG=2
M  V30 4 C 1.321702 -1.845434 -1.631819 0 CFG=2
M  V30 5 N 2.411296 -1.411485 -2.445750 0
M  V30 6 C 2.920470 -0.051493 -2.532692 0
M  V30 7 C 3.186205 -2.259421 -3.321430 0
M  V30 8 C 2.750803 -3.700834 -3.321618 0
M  V30 9 O 4.171663 -1.985006 -4.087859 0
M  V30 10 C 0.023195 -1.226580 -2.021905 0
M  V30 11 C -0.987264 -1.726731 -1.050062 0 CFG=1
M  V30 12 O -0.580934 -2.513891 -0.069621 0
M  V30 13 C 0.525650 -2.254494 0.708129 0 CFG=1
M  V30 14 C 0.816690 -3.650142 1.197973 0
M  V30 15 N 0.153029 -1.335865 1.790462 0
M  V30 16 C 0.665324 -1.177975 3.009273 0
M  V30 17 C 1.694556 -1.810817 3.611722 0
M  V30 18 C 2.052351 -1.472033 4.899578 0
M  V30 19 C 1.407642 -0.495974 5.640316 0
M  V30 20 C 0.361633 0.128926 4.992000 0
M  V30 21 C -0.002492 -0.199804 3.712478 0
M  V30 22 C -0.980856 0.277211 2.889174 0
M  V30 23 C -1.961821 1.264197 3.044697 0
M  V30 24 C -2.811577 1.507403 1.990961 0
M  V30 25 C -2.720262 0.820349 0.820005 0
M  V30 26 C -3.433155 0.902348 -0.312743 0
M  V30 27 C -4.467360 1.585416 -0.849032 0
M  V30 28 C -4.984729 1.419773 -2.113218 0
M  V30 29 C -4.399766 0.456324 -2.942669 0
M  V30 30 C -3.337387 -0.268347 -2.436890 0
M  V30 31 C -2.875434 -0.037997 -1.146276 0
M  V30 32 N -1.856913 -0.661919 -0.522141 0
M  V30 33 C -1.742288 -0.139668 0.712181 0
M  V30 34 C -0.865947 -0.422415 1.738361 0
M  V30 35 C -3.678114 2.554400 2.463938 0
M  V30 36 O -4.628210 3.189869 1.990191 0
M  V30 37 N -3.322487 2.908893 3.788244 0
M  V30 38 C -2.205446 2.103114 4.242223 0
M  V30 39 H 3.769194 0.670034 0.821489 0
M  V30 40 H 4.174886 -0.922884 -0.056249 0
M  V30 41 H 3.521628 -0.890146 1.561765 0
M  V30 42 H 2.485587 -2.402645 -0.015458 0
M  V30 43 H 1.221781 -2.953626 -1.835074 0
M  V30 44 H 3.981605 0.015536 -2.253840 0
M  V30 45 H 2.253457 0.594215 -1.892740 0
M  V30 46 H 2.837311 0.290962 -3.590658 0
M  V30 47 H 1.705587 -3.800682 -3.640596 0
M  V30 48 H 3.351218 -4.327269 -3.995614 0
M  V30 49 H 2.857680 -4.146115 -2.310023 0
M  V30 50 H -0.153788 -1.520189 -3.081014 0
M  V30 51 H 0.019575 -0.126489 -2.025787 0
M  V30 52 H -1.700797 -2.346604 -1.666829 0
M  V30 53 H 1.872026 -3.924375 1.231914 0
M  V30 54 H 0.323146 -4.388666 0.551108 0
M  V30 55 H 0.391584 -3.797242 2.213845 0
M  V30 56 H 2.226868 -2.558477 3.099859 0
M  V30 57 H 2.876965 -1.991347 5.359031 0
M  V30 58 H 1.731968 -0.277085 6.637666 0
M  V30 59 H -0.166040 0.898077 5.539698 0
M  V30 60 H -4.969680 2.334536 -0.290013 0
M  V30 61 H -5.799753 1.964044 -2.524172 0
M  V30 62 H -4.716030 0.235676 -3.949844 0
M  V30 63 H -2.871506 -1.016747 -3.060341 0
M  V30 64 H -3.680051 3.601000 4.481207 0
M  V30 65 H -2.445870 1.517155 5.142411 0
M  V30 66 H -1.354343 2.779419 4.424338 0
M  V30 END ATOM
M  V30 BEGIN BOND
M  V30 1 1 1 2
M  V30 2 1 2 3
M  V30 3 1 3 4
M  V30 4 1 4 5
M  V30 5 1 5 6
M  V30 6 1 5 7
M  V30 7 1 7 8
M  V30 8 2 7 9
M  V30 9 1 4 10
M  V30 10 1 10 11
M  V30 11 1 11 12
M  V30 12 1 12 13
M  V30 13 1 13 14 CFG=1
M  V30 14 1 13 15
M  V30 15 1 15 16
M  V30 16 2 16 17
M  V30 17 1 17 18
M  V30 18 2 18 19
M  V30 19 1 19 20
M  V30 20 2 20 21
M  V30 21 1 21 22
M  V30 22 2 22 23
M  V30 23 1 23 24
M  V30 24 2 24 25
M  V30 25 1 25 26
M  V30 26 2 26 27
M  V30 27 1 27 28
M  V30 28 2 28 29
M  V30 29 1 29 30
M  V30 30 2 30 31
M  V30 31 1 31 32
M  V30 32 1 32 33
M  V30 33 2 33 34
M  V30 34 1 24 35
M  V30 35 2 35 36
M  V30 36 1 35 37
M  V30 37 1 37 38
M  V30 38 1 13 3
M  V30 39 1 34 15
M  V30 40 1 32 11
M  V30 41 1 21 16
M  V30 42 1 34 22
M  V30 43 1 38 23
M  V30 44 1 33 25
M  V30 45 1 31 26
M  V30 46 1 1 39
M  V30 47 1 1 40
M  V30 48 1 1 41
M  V30 49 1 3 42 CFG=1
M  V30 50 1 4 43 CFG=1
M  V30 51 1 6 44
M  V30 52 1 6 45
M  V30 53 1 6 46
M  V30 54 1 8 47
M  V30 55 1 8 48
M  V30 56 1 8 49
M  V30 57 1 10 50
M  V30 58 1 10 51
M  V30 59 1 11 52 CFG=3
M  V30 60 1 14 53
M  V30 61 1 14 54
M  V30 62 1 14 55
M  V30 63 1 17 56
M  V30 64 1 18 57
M  V30 65 1 19 58
M  V30 66 1 20 59
M  V30 67 1 27 60
M  V30 68 1 28 61
M  V30 69 1 29 62
M  V30 70 1 30 63
M  V30 71 1 37 64
M  V30 72 1 38 65
M  V30 73 1 38 66
M  V30 END BOND
M  V30 END CTAB
M  END
>  <Dataset>  (765) 
ChEMBL_Kinases

>  <Ligand_Instance>  (765) 
nan

>  <PDB_ID>  (765) 
nan

>  <Standardized_SMILES>  (765) 
CO[C@@H]1[C@H](N(C)C(C)=O)C[C@H]2O[C@]1(C)n1c3ccccc3c3c4c(c5c6ccccc6n2c5c31)C(=O)NC4

>  <Name>  (765) 
nan

>  <Pocket>  (765) 
nan

>  <ATP_Site>  (765) 
nan

>  <Peripheral>  (765) 
nan

>  <Num_H_Atoms_ProtBoundConf>  (765) 
nan

>  <Num_Resolved_Atoms>  (765) 
nan

>  <Num_Not_Resolved_Atoms>  (765) 
nan

$$$$
CHEMBL424722
     RDKit          3D

  0  0  0  0  0  0  0  0  0  0999 V3000
M  V30 BEGIN CTAB
M  V30 COUNTS 47 51 0 0 0
M  V30 BEGIN ATOM
M  V30 1 O 4.703741 -1.531042 0.196313 0
M  V30 2 C 3.458369 -1.636527 0.236126 0
M  V30 3 C 2.802725 -2.636555 0.842374 0
M  V30 4 C 3.003856 -3.788310 1.553981 0
M  V30 5 C 2.009904 -4.605945 2.036901 0
M  V30 6 C 0.629149 -4.417953 1.894961 0
M  V30 7 C 0.380416 -3.281682 1.191905 0
M  V30 8 C 1.416202 -2.508448 0.735774 0
M  V30 9 S 0.998122 -1.026000 -0.191950 0
M  V30 10 N 2.849195 -0.643815 -0.391551 0
M  V30 11 C 2.619695 0.494977 -1.108925 0
M  V30 12 C 1.652790 1.544617 -0.531100 0
M  V30 13 C 2.197241 2.052420 0.746724 0
M  V30 14 C 1.487950 3.112828 1.484700 0
M  V30 15 C 0.275144 2.917387 2.265050 0
M  V30 16 C -0.998842 2.410632 1.766681 0
M  V30 17 O -1.035249 1.075642 1.410899 0
M  V30 18 C -2.224683 0.442110 0.982133 0
M  V30 19 C -3.440146 1.034926 0.702071 0
M  V30 20 C -4.507186 0.252821 0.296934 0
M  V30 21 C -4.401436 -1.138263 0.157194 0
M  V30 22 C -3.181985 -1.792485 0.429731 0
M  V30 23 N -3.102313 -3.121521 0.277457 0
M  V30 24 C -1.928315 -3.724162 0.526719 0
M  V30 25 O -1.552893 -5.029525 0.459037 0
M  V30 26 C -0.961561 -2.848862 0.912277 0
M  V30 27 N -1.030333 -1.525626 1.068786 0
M  V30 28 C -2.195418 -0.922666 0.822077 0
M  V30 29 H 4.054077 -4.039939 1.729129 0
M  V30 30 H 2.268272 -5.521427 2.603957 0
M  V30 31 H -0.219214 -4.972264 2.225952 0
M  V30 32 H 2.226692 0.323726 -2.155210 0
M  V30 33 H 3.592284 1.038033 -1.310313 0
M  V30 34 H 0.631567 1.194708 -0.550877 0
M  V30 35 H 1.680321 2.365911 -1.324698 0
M  V30 36 H 3.256326 2.420117 0.506138 0
M  V30 37 H 2.353758 1.207958 1.493517 0
M  V30 38 H 1.388123 4.045770 0.801703 0
M  V30 39 H 2.278898 3.524046 2.235980 0
M  V30 40 H 0.012797 3.915601 2.812361 0
M  V30 41 H 0.568886 2.312145 3.227081 0
M  V30 42 H -1.851080 2.608349 2.497611 0
M  V30 43 H -1.306940 3.064205 0.878812 0
M  V30 44 H -3.462955 2.109172 0.826829 0
M  V30 45 H -5.443961 0.756672 0.087068 0
M  V30 46 H -5.278626 -1.696680 -0.164845 0
M  V30 47 H -2.083276 -5.759346 0.928125 0
M  V30 END ATOM
M  V30 BEGIN BOND
M  V30 1 2 1 2
M  V30 2 1 2 3
M  V30 3 2 3 4
M  V30 4 1 4 5
M  V30 5 2 5 6
M  V30 6 1 6 7
M  V30 7 2 7 8
M  V30 8 1 8 9
M  V30 9 1 9 10
M  V30 10 1 10 11
M  V30 11 1 11 12
M  V30 12 1 12 13
M  V30 13 1 13 14
M  V30 14 1 14 15
M  V30 15 1 15 16
M  V30 16 1 16 17
M  V30 17 1 17 18
M  V30 18 2 18 19
M  V30 19 1 19 20
M  V30 20 2 20 21
M  V30 21 1 21 22
M  V30 22 2 22 23
M  V30 23 1 23 24
M  V30 24 1 24 25
M  V30 25 2 24 26
M  V30 26 1 26 27
M  V30 27 2 27 28
M  V30 28 1 10 2
M  V30 29 1 28 18
M  V30 30 1 8 3
M  V30 31 1 28 22
M  V30 32 1 26 7
M  V30 33 1 4 29
M  V30 34 1 5 30
M  V30 35 1 6 31
M  V30 36 1 11 32
M  V30 37 1 11 33
M  V30 38 1 12 34
M  V30 39 1 12 35
M  V30 40 1 13 36
M  V30 41 1 13 37
M  V30 42 1 14 38
M  V30 43 1 14 39
M  V30 44 1 15 40
M  V30 45 1 15 41
M  V30 46 1 16 42
M  V30 47 1 16 43
M  V30 48 1 19 44
M  V30 49 1 20 45
M  V30 50 1 21 46
M  V30 51 1 25 47
M  V30 END BOND
M  V30 END CTAB
M  END
>  <Dataset>  (766) 
ChEMBL_Kinases

>  <Ligand_Instance>  (766) 
nan

>  <PDB_ID>  (766) 
nan

>  <Standardized_SMILES>  (766) 
O=c1c2cccc3c2sn1CCCCCCOc1cccc2nc(O)c-3nc12

>  <Name>  (766) 
nan

>  <Pocket>  (766) 
nan

>  <ATP_Site>  (766) 
nan

>  <Peripheral>  (766) 
nan

>  <Num_H_Atoms_ProtBoundConf>  (766) 
nan

>  <Num_Resolved_Atoms>  (766) 
nan

>  <Num_Not_Resolved_Atoms>  (766) 
nan

$$$$
CHEMBL4764153
     RDKit          3D

  0  0  0  0  0  0  0  0  0  0999 V3000
M  V30 BEGIN CTAB
M  V30 COUNTS 60 63 0 0 0
M  V30 BEGIN ATOM
M  V30 1 C -0.807155 -6.040405 4.093699 0
M  V30 2 O 0.247078 -5.120360 4.208118 0
M  V30 3 C 1.002533 -4.648134 3.152398 0
M  V30 4 C 1.978882 -3.754265 3.515700 0
M  V30 5 C 2.800958 -3.211593 2.541729 0
M  V30 6 C 2.677059 -3.539494 1.190196 0
M  V30 7 C 3.600216 -2.908120 0.238254 0
M  V30 8 C 3.024350 -1.616948 -0.256153 0
M  V30 9 O 1.903677 -1.304353 0.194223 0
M  V30 10 N 3.717232 -0.799151 -1.183231 0
M  V30 11 C 3.198854 0.430221 -1.669636 0
M  V30 12 C 2.013122 1.058312 -1.393784 0
M  V30 13 C 1.968138 2.239188 -2.111744 0
M  V30 14 C 0.813933 3.203439 -2.061843 0 CFG=2
M  V30 15 C 0.570067 3.661407 -0.650272 0
M  V30 16 C -0.913155 3.762670 -0.462713 0
M  V30 17 C -1.452091 2.682961 -1.370648 0 CFG=2
M  V30 18 O -1.559430 1.499094 -0.573659 0
M  V30 19 C -2.778138 0.904788 -0.346754 0
M  V30 20 O -3.816258 1.441165 -0.865874 0
M  V30 21 N -3.188397 -0.244053 0.377742 0
M  V30 22 C -4.550733 -0.720134 0.509860 0
M  V30 23 C -4.149291 -1.280893 1.860092 0
M  V30 24 C -2.788639 -1.372009 1.198528 0
M  V30 25 C -2.720921 -2.686593 0.424773 0
M  V30 26 C -1.627392 -1.135317 2.128819 0
M  V30 27 C -0.464123 2.514322 -2.471925 0
M  V30 28 N 3.126511 2.311374 -2.813119 0
M  V30 29 N 3.837413 1.232301 -2.536245 0
M  V30 30 C 1.671598 -4.442348 0.923629 0
M  V30 31 N 0.877484 -4.967929 1.855139 0
M  V30 32 H -0.432551 -7.014162 4.502540 0
M  V30 33 H -1.075140 -6.230148 3.035056 0
M  V30 34 H -1.696039 -5.791982 4.710595 0
M  V30 35 H 2.155915 -3.436906 4.528930 0
M  V30 36 H 3.570927 -2.505889 2.830634 0
M  V30 37 H 3.819496 -3.583539 -0.612861 0
M  V30 38 H 4.546951 -2.678842 0.766379 0
M  V30 39 H 4.626455 -1.161673 -1.480219 0
M  V30 40 H 1.238398 0.717794 -0.740701 0
M  V30 41 H 1.050891 4.074063 -2.678881 0
M  V30 42 H 1.051355 2.957916 0.052660 0
M  V30 43 H 1.011705 4.656068 -0.437483 0
M  V30 44 H -1.286552 4.753100 -0.795795 0
M  V30 45 H -1.150960 3.566552 0.607712 0
M  V30 46 H -2.464181 2.971592 -1.730324 0
M  V30 47 H -5.333178 0.068328 0.593334 0
M  V30 48 H -4.811177 -1.521268 -0.233279 0
M  V30 49 H -4.598835 -2.268347 2.108776 0
M  V30 50 H -4.213616 -0.501913 2.656879 0
M  V30 51 H -3.464444 -3.431901 0.797776 0
M  V30 52 H -1.728156 -3.172517 0.510110 0
M  V30 53 H -2.907815 -2.534704 -0.663545 0
M  V30 54 H -1.947153 -0.853223 3.162329 0
M  V30 55 H -0.924065 -0.402437 1.677933 0
M  V30 56 H -1.072734 -2.107113 2.177849 0
M  V30 57 H -0.853513 3.082205 -3.367327 0
M  V30 58 H -0.286776 1.458964 -2.783074 0
M  V30 59 H 3.357616 3.106718 -3.444686 0
M  V30 60 H 1.560469 -4.710845 -0.131750 0
M  V30 END ATOM
M  V30 BEGIN BOND
M  V30 1 1 1 2
M  V30 2 1 2 3
M  V30 3 2 3 4
M  V30 4 1 4 5
M  V30 5 2 5 6
M  V30 6 1 6 7
M  V30 7 1 7 8
M  V30 8 2 8 9
M  V30 9 1 8 10
M  V30 10 1 10 11
M  V30 11 1 11 12
M  V30 12 2 12 13
M  V30 13 1 13 14
M  V30 14 1 14 15
M  V30 15 1 15 16
M  V30 16 1 16 17
M  V30 17 1 17 18
M  V30 18 1 18 19
M  V30 19 2 19 20
M  V30 20 1 19 21
M  V30 21 1 21 22
M  V30 22 1 22 23
M  V30 23 1 23 24
M  V30 24 1 24 25
M  V30 25 1 24 26
M  V30 26 1 17 27
M  V30 27 1 13 28
M  V30 28 1 28 29
M  V30 29 1 6 30
M  V30 30 2 30 31
M  V30 31 1 31 3
M  V30 32 2 29 11
M  V30 33 1 27 14
M  V30 34 1 24 21
M  V30 35 1 1 32
M  V30 36 1 1 33
M  V30 37 1 1 34
M  V30 38 1 4 35
M  V30 39 1 5 36
M  V30 40 1 7 37
M  V30 41 1 7 38
M  V30 42 1 10 39
M  V30 43 1 12 40
M  V30 44 1 14 41 CFG=3
M  V30 45 1 15 42
M  V30 46 1 15 43
M  V30 47 1 16 44
M  V30 48 1 16 45
M  V30 49 1 17 46 CFG=3
M  V30 50 1 22 47
M  V30 51 1 22 48
M  V30 52 1 23 49
M  V30 53 1 23 50
M  V30 54 1 25 51
M  V30 55 1 25 52
M  V30 56 1 25 53
M  V30 57 1 26 54
M  V30 58 1 26 55
M  V30 59 1 26 56
M  V30 60 1 27 57
M  V30 61 1 27 58
M  V30 62 1 28 59
M  V30 63 1 30 60
M  V30 END BOND
M  V30 END CTAB
M  END
>  <Dataset>  (767) 
ChEMBL_Kinases

>  <Ligand_Instance>  (767) 
nan

>  <PDB_ID>  (767) 
nan

>  <Standardized_SMILES>  (767) 
COc1ccc(CC(=O)Nc2cc([C@@H]3CC[C@H](OC(=O)N4CCC4(C)C)C3)[nH]n2)cn1

>  <Name>  (767) 
nan

>  <Pocket>  (767) 
nan

>  <ATP_Site>  (767) 
nan

>  <Peripheral>  (767) 
nan

>  <Num_H_Atoms_ProtBoundConf>  (767) 
nan

>  <Num_Resolved_Atoms>  (767) 
nan

>  <Num_Not_Resolved_Atoms>  (767) 
nan

$$$$
CHEMBL4764177
     RDKit          3D

  0  0  0  0  0  0  0  0  0  0999 V3000
M  V30 BEGIN CTAB
M  V30 COUNTS 87 91 0 0 0
M  V30 BEGIN ATOM
M  V30 1 N 0.277269 -5.096684 7.534992 0
M  V30 2 C -0.600083 -4.984063 6.411020 0
M  V30 3 C -0.566990 -4.008532 5.459255 0
M  V30 4 C 0.322115 -2.872984 5.309390 0
M  V30 5 O 1.257941 -2.644190 6.124135 0
M  V30 6 N 0.160558 -1.966243 4.216339 0
M  V30 7 C 1.033448 -0.795633 4.013986 0
M  V30 8 C 0.676269 -0.247790 2.654128 0
M  V30 9 C 1.369188 -0.586025 1.486007 0
M  V30 10 C 0.900955 -0.020203 0.319248 0
M  V30 11 C -0.177544 0.834603 0.225433 0
M  V30 12 C -0.585175 1.336675 -1.055316 0
M  V30 13 O -1.728045 1.902859 -1.046123 0
M  V30 14 N -0.087011 1.381751 -2.338138 0
M  V30 15 C -0.032632 1.644563 -3.705582 0 CFG=1
M  V30 16 C -0.259100 3.062657 -4.153956 0
M  V30 17 C -1.518579 3.748731 -3.928466 0
M  V30 18 C -2.773489 3.290919 -4.564439 0
M  V30 19 C -3.880249 4.280320 -4.147261 0
M  V30 20 C -4.392197 4.018516 -2.764795 0
M  V30 21 C -5.001113 2.644765 -2.622055 0
M  V30 22 C -4.826921 1.954972 -3.957567 0
M  V30 23 C -3.289084 1.944341 -4.177115 0
M  V30 24 C 1.172036 1.165943 -4.383111 0
M  V30 25 O 1.044794 1.370330 -5.620682 0
M  V30 26 N 2.407634 0.558135 -4.037887 0
M  V30 27 C 3.190155 0.343675 -5.236631 0
M  V30 28 C 4.525368 -0.276282 -4.938159 0
M  V30 29 C 5.354356 0.590872 -4.055417 0
M  V30 30 C 6.182836 1.543873 -4.666754 0
M  V30 31 C 6.977306 2.369738 -3.857705 0
M  V30 32 C 6.901135 2.198982 -2.470519 0
M  V30 33 Cl 7.942684 3.278133 -1.544097 0
M  V30 34 C 6.088688 1.262274 -1.850713 0
M  V30 35 C 5.310176 0.454069 -2.680910 0
M  V30 36 C -0.823138 1.141602 1.368652 0
M  V30 37 C -0.389614 0.599353 2.558060 0
M  V30 38 C -1.608984 -4.360678 4.627309 0
M  V30 39 N -2.221752 -5.464878 5.048602 0
M  V30 40 N -1.610413 -5.879497 6.166657 0
M  V30 41 C -2.039378 -7.040565 6.855887 0
M  V30 42 C -2.371652 -8.152362 6.111011 0
M  V30 43 C -2.804774 -9.356549 6.656390 0
M  V30 44 C -2.894059 -9.412330 8.025367 0
M  V30 45 C -2.567843 -8.319620 8.815264 0
M  V30 46 C -2.146940 -7.150461 8.231387 0
M  V30 47 H 0.524701 -4.297737 8.155955 0
M  V30 48 H 0.661915 -6.049781 7.695646 0
M  V30 49 H -0.637544 -2.201255 3.554279 0
M  V30 50 H 0.925527 -0.045217 4.802234 0
M  V30 51 H 2.069512 -1.172881 4.029556 0
M  V30 52 H 2.208406 -1.252752 1.568114 0
M  V30 53 H 1.473729 -0.316128 -0.564369 0
M  V30 54 H 0.848221 0.894511 -2.090882 0
M  V30 55 H -0.924229 1.115855 -4.215377 0
M  V30 56 H -0.112519 3.001808 -5.282043 0
M  V30 57 H 0.579509 3.735492 -3.852282 0
M  V30 58 H -1.749132 3.969540 -2.847110 0
M  V30 59 H -1.361596 4.818320 -4.337747 0
M  V30 60 H -2.718188 3.368247 -5.689029 0
M  V30 61 H -4.673733 4.336119 -4.921838 0
M  V30 62 H -3.416777 5.309505 -4.105800 0
M  V30 63 H -5.170580 4.792185 -2.558674 0
M  V30 64 H -3.579590 4.205627 -2.053133 0
M  V30 65 H -6.062014 2.739596 -2.323534 0
M  V30 66 H -4.416368 2.039908 -1.875447 0
M  V30 67 H -5.129475 0.883655 -3.895871 0
M  V30 68 H -5.357821 2.425435 -4.775044 0
M  V30 69 H -3.175335 1.189515 -4.998493 0
M  V30 70 H -2.871467 1.630088 -3.228102 0
M  V30 71 H 2.489396 0.399883 -3.014217 0
M  V30 72 H 3.339821 1.382261 -5.663728 0
M  V30 73 H 2.667065 -0.220402 -6.008179 0
M  V30 74 H 5.071694 -0.389771 -5.901405 0
M  V30 75 H 4.427923 -1.299651 -4.513126 0
M  V30 76 H 6.233361 1.663107 -5.739333 0
M  V30 77 H 7.621694 3.115107 -4.308501 0
M  V30 78 H 6.108303 1.218934 -0.771966 0
M  V30 79 H 4.664042 -0.279762 -2.194115 0
M  V30 80 H -1.670265 1.814319 1.310812 0
M  V30 81 H -0.972328 0.903254 3.421163 0
M  V30 82 H -1.963613 -3.871000 3.722339 0
M  V30 83 H -2.307450 -8.126341 5.025906 0
M  V30 84 H -3.064569 -10.230988 6.073514 0
M  V30 85 H -3.237767 -10.357689 8.468973 0
M  V30 86 H -2.640989 -8.384971 9.891115 0
M  V30 87 H -1.878436 -6.255711 8.788662 0
M  V30 END ATOM
M  V30 BEGIN BOND
M  V30 1 1 1 2
M  V30 2 2 2 3
M  V30 3 1 3 4
M  V30 4 2 4 5
M  V30 5 1 4 6
M  V30 6 1 6 7
M  V30 7 1 7 8
M  V30 8 2 8 9
M  V30 9 1 9 10
M  V30 10 2 10 11
M  V30 11 1 11 12
M  V30 12 2 12 13
M  V30 13 1 12 14
M  V30 14 1 14 15
M  V30 15 1 15 16
M  V30 16 1 16 17
M  V30 17 1 17 18
M  V30 18 1 18 19
M  V30 19 1 19 20
M  V30 20 1 20 21
M  V30 21 1 21 22
M  V30 22 1 22 23
M  V30 23 1 15 24
M  V30 24 2 24 25
M  V30 25 1 24 26
M  V30 26 1 26 27
M  V30 27 1 27 28
M  V30 28 1 28 29
M  V30 29 2 29 30
M  V30 30 1 30 31
M  V30 31 2 31 32
M  V30 32 1 32 33
M  V30 33 1 32 34
M  V30 34 2 34 35
M  V30 35 1 11 36
M  V30 36 2 36 37
M  V30 37 1 3 38
M  V30 38 2 38 39
M  V30 39 1 39 40
M  V30 40 1 40 41
M  V30 41 2 41 42
M  V30 42 1 42 43
M  V30 43 2 43 44
M  V30 44 1 44 45
M  V30 45 2 45 46
M  V30 46 1 40 2
M  V30 47 1 46 41
M  V30 48 1 37 8
M  V30 49 1 23 18
M  V30 50 1 35 29
M  V30 51 1 1 47
M  V30 52 1 1 48
M  V30 53 1 6 49
M  V30 54 1 7 50
M  V30 55 1 7 51
M  V30 56 1 9 52
M  V30 57 1 10 53
M  V30 58 1 14 54
M  V30 59 1 15 55 CFG=3
M  V30 60 1 16 56
M  V30 61 1 16 57
M  V30 62 1 17 58
M  V30 63 1 17 59
M  V30 64 1 18 60
M  V30 65 1 19 61
M  V30 66 1 19 62
M  V30 67 1 20 63
M  V30 68 1 20 64
M  V30 69 1 21 65
M  V30 70 1 21 66
M  V30 71 1 22 67
M  V30 72 1 22 68
M  V30 73 1 23 69
M  V30 74 1 23 70
M  V30 75 1 26 71
M  V30 76 1 27 72
M  V30 77 1 27 73
M  V30 78 1 28 74
M  V30 79 1 28 75
M  V30 80 1 30 76
M  V30 81 1 31 77
M  V30 82 1 34 78
M  V30 83 1 35 79
M  V30 84 1 36 80
M  V30 85 1 37 81
M  V30 86 1 38 82
M  V30 87 1 42 83
M  V30 88 1 43 84
M  V30 89 1 44 85
M  V30 90 1 45 86
M  V30 91 1 46 87
M  V30 END BOND
M  V30 END CTAB
M  END
>  <Dataset>  (768) 
ChEMBL_Kinases

>  <Ligand_Instance>  (768) 
nan

>  <PDB_ID>  (768) 
nan

>  <Standardized_SMILES>  (768) 
Nc1c(C(=O)NCc2ccc(C(=O)N[C@@H](CCC3CCCCC3)C(=O)NCCc3ccc(Cl)cc3)cc2)cnn1-c1ccccc1

>  <Name>  (768) 
nan

>  <Pocket>  (768) 
nan

>  <ATP_Site>  (768) 
nan

>  <Peripheral>  (768) 
nan

>  <Num_H_Atoms_ProtBoundConf>  (768) 
nan

>  <Num_Resolved_Atoms>  (768) 
nan

>  <Num_Not_Resolved_Atoms>  (768) 
nan

$$$$
CHEMBL4764182
     RDKit          3D

  0  0  0  0  0  0  0  0  0  0999 V3000
M  V30 BEGIN CTAB
M  V30 COUNTS 52 55 0 0 0
M  V30 BEGIN ATOM
M  V30 1 C 5.378428 0.011378 8.641757 0
M  V30 2 O 5.325858 1.043397 7.729486 0
M  V30 3 C 4.671598 0.531941 6.584011 0
M  V30 4 C 4.551364 1.563373 5.513280 0
M  V30 5 N 3.877129 0.994557 4.372953 0
M  V30 6 C 4.243689 -0.081887 3.558769 0
M  V30 7 O 5.354834 -0.535345 3.991095 0
M  V30 8 C 3.662411 -0.729346 2.419050 0
M  V30 9 N 4.362200 -1.767980 1.901775 0
M  V30 10 N 3.692402 -2.259477 0.853011 0
M  V30 11 C 2.547245 -1.600809 0.617754 0
M  V30 12 C 1.505191 -1.660464 -0.280916 0
M  V30 13 C 0.458560 -0.764280 -0.189872 0
M  V30 14 C -0.659789 -0.801881 -1.126828 0
M  V30 15 C -1.891530 -0.680847 -0.479232 0
M  V30 16 C -3.100851 -0.690245 -1.169085 0
M  V30 17 C -2.988626 -0.829460 -2.553289 0
M  V30 18 N -4.218595 -0.841980 -3.285457 0
M  V30 19 C -4.763714 0.355564 -3.640848 0
M  V30 20 C -5.962103 0.280021 -4.352595 0
M  V30 21 C -6.567288 -0.916517 -4.682279 0
M  V30 22 C -5.929435 -2.079322 -4.272552 0
M  V30 23 C -6.605175 -3.355273 -4.642227 0
M  V30 24 C -4.744989 -2.042146 -3.568123 0
M  V30 25 O -4.194118 -3.105346 -3.212752 0
M  V30 26 C -1.798962 -0.948472 -3.200613 0
M  V30 27 C -0.612571 -0.936530 -2.495711 0
M  V30 28 Cl 0.990690 -1.078505 -3.177637 0
M  V30 29 C 0.500264 0.175610 0.820435 0
M  V30 30 C 1.532798 0.254707 1.731655 0
M  V30 31 C 2.556180 -0.650480 1.612546 0
M  V30 32 H 5.937512 -0.863801 8.249171 0
M  V30 33 H 5.796649 0.296692 9.615591 0
M  V30 34 H 4.348744 -0.386111 8.873921 0
M  V30 35 H 3.684279 0.177700 6.946032 0
M  V30 36 H 5.279462 -0.320025 6.262335 0
M  V30 37 H 5.604659 1.769723 5.150741 0
M  V30 38 H 4.059297 2.481401 5.848629 0
M  V30 39 H 2.981091 1.442705 4.103880 0
M  V30 40 H 4.034760 -3.073475 0.282024 0
M  V30 41 H 1.538786 -2.416148 -1.039325 0
M  V30 42 H -2.017693 -0.569668 0.608292 0
M  V30 43 H -4.050964 -0.597084 -0.671659 0
M  V30 44 H -4.293811 1.286539 -3.384906 0
M  V30 45 H -6.376260 1.239952 -4.623893 0
M  V30 46 H -7.508267 -0.922770 -5.242512 0
M  V30 47 H -7.517179 -3.475486 -4.010488 0
M  V30 48 H -6.818040 -3.414076 -5.723871 0
M  V30 49 H -5.965556 -4.232954 -4.382659 0
M  V30 50 H -1.706944 -1.056576 -4.273086 0
M  V30 51 H -0.338038 0.879925 0.879349 0
M  V30 52 H 1.518759 1.003038 2.498564 0
M  V30 END ATOM
M  V30 BEGIN BOND
M  V30 1 1 1 2
M  V30 2 1 2 3
M  V30 3 1 3 4
M  V30 4 1 4 5
M  V30 5 1 5 6
M  V30 6 2 6 7
M  V30 7 1 6 8
M  V30 8 2 8 9
M  V30 9 1 9 10
M  V30 10 1 10 11
M  V30 11 2 11 12
M  V30 12 1 12 13
M  V30 13 1 13 14
M  V30 14 2 14 15
M  V30 15 1 15 16
M  V30 16 2 16 17
M  V30 17 1 17 18
M  V30 18 1 18 19
M  V30 19 2 19 20
M  V30 20 1 20 21
M  V30 21 2 21 22
M  V30 22 1 22 23
M  V30 23 1 22 24
M  V30 24 2 24 25
M  V30 25 1 17 26
M  V30 26 2 26 27
M  V30 27 1 27 28
M  V30 28 2 13 29
M  V30 29 1 29 30
M  V30 30 2 30 31
M  V30 31 1 31 8
M  V30 32 1 31 11
M  V30 33 1 27 14
M  V30 34 1 24 18
M  V30 35 1 1 32
M  V30 36 1 1 33
M  V30 37 1 1 34
M  V30 38 1 3 35
M  V30 39 1 3 36
M  V30 40 1 4 37
M  V30 41 1 4 38
M  V30 42 1 5 39
M  V30 43 1 10 40
M  V30 44 1 12 41
M  V30 45 1 15 42
M  V30 46 1 16 43
M  V30 47 1 19 44
M  V30 48 1 20 45
M  V30 49 1 21 46
M  V30 50 1 23 47
M  V30 51 1 23 48
M  V30 52 1 23 49
M  V30 53 1 26 50
M  V30 54 1 29 51
M  V30 55 1 30 52
M  V30 END BOND
M  V30 END CTAB
M  END
>  <Dataset>  (769) 
ChEMBL_Kinases

>  <Ligand_Instance>  (769) 
nan

>  <PDB_ID>  (769) 
nan

>  <Standardized_SMILES>  (769) 
COCCNC(=O)c1n[nH]c2cc(-c3ccc(-n4cccc(C)c4=O)cc3Cl)ccc12

>  <Name>  (769) 
nan

>  <Pocket>  (769) 
nan

>  <ATP_Site>  (769) 
nan

>  <Peripheral>  (769) 
nan

>  <Num_H_Atoms_ProtBoundConf>  (769) 
nan

>  <Num_Resolved_Atoms>  (769) 
nan

>  <Num_Not_Resolved_Atoms>  (769) 
nan

$$$$
CHEMBL424719
     RDKit          3D

  0  0  0  0  0  0  0  0  0  0999 V3000
M  V30 BEGIN CTAB
M  V30 COUNTS 53 56 0 0 0
M  V30 BEGIN ATOM
M  V30 1 C 5.931796 -3.169510 6.875775 0
M  V30 2 N 4.585722 -2.722593 6.503252 0
M  V30 3 C 4.090699 -2.129967 5.309378 0
M  V30 4 N 4.024246 -0.798808 5.026447 0
M  V30 5 C 3.526203 -0.391541 3.843550 0
M  V30 6 C 3.077384 -1.284152 2.900986 0
M  V30 7 C 2.554722 -0.909012 1.664400 0
M  V30 8 C 2.114500 -1.870765 0.748017 0
M  V30 9 C 1.612334 -1.232350 -0.463254 0
M  V30 10 C 0.755755 -0.147747 -0.390899 0
M  V30 11 C 0.248281 0.493401 -1.501515 0
M  V30 12 N -0.637513 1.614732 -1.414369 0
M  V30 13 C -2.005817 1.285957 -1.377657 0
M  V30 14 O -2.259469 0.072624 -1.425460 0
M  V30 15 N -3.058587 2.199419 -1.294128 0
M  V30 16 C -4.459729 1.996117 -1.250201 0
M  V30 17 C -5.304871 3.066107 -1.167733 0
M  V30 18 C -6.674215 2.927899 -1.121882 0
M  V30 19 C -7.277137 1.693986 -1.156701 0
M  V30 20 C -6.461763 0.609486 -1.238715 0
M  V30 21 C -7.071685 -0.750974 -1.279047 0
M  V30 22 F -8.146775 -0.701040 -0.392181 0
M  V30 23 F -7.485200 -0.955602 -2.580737 0
M  V30 24 F -6.209602 -1.717282 -0.844704 0
M  V30 25 C -5.095441 0.780338 -1.282925 0
M  V30 26 C 0.590342 0.058785 -2.764726 0
M  V30 27 C 1.442177 -1.019783 -2.878181 0
M  V30 28 C 1.927550 -1.632880 -1.744644 0
M  V30 29 C 2.843380 -2.788703 -1.927665 0
M  V30 30 C 2.200989 -3.207117 1.077665 0
M  V30 31 C 2.714502 -3.587704 2.293665 0
M  V30 32 C 3.151747 -2.627155 3.203219 0
M  V30 33 N 3.657491 -3.025037 4.402869 0
M  V30 34 H 6.614293 -2.890323 6.067329 0
M  V30 35 H 6.225870 -2.786232 7.871600 0
M  V30 36 H 5.876744 -4.292613 6.893927 0
M  V30 37 H 3.776944 -2.815568 7.171635 0
M  V30 38 H 3.477304 0.661246 3.628127 0
M  V30 39 H 2.543904 0.165225 1.534366 0
M  V30 40 H 0.471003 0.213909 0.590282 0
M  V30 41 H -0.360576 2.640850 -1.376279 0
M  V30 42 H -2.704778 3.194009 -1.260487 0
M  V30 43 H -4.871296 4.077866 -1.136910 0
M  V30 44 H -7.254900 3.838909 -1.056981 0
M  V30 45 H -8.347220 1.592139 -1.120574 0
M  V30 46 H -4.522436 -0.127466 -1.347359 0
M  V30 47 H 0.200401 0.551411 -3.633905 0
M  V30 48 H 1.717049 -1.368941 -3.863347 0
M  V30 49 H 2.309943 -3.753170 -2.052562 0
M  V30 50 H 3.398229 -2.655106 -2.896760 0
M  V30 51 H 3.548290 -2.899043 -1.078816 0
M  V30 52 H 1.830277 -3.850886 0.292761 0
M  V30 53 H 2.755004 -4.639325 2.489655 0
M  V30 END ATOM
M  V30 BEGIN BOND
M  V30 1 1 1 2
M  V30 2 1 2 3
M  V30 3 2 3 4
M  V30 4 1 4 5
M  V30 5 2 5 6
M  V30 6 1 6 7
M  V30 7 2 7 8
M  V30 8 1 8 9
M  V30 9 2 9 10
M  V30 10 1 10 11
M  V30 11 1 11 12
M  V30 12 1 12 13
M  V30 13 2 13 14
M  V30 14 1 13 15
M  V30 15 1 15 16
M  V30 16 2 16 17
M  V30 17 1 17 18
M  V30 18 2 18 19
M  V30 19 1 19 20
M  V30 20 1 20 21
M  V30 21 1 21 22
M  V30 22 1 21 23
M  V30 23 1 21 24
M  V30 24 2 20 25
M  V30 25 2 11 26
M  V30 26 1 26 27
M  V30 27 2 27 28
M  V30 28 1 28 29
M  V30 29 1 8 30
M  V30 30 2 30 31
M  V30 31 1 31 32
M  V30 32 2 32 33
M  V30 33 1 33 3
M  V30 34 1 32 6
M  V30 35 1 28 9
M  V30 36 1 25 16
M  V30 37 1 1 34
M  V30 38 1 1 35
M  V30 39 1 1 36
M  V30 40 1 2 37
M  V30 41 1 5 38
M  V30 42 1 7 39
M  V30 43 1 10 40
M  V30 44 1 12 41
M  V30 45 1 15 42
M  V30 46 1 17 43
M  V30 47 1 18 44
M  V30 48 1 19 45
M  V30 49 1 25 46
M  V30 50 1 26 47
M  V30 51 1 27 48
M  V30 52 1 29 49
M  V30 53 1 29 50
M  V30 54 1 29 51
M  V30 55 1 30 52
M  V30 56 1 31 53
M  V30 END BOND
M  V30 END CTAB
M  END
>  <Dataset>  (770) 
ChEMBL_Kinases

>  <Ligand_Instance>  (770) 
nan

>  <PDB_ID>  (770) 
nan

>  <Standardized_SMILES>  (770) 
CNc1ncc2cc(-c3cc(NC(=O)Nc4cccc(C(F)(F)F)c4)ccc3C)ccc2n1

>  <Name>  (770) 
nan

>  <Pocket>  (770) 
nan

>  <ATP_Site>  (770) 
nan

>  <Peripheral>  (770) 
nan

>  <Num_H_Atoms_ProtBoundConf>  (770) 
nan

>  <Num_Resolved_Atoms>  (770) 
nan

>  <Num_Not_Resolved_Atoms>  (770) 
nan

$$$$
CHEMBL4764210
     RDKit          3D

  0  0  0  0  0  0  0  0  0  0999 V3000
M  V30 BEGIN CTAB
M  V30 COUNTS 56 59 0 0 0
M  V30 BEGIN ATOM
M  V30 1 C -1.145580 1.062829 3.988550 0
M  V30 2 C -0.176335 1.787988 3.128722 0
M  V30 3 C -0.127275 3.185778 3.210017 0
M  V30 4 C 0.748644 3.977719 2.455671 0
M  V30 5 C 1.610653 3.344560 1.583648 0
M  V30 6 C 2.551122 4.142049 0.796389 0
M  V30 7 O 2.550121 5.368472 1.071666 0
M  V30 8 N 3.398105 3.583451 -0.195002 0
M  V30 9 C 4.356929 4.312739 -1.000778 0
M  V30 10 C 5.623314 3.512595 -1.314002 0
M  V30 11 C 4.644673 3.892005 -2.393396 0
M  V30 12 C 1.547853 1.964132 1.515790 0
M  V30 13 C 0.694008 1.160722 2.249819 0
M  V30 14 N 0.692862 -0.249080 2.156526 0
M  V30 15 C 1.517257 -1.154362 2.698046 0
M  V30 16 C 1.178607 -2.443749 2.380211 0
M  V30 17 N 0.125868 -2.736192 1.605503 0
M  V30 18 C -0.797868 -1.863937 0.990421 0
M  V30 19 N -1.389957 -3.058444 0.496177 0
M  V30 20 C -2.521899 -2.566038 -0.227735 0
M  V30 21 C -3.331409 -3.614949 -0.963750 0
M  V30 22 C -3.909141 -4.676819 -0.113968 0
M  V30 23 C -3.274132 -6.015982 -0.148475 0
M  V30 24 C -2.685475 -6.458854 -1.435302 0
M  V30 25 C -2.896861 -5.503646 -2.569464 0
M  V30 26 C -2.580810 -4.079769 -2.186007 0
M  V30 27 C -0.259411 -0.777881 1.439879 0
M  V30 28 O -1.218537 -0.143123 0.783417 0
M  V30 29 H -1.702168 0.263446 3.441605 0
M  V30 30 H -0.644431 0.608452 4.874517 0
M  V30 31 H -1.885494 1.774071 4.395179 0
M  V30 32 H -0.816173 3.689374 3.906824 0
M  V30 33 H 0.711403 5.049314 2.590701 0
M  V30 34 H 3.327784 2.557814 -0.363989 0
M  V30 35 H 4.492752 5.357452 -0.744028 0
M  V30 36 H 5.608976 2.424806 -1.069669 0
M  V30 37 H 6.605197 3.986755 -1.253940 0
M  V30 38 H 5.036348 4.685370 -3.069116 0
M  V30 39 H 4.060627 3.105400 -2.888315 0
M  V30 40 H 2.196495 1.414810 0.850672 0
M  V30 41 H 2.299053 -0.718055 3.286696 0
M  V30 42 H 1.962693 -3.046838 2.911222 0
M  V30 43 H -1.434971 -4.060405 0.383935 0
M  V30 44 H -3.260503 -2.038127 0.424365 0
M  V30 45 H -2.164884 -1.874996 -1.048159 0
M  V30 46 H -4.204701 -3.023868 -1.387572 0
M  V30 47 H -5.009713 -4.759080 -0.284645 0
M  V30 48 H -3.821294 -4.317335 0.958847 0
M  V30 49 H -2.525395 -6.150227 0.672944 0
M  V30 50 H -4.087953 -6.756514 0.127593 0
M  V30 51 H -3.074438 -7.443953 -1.775120 0
M  V30 52 H -1.579429 -6.639223 -1.314215 0
M  V30 53 H -3.912061 -5.586443 -3.003728 0
M  V30 54 H -2.182237 -5.777591 -3.379169 0
M  V30 55 H -2.811557 -3.470762 -3.102146 0
M  V30 56 H -1.485750 -4.011725 -2.021016 0
M  V30 END ATOM
M  V30 BEGIN BOND
M  V30 1 1 1 2
M  V30 2 2 2 3
M  V30 3 1 3 4
M  V30 4 2 4 5
M  V30 5 1 5 6
M  V30 6 2 6 7
M  V30 7 1 6 8
M  V30 8 1 8 9
M  V30 9 1 9 10
M  V30 10 1 10 11
M  V30 11 1 5 12
M  V30 12 2 12 13
M  V30 13 1 13 14
M  V30 14 1 14 15
M  V30 15 2 15 16
M  V30 16 1 16 17
M  V30 17 2 17 18
M  V30 18 1 18 19
M  V30 19 1 19 20
M  V30 20 1 20 21
M  V30 21 1 21 22
M  V30 22 1 22 23
M  V30 23 1 23 24
M  V30 24 1 24 25
M  V30 25 1 25 26
M  V30 26 1 18 27
M  V30 27 2 27 28
M  V30 28 1 13 2
M  V30 29 1 27 14
M  V30 30 1 11 9
M  V30 31 1 26 21
M  V30 32 1 1 29
M  V30 33 1 1 30
M  V30 34 1 1 31
M  V30 35 1 3 32
M  V30 36 1 4 33
M  V30 37 1 8 34
M  V30 38 1 9 35
M  V30 39 1 10 36
M  V30 40 1 10 37
M  V30 41 1 11 38
M  V30 42 1 11 39
M  V30 43 1 12 40
M  V30 44 1 15 41
M  V30 45 1 16 42
M  V30 46 1 19 43
M  V30 47 1 20 44
M  V30 48 1 20 45
M  V30 49 1 21 46
M  V30 50 1 22 47
M  V30 51 1 22 48
M  V30 52 1 23 49
M  V30 53 1 23 50
M  V30 54 1 24 51
M  V30 55 1 24 52
M  V30 56 1 25 53
M  V30 57 1 25 54
M  V30 58 1 26 55
M  V30 59 1 26 56
M  V30 END BOND
M  V30 END CTAB
M  END
>  <Dataset>  (771) 
ChEMBL_Kinases

>  <Ligand_Instance>  (771) 
nan

>  <PDB_ID>  (771) 
nan

>  <Standardized_SMILES>  (771) 
Cc1ccc(C(=O)NC2CC2)cc1-n1ccnc(NCC2CCCCC2)c1=O

>  <Name>  (771) 
nan

>  <Pocket>  (771) 
nan

>  <ATP_Site>  (771) 
nan

>  <Peripheral>  (771) 
nan

>  <Num_H_Atoms_ProtBoundConf>  (771) 
nan

>  <Num_Resolved_Atoms>  (771) 
nan

>  <Num_Not_Resolved_Atoms>  (771) 
nan

$$$$
CHEMBL4764221
     RDKit          3D

  0  0  0  0  0  0  0  0  0  0999 V3000
M  V30 BEGIN CTAB
M  V30 COUNTS 61 65 0 0 0
M  V30 BEGIN ATOM
M  V30 1 C 3.993434 -4.079958 1.196623 0
M  V30 2 N 2.931946 -3.132374 1.476272 0
M  V30 3 C 1.830209 -3.061657 0.740424 0
M  V30 4 C 0.939505 -2.102550 1.159529 0
M  V30 5 C -0.362594 -1.539288 0.847204 0
M  V30 6 N -0.412716 -0.173969 0.841388 0
M  V30 7 C -1.526911 0.528613 0.615628 0
M  V30 8 C -1.715463 1.894788 0.581684 0
M  V30 9 C -0.774067 2.991456 0.777692 0
M  V30 10 C -0.828262 4.058181 -0.125383 0
M  V30 11 C 0.095574 5.082896 0.107347 0
M  V30 12 N 0.993098 5.083311 1.118895 0
M  V30 13 C 1.043676 4.047875 1.993194 0
M  V30 14 O 1.891384 3.889506 3.073830 0
M  V30 15 C 2.874246 4.849051 3.425041 0
M  V30 16 C 4.126846 4.477066 4.087358 0
M  V30 17 C 3.040672 5.171123 4.872985 0
M  V30 18 C 0.149991 3.014952 1.800924 0
M  V30 19 C -3.076631 2.023346 0.303960 0
M  V30 20 N -3.614940 0.783164 0.189783 0
M  V30 21 N -2.675952 -0.125516 0.378583 0
M  V30 22 C -2.651325 -1.467101 0.378619 0
M  V30 23 C -1.543990 -2.251838 0.601465 0
M  V30 24 O -1.469236 -3.603504 0.606056 0
M  V30 25 C -2.381900 -4.596076 0.431670 0
M  V30 26 C -3.195136 -4.788774 -0.757641 0
M  V30 27 C -2.671342 -5.113331 -2.092876 0
M  V30 28 C -1.738038 -4.194567 -2.760078 0
M  V30 29 C -1.409711 -4.744386 -4.197651 0
M  V30 30 C -0.380425 -4.135045 -2.081457 0
M  V30 31 O -2.280937 -2.944855 -2.955501 0
M  V30 32 C 1.663281 -1.599641 2.260437 0
M  V30 33 N 2.837465 -2.233387 2.416972 0
M  V30 34 H 4.981582 -3.691545 1.510463 0
M  V30 35 H 3.712247 -5.019978 1.719634 0
M  V30 36 H 4.029482 -4.322979 0.113745 0
M  V30 37 H 1.573998 -3.657344 -0.118687 0
M  V30 38 H -1.516759 4.129306 -0.957645 0
M  V30 39 H 0.105438 5.937800 -0.556205 0
M  V30 40 H 2.893487 5.739350 2.748900 0
M  V30 41 H 5.050814 5.061357 3.891696 0
M  V30 42 H 4.363393 3.428674 4.373254 0
M  V30 43 H 3.258636 6.209102 5.197316 0
M  V30 44 H 2.485234 4.585047 5.642493 0
M  V30 45 H 0.106504 2.145464 2.438517 0
M  V30 46 H -3.623845 2.951235 0.195368 0
M  V30 47 H -3.583739 -1.931092 0.192366 0
M  V30 48 H -3.007805 -4.640593 1.388367 0
M  V30 49 H -1.784787 -5.581864 0.564420 0
M  V30 50 H -3.995356 -3.970076 -0.871700 0
M  V30 51 H -3.919975 -5.662224 -0.467877 0
M  V30 52 H -2.187193 -6.157492 -2.011870 0
M  V30 53 H -3.543425 -5.263965 -2.831242 0
M  V30 54 H -0.640078 -5.520515 -4.102000 0
M  V30 55 H -2.321904 -5.071516 -4.695161 0
M  V30 56 H -0.959430 -3.895269 -4.752874 0
M  V30 57 H 0.410781 -4.366503 -2.867053 0
M  V30 58 H -0.151372 -3.142735 -1.698469 0
M  V30 59 H -0.241985 -4.932368 -1.329021 0
M  V30 60 H -1.688167 -2.218037 -2.596170 0
M  V30 61 H 1.464659 -0.809366 3.001893 0
M  V30 END ATOM
M  V30 BEGIN BOND
M  V30 1 1 1 2
M  V30 2 1 2 3
M  V30 3 2 3 4
M  V30 4 1 4 5
M  V30 5 2 5 6
M  V30 6 1 6 7
M  V30 7 2 7 8
M  V30 8 1 8 9
M  V30 9 2 9 10
M  V30 10 1 10 11
M  V30 11 2 11 12
M  V30 12 1 12 13
M  V30 13 1 13 14
M  V30 14 1 14 15
M  V30 15 1 15 16
M  V30 16 1 16 17
M  V30 17 2 13 18
M  V30 18 1 8 19
M  V30 19 2 19 20
M  V30 20 1 20 21
M  V30 21 1 21 22
M  V30 22 2 22 23
M  V30 23 1 23 24
M  V30 24 1 24 25
M  V30 25 1 25 26
M  V30 26 1 26 27
M  V30 27 1 27 28
M  V30 28 1 28 29
M  V30 29 1 28 30
M  V30 30 1 28 31
M  V30 31 1 4 32
M  V30 32 2 32 33
M  V30 33 1 33 2
M  V30 34 1 23 5
M  V30 35 1 21 7
M  V30 36 1 18 9
M  V30 37 1 17 15
M  V30 38 1 1 34
M  V30 39 1 1 35
M  V30 40 1 1 36
M  V30 41 1 3 37
M  V30 42 1 10 38
M  V30 43 1 11 39
M  V30 44 1 15 40
M  V30 45 1 16 41
M  V30 46 1 16 42
M  V30 47 1 17 43
M  V30 48 1 17 44
M  V30 49 1 18 45
M  V30 50 1 19 46
M  V30 51 1 22 47
M  V30 52 1 25 48
M  V30 53 1 25 49
M  V30 54 1 26 50
M  V30 55 1 26 51
M  V30 56 1 27 52
M  V30 57 1 27 53
M  V30 58 1 29 54
M  V30 59 1 29 55
M  V30 60 1 29 56
M  V30 61 1 30 57
M  V30 62 1 30 58
M  V30 63 1 30 59
M  V30 64 1 31 60
M  V30 65 1 32 61
M  V30 END BOND
M  V30 END CTAB
M  END
>  <Dataset>  (772) 
ChEMBL_Kinases

>  <Ligand_Instance>  (772) 
nan

>  <PDB_ID>  (772) 
nan

>  <Standardized_SMILES>  (772) 
Cn1cc(-c2nc3c(-c4ccnc(OC5CC5)c4)cnn3cc2OCCCC(C)(C)O)cn1

>  <Name>  (772) 
nan

>  <Pocket>  (772) 
nan

>  <ATP_Site>  (772) 
nan

>  <Peripheral>  (772) 
nan

>  <Num_H_Atoms_ProtBoundConf>  (772) 
nan

>  <Num_Resolved_Atoms>  (772) 
nan

>  <Num_Not_Resolved_Atoms>  (772) 
nan

$$$$
CHEMBL4247161
     RDKit          3D

  0  0  0  0  0  0  0  0  0  0999 V3000
M  V30 BEGIN CTAB
M  V30 COUNTS 46 48 0 0 0
M  V30 BEGIN ATOM
M  V30 1 C 0.954562 -4.010680 -2.228188 0
M  V30 2 N 0.100413 -3.673835 -1.057443 0
M  V30 3 C -1.238690 -3.383864 -1.580648 0
M  V30 4 C 0.684344 -2.555119 -0.362262 0
M  V30 5 C 0.117309 -2.196565 0.950923 0 CFG=1
M  V30 6 N 0.826872 -1.037001 1.531367 0
M  V30 7 C 1.045242 0.238925 0.890151 0
M  V30 8 N 0.635464 0.535737 -0.349675 0
M  V30 9 N 0.815624 1.671677 -0.984050 0
M  V30 10 N 1.467102 2.680085 -0.390368 0
M  V30 11 C 1.905719 2.449870 0.855099 0
M  V30 12 C 2.583213 3.448707 1.518707 0
M  V30 13 C 2.781494 4.701757 0.809405 0
M  V30 14 N 3.445959 5.864369 1.272511 0
M  V30 15 O 2.508683 5.209501 -0.302514 0
M  V30 16 C 3.097353 3.379518 2.793287 0
M  V30 17 C 2.872395 2.144050 3.414345 0
M  V30 18 C 2.199424 1.115898 2.788532 0
M  V30 19 C 1.719843 1.260005 1.526136 0
M  V30 20 C -1.316795 -2.123025 1.143474 0
M  V30 21 C -2.171131 -1.028080 1.077924 0
M  V30 22 C -3.513792 -1.030044 1.280081 0
M  V30 23 C -4.145702 -2.234066 1.588470 0
M  V30 24 Cl -5.871743 -2.272488 1.854435 0
M  V30 25 C -3.373961 -3.368946 1.673242 0
M  V30 26 C -4.030359 -4.603427 1.990431 0
M  V30 27 N -4.563138 -5.606070 2.229011 0
M  V30 28 C -2.020313 -3.275685 1.453417 0
M  V30 29 H 1.979318 -4.033115 -1.820500 0
M  V30 30 H 0.670730 -4.992931 -2.651510 0
M  V30 31 H 0.896732 -3.227601 -2.985537 0
M  V30 32 H -1.216724 -3.391219 -2.704563 0
M  V30 33 H -1.948795 -4.145456 -1.243610 0
M  V30 34 H -1.521401 -2.381323 -1.291722 0
M  V30 35 H 1.769872 -2.847825 -0.214093 0
M  V30 36 H 0.765035 -1.662702 -1.056234 0
M  V30 37 H 0.451912 -3.036431 1.694506 0
M  V30 38 H 1.203284 -1.144580 2.494987 0
M  V30 39 H 3.455193 6.770711 1.775283 0
M  V30 40 H 3.225255 6.739685 1.822788 0
M  V30 41 H 3.620097 4.191488 3.268218 0
M  V30 42 H 3.264838 2.044616 4.432386 0
M  V30 43 H 2.100917 0.236352 3.372341 0
M  V30 44 H -1.739177 -0.088785 0.851103 0
M  V30 45 H -4.106128 -0.138289 1.211743 0
M  V30 46 H -1.498053 -4.240265 1.546516 0
M  V30 END ATOM
M  V30 BEGIN BOND
M  V30 1 1 1 2
M  V30 2 1 2 3
M  V30 3 1 2 4
M  V30 4 1 4 5
M  V30 5 1 5 6
M  V30 6 1 6 7
M  V30 7 2 7 8
M  V30 8 1 8 9
M  V30 9 2 9 10
M  V30 10 1 10 11
M  V30 11 2 11 12
M  V30 12 1 12 13
M  V30 13 1 13 14
M  V30 14 2 13 15
M  V30 15 1 12 16
M  V30 16 2 16 17
M  V30 17 1 17 18
M  V30 18 2 18 19
M  V30 19 1 5 20
M  V30 20 2 20 21
M  V30 21 1 21 22
M  V30 22 2 22 23
M  V30 23 1 23 24
M  V30 24 1 23 25
M  V30 25 1 25 26
M  V30 26 3 26 27
M  V30 27 2 25 28
M  V30 28 1 19 7
M  V30 29 1 28 20
M  V30 30 1 19 11
M  V30 31 1 1 29
M  V30 32 1 1 30
M  V30 33 1 1 31
M  V30 34 1 3 32
M  V30 35 1 3 33
M  V30 36 1 3 34
M  V30 37 1 4 35
M  V30 38 1 4 36
M  V30 39 1 5 37 CFG=1
M  V30 40 1 6 38
M  V30 41 1 14 39
M  V30 42 1 14 40
M  V30 43 1 16 41
M  V30 44 1 17 42
M  V30 45 1 18 43
M  V30 46 1 21 44
M  V30 47 1 22 45
M  V30 48 1 28 46
M  V30 END BOND
M  V30 END CTAB
M  END
>  <Dataset>  (773) 
ChEMBL_Kinases

>  <Ligand_Instance>  (773) 
nan

>  <PDB_ID>  (773) 
nan

>  <Standardized_SMILES>  (773) 
CN(C)C[C@@H](Nc1nnnc2c(C(N)=O)cccc12)c1ccc(Cl)c(C#N)c1

>  <Name>  (773) 
nan

>  <Pocket>  (773) 
nan

>  <ATP_Site>  (773) 
nan

>  <Peripheral>  (773) 
nan

>  <Num_H_Atoms_ProtBoundConf>  (773) 
nan

>  <Num_Resolved_Atoms>  (773) 
nan

>  <Num_Not_Resolved_Atoms>  (773) 
nan

$$$$
CHEMBL4247121
     RDKit          3D

  0  0  0  0  0  0  0  0  0  0999 V3000
M  V30 BEGIN CTAB
M  V30 COUNTS 66 69 0 0 0
M  V30 BEGIN ATOM
M  V30 1 C 2.522268 0.675540 5.079745 0
M  V30 2 C 1.088165 1.001387 5.437377 0
M  V30 3 O 0.168498 0.721569 4.415791 0
M  V30 4 C 0.125411 1.238649 3.154318 0
M  V30 5 C 1.009935 2.171590 2.613331 0
M  V30 6 C 0.844775 2.619178 1.293099 0
M  V30 7 C 1.796958 3.583909 0.785140 0
M  V30 8 N 2.044762 4.732952 1.441699 0
M  V30 9 N 2.954994 5.457801 0.787207 0
M  V30 10 C 3.302733 4.748681 -0.327152 0
M  V30 11 C 4.299384 5.192853 -1.349832 0
M  V30 12 N 2.588796 3.622132 -0.303434 0
M  V30 13 C 2.645699 2.591526 -1.287669 0
M  V30 14 C -0.216718 2.089049 0.597922 0
M  V30 15 C -1.111546 1.167577 1.095020 0
M  V30 16 C -0.939096 0.733161 2.394963 0
M  V30 17 N -1.867871 -0.249920 2.895488 0
M  V30 18 C -2.928774 -0.709342 2.060752 0
M  V30 19 N -4.241549 -0.424383 1.985568 0
M  V30 20 C -5.016573 -1.026872 1.038025 0
M  V30 21 C -4.535879 -1.927589 0.131411 0
M  V30 22 C -5.333291 -2.517357 -0.823352 0
M  V30 23 C -4.688328 -3.411279 -1.685305 0
M  V30 24 C -5.580046 -4.018692 -2.701383 0
M  V30 25 N -3.373142 -3.682380 -1.593825 0
M  V30 26 C -2.583758 -3.111031 -0.663188 0
M  V30 27 N -1.184085 -3.374788 -0.544927 0
M  V30 28 C -0.453117 -4.293438 -1.416299 0
M  V30 29 C 0.993833 -4.283887 -0.980082 0
M  V30 30 C 1.039954 -4.744460 0.460482 0
M  V30 31 C 1.467415 -2.835010 -1.094381 0
M  V30 32 C 1.892704 -5.139417 -1.805848 0
M  V30 33 C -3.189753 -2.205808 0.225233 0
M  V30 34 N -2.428273 -1.594976 1.179171 0
M  V30 35 H 3.222620 1.516774 5.265980 0
M  V30 36 H 2.576969 0.348730 4.005826 0
M  V30 37 H 2.927253 -0.185296 5.667588 0
M  V30 38 H 1.039301 2.100732 5.599206 0
M  V30 39 H 0.855561 0.527309 6.388279 0
M  V30 40 H 1.795072 2.512430 3.241064 0
M  V30 41 H 4.787770 6.137454 -1.039241 0
M  V30 42 H 5.046080 4.389282 -1.470092 0
M  V30 43 H 3.783569 5.274196 -2.320661 0
M  V30 44 H 1.748644 1.995471 -1.423648 0
M  V30 45 H 2.843947 3.082673 -2.269959 0
M  V30 46 H 3.478293 1.866742 -1.092667 0
M  V30 47 H -0.372519 2.409337 -0.413976 0
M  V30 48 H -1.936898 0.780521 0.499443 0
M  V30 49 H -1.755983 -0.611358 3.855822 0
M  V30 50 H -6.050544 -0.735918 1.055141 0
M  V30 51 H -6.361211 -2.242966 -0.823596 0
M  V30 52 H -5.914472 -3.252674 -3.460617 0
M  V30 53 H -6.545337 -4.364115 -2.235800 0
M  V30 54 H -5.142049 -4.888485 -3.205502 0
M  V30 55 H -0.673920 -2.858566 0.227469 0
M  V30 56 H -0.468140 -4.007988 -2.472613 0
M  V30 57 H -0.853933 -5.342544 -1.345071 0
M  V30 58 H 1.047172 -3.817834 1.069692 0
M  V30 59 H 1.917059 -5.355191 0.709871 0
M  V30 60 H 0.093948 -5.281866 0.738708 0
M  V30 61 H 0.962637 -2.337094 -1.946119 0
M  V30 62 H 1.224028 -2.239499 -0.188383 0
M  V30 63 H 2.556220 -2.782142 -1.249289 0
M  V30 64 H 2.943014 -4.891126 -1.474753 0
M  V30 65 H 1.867336 -4.894618 -2.882292 0
M  V30 66 H 1.800811 -6.223600 -1.587636 0
M  V30 END ATOM
M  V30 BEGIN BOND
M  V30 1 1 1 2
M  V30 2 1 2 3
M  V30 3 1 3 4
M  V30 4 2 4 5
M  V30 5 1 5 6
M  V30 6 1 6 7
M  V30 7 2 7 8
M  V30 8 1 8 9
M  V30 9 2 9 10
M  V30 10 1 10 11
M  V30 11 1 10 12
M  V30 12 1 12 13
M  V30 13 2 6 14
M  V30 14 1 14 15
M  V30 15 2 15 16
M  V30 16 1 16 17
M  V30 17 1 17 18
M  V30 18 2 18 19
M  V30 19 1 19 20
M  V30 20 2 20 21
M  V30 21 1 21 22
M  V30 22 2 22 23
M  V30 23 1 23 24
M  V30 24 1 23 25
M  V30 25 2 25 26
M  V30 26 1 26 27
M  V30 27 1 27 28
M  V30 28 1 28 29
M  V30 29 1 29 30
M  V30 30 1 29 31
M  V30 31 1 29 32
M  V30 32 1 26 33
M  V30 33 2 33 34
M  V30 34 1 16 4
M  V30 35 1 34 18
M  V30 36 1 12 7
M  V30 37 1 33 21
M  V30 38 1 1 35
M  V30 39 1 1 36
M  V30 40 1 1 37
M  V30 41 1 2 38
M  V30 42 1 2 39
M  V30 43 1 5 40
M  V30 44 1 11 41
M  V30 45 1 11 42
M  V30 46 1 11 43
M  V30 47 1 13 44
M  V30 48 1 13 45
M  V30 49 1 13 46
M  V30 50 1 14 47
M  V30 51 1 15 48
M  V30 52 1 17 49
M  V30 53 1 20 50
M  V30 54 1 22 51
M  V30 55 1 24 52
M  V30 56 1 24 53
M  V30 57 1 24 54
M  V30 58 1 27 55
M  V30 59 1 28 56
M  V30 60 1 28 57
M  V30 61 1 30 58
M  V30 62 1 30 59
M  V30 63 1 30 60
M  V30 64 1 31 61
M  V30 65 1 31 62
M  V30 66 1 31 63
M  V30 67 1 32 64
M  V30 68 1 32 65
M  V30 69 1 32 66
M  V30 END BOND
M  V30 END CTAB
M  END
>  <Dataset>  (774) 
ChEMBL_Kinases

>  <Ligand_Instance>  (774) 
nan

>  <PDB_ID>  (774) 
nan

>  <Standardized_SMILES>  (774) 
CCOc1cc(-c2nnc(C)n2C)ccc1Nc1ncc2cc(C)nc(NCC(C)(C)C)c2n1

>  <Name>  (774) 
nan

>  <Pocket>  (774) 
nan

>  <ATP_Site>  (774) 
nan

>  <Peripheral>  (774) 
nan

>  <Num_H_Atoms_ProtBoundConf>  (774) 
nan

>  <Num_Resolved_Atoms>  (774) 
nan

>  <Num_Not_Resolved_Atoms>  (774) 
nan

$$$$
CHEMBL424677
     RDKit          3D

  0  0  0  0  0  0  0  0  0  0999 V3000
M  V30 BEGIN CTAB
M  V30 COUNTS 33 35 0 0 0
M  V30 BEGIN ATOM
M  V30 1 N -1.830641 -0.726794 1.707594 0
M  V30 2 C -0.770637 -0.341883 0.823519 0
M  V30 3 C 0.485294 -0.838050 0.547678 0
M  V30 4 C 0.955342 -2.025787 1.243631 0
M  V30 5 O 0.145816 -2.584153 2.059910 0
M  V30 6 C 2.230419 -2.717322 1.172435 0
M  V30 7 C 2.244156 -4.085498 1.429420 0
M  V30 8 C 3.437957 -4.816810 1.386493 0
M  V30 9 C 4.636152 -4.217394 1.091064 0
M  V30 10 C 4.652558 -2.874730 0.834664 0
M  V30 11 C 3.469368 -2.187752 0.884455 0
M  V30 12 C 1.049721 -0.030569 -0.411632 0
M  V30 13 N 0.151457 0.923504 -0.699653 0
M  V30 14 N -0.940412 0.755223 0.026190 0
M  V30 15 C -2.065544 1.620664 -0.067639 0
M  V30 16 C -2.803992 1.378609 -1.211345 0
M  V30 17 C -3.943685 2.117322 -1.490468 0
M  V30 18 C -4.314318 3.107052 -0.579919 0
M  V30 19 F -5.433965 3.852980 -0.827149 0
M  V30 20 C -3.567830 3.335790 0.554935 0
M  V30 21 C -2.438889 2.600827 0.827136 0
M  V30 22 H -1.774437 -0.170538 2.592062 0
M  V30 23 H -2.361645 -1.472860 1.188896 0
M  V30 24 H 1.396589 -4.684032 1.671506 0
M  V30 25 H 3.479541 -5.882322 1.581848 0
M  V30 26 H 5.556393 -4.768731 1.055477 0
M  V30 27 H 5.570248 -2.372852 0.600372 0
M  V30 28 H 3.512289 -1.128447 0.686443 0
M  V30 29 H 2.019849 -0.158940 -0.837324 0
M  V30 30 H -2.586195 0.629019 -1.970873 0
M  V30 31 H -4.564922 1.966819 -2.381655 0
M  V30 32 H -3.850818 4.104155 1.267104 0
M  V30 33 H -1.804241 2.711430 1.679932 0
M  V30 END ATOM
M  V30 BEGIN BOND
M  V30 1 1 1 2
M  V30 2 2 2 3
M  V30 3 1 3 4
M  V30 4 2 4 5
M  V30 5 1 4 6
M  V30 6 2 6 7
M  V30 7 1 7 8
M  V30 8 2 8 9
M  V30 9 1 9 10
M  V30 10 2 10 11
M  V30 11 1 3 12
M  V30 12 2 12 13
M  V30 13 1 13 14
M  V30 14 1 14 15
M  V30 15 2 15 16
M  V30 16 1 16 17
M  V30 17 2 17 18
M  V30 18 1 18 19
M  V30 19 1 18 20
M  V30 20 2 20 21
M  V30 21 1 14 2
M  V30 22 1 21 15
M  V30 23 1 11 6
M  V30 24 1 1 22
M  V30 25 1 1 23
M  V30 26 1 7 24
M  V30 27 1 8 25
M  V30 28 1 9 26
M  V30 29 1 10 27
M  V30 30 1 11 28
M  V30 31 1 12 29
M  V30 32 1 16 30
M  V30 33 1 17 31
M  V30 34 1 20 32
M  V30 35 1 21 33
M  V30 END BOND
M  V30 END CTAB
M  END
>  <Dataset>  (775) 
ChEMBL_Kinases

>  <Ligand_Instance>  (775) 
nan

>  <PDB_ID>  (775) 
nan

>  <Standardized_SMILES>  (775) 
Nc1c(C(=O)c2ccccc2)cnn1-c1ccc(F)cc1

>  <Name>  (775) 
nan

>  <Pocket>  (775) 
nan

>  <ATP_Site>  (775) 
nan

>  <Peripheral>  (775) 
nan

>  <Num_H_Atoms_ProtBoundConf>  (775) 
nan

>  <Num_Resolved_Atoms>  (775) 
nan

>  <Num_Not_Resolved_Atoms>  (775) 
nan

$$$$
CHEMBL424676
     RDKit          3D

  0  0  0  0  0  0  0  0  0  0999 V3000
M  V30 BEGIN CTAB
M  V30 COUNTS 52 55 0 0 0
M  V30 BEGIN ATOM
M  V30 1 C 0.818091 -3.855314 7.118812 0
M  V30 2 N 1.880462 -2.953893 6.741439 0
M  V30 3 C 2.169350 -2.095007 7.856105 0
M  V30 4 C 1.459021 -2.237517 5.551655 0
M  V30 5 C 2.478517 -1.271207 5.063566 0
M  V30 6 O 2.097212 -0.584347 3.941317 0
M  V30 7 C 1.778562 -0.934164 2.683529 0
M  V30 8 C 1.448357 0.220932 1.958122 0
M  V30 9 C 1.071831 0.173546 0.608457 0
M  V30 10 C 1.019618 -1.040291 -0.040556 0
M  V30 11 C 0.646929 -1.248230 -1.439858 0
M  V30 12 C 0.300856 -0.202925 -2.271290 0
M  V30 13 C -0.057887 -0.318642 -3.591833 0
M  V30 14 C -0.416649 0.826378 -4.427787 0
M  V30 15 C 0.156806 1.382834 -5.557139 0
M  V30 16 N -0.606582 2.438685 -5.906095 0
M  V30 17 N -1.615267 2.554652 -5.048449 0
M  V30 18 C -1.546772 1.583740 -4.113893 0
M  V30 19 C -2.567079 1.532320 -3.074514 0
M  V30 20 C -3.859126 1.346186 -3.579697 0
M  V30 21 C -4.918633 1.277858 -2.701065 0
M  V30 22 C -4.700223 1.391318 -1.356765 0
M  V30 23 C -3.408244 1.575528 -0.880264 0
M  V30 24 N -2.380080 1.641065 -1.746181 0
M  V30 25 C -0.080770 -1.577142 -4.154954 0
M  V30 26 C 0.265709 -2.617243 -3.319893 0
M  V30 27 N 0.611666 -2.465354 -2.030990 0
M  V30 28 C 1.339989 -2.187078 0.653024 0
M  V30 29 C 1.704564 -2.107945 1.971595 0
M  V30 30 H 1.183388 -4.501069 7.940540 0
M  V30 31 H 0.603861 -4.532402 6.262817 0
M  V30 32 H -0.123838 -3.313774 7.391394 0
M  V30 33 H 1.427188 -1.293513 8.020541 0
M  V30 34 H 2.200670 -2.750936 8.758521 0
M  V30 35 H 3.150230 -1.594693 7.820751 0
M  V30 36 H 0.533540 -1.681940 5.805906 0
M  V30 37 H 1.294074 -3.014543 4.787716 0
M  V30 38 H 2.785643 -0.523473 5.828510 0
M  V30 39 H 3.442790 -1.808743 4.821068 0
M  V30 40 H 1.435921 1.264760 2.314443 0
M  V30 41 H 0.812662 1.044622 0.024433 0
M  V30 42 H 0.290777 0.818128 -1.916965 0
M  V30 43 H 1.056233 0.911796 -5.942469 0
M  V30 44 H -0.348360 3.013825 -6.749336 0
M  V30 45 H -4.123438 1.246415 -4.633202 0
M  V30 46 H -5.942972 1.136635 -3.009259 0
M  V30 47 H -5.446259 1.354822 -0.557844 0
M  V30 48 H -3.185521 1.671386 0.190424 0
M  V30 49 H -0.348258 -1.783782 -5.185230 0
M  V30 50 H 0.279262 -3.660217 -3.671177 0
M  V30 51 H 1.322452 -3.182861 0.211809 0
M  V30 52 H 1.974070 -2.965726 2.563901 0
M  V30 END ATOM
M  V30 BEGIN BOND
M  V30 1 1 1 2
M  V30 2 1 2 3
M  V30 3 1 2 4
M  V30 4 1 4 5
M  V30 5 1 5 6
M  V30 6 1 6 7
M  V30 7 2 7 8
M  V30 8 1 8 9
M  V30 9 2 9 10
M  V30 10 1 10 11
M  V30 11 2 11 12
M  V30 12 1 12 13
M  V30 13 1 13 14
M  V30 14 2 14 15
M  V30 15 1 15 16
M  V30 16 1 16 17
M  V30 17 2 17 18
M  V30 18 1 18 19
M  V30 19 2 19 20
M  V30 20 1 20 21
M  V30 21 2 21 22
M  V30 22 1 22 23
M  V30 23 2 23 24
M  V30 24 2 13 25
M  V30 25 1 25 26
M  V30 26 2 26 27
M  V30 27 1 10 28
M  V30 28 2 28 29
M  V30 29 1 29 7
M  V30 30 1 27 11
M  V30 31 1 18 14
M  V30 32 1 24 19
M  V30 33 1 1 30
M  V30 34 1 1 31
M  V30 35 1 1 32
M  V30 36 1 3 33
M  V30 37 1 3 34
M  V30 38 1 3 35
M  V30 39 1 4 36
M  V30 40 1 4 37
M  V30 41 1 5 38
M  V30 42 1 5 39
M  V30 43 1 8 40
M  V30 44 1 9 41
M  V30 45 1 12 42
M  V30 46 1 15 43
M  V30 47 1 16 44
M  V30 48 1 20 45
M  V30 49 1 21 46
M  V30 50 1 22 47
M  V30 51 1 23 48
M  V30 52 1 25 49
M  V30 53 1 26 50
M  V30 54 1 28 51
M  V30 55 1 29 52
M  V30 END BOND
M  V30 END CTAB
M  END
>  <Dataset>  (776) 
ChEMBL_Kinases

>  <Ligand_Instance>  (776) 
nan

>  <PDB_ID>  (776) 
nan

>  <Standardized_SMILES>  (776) 
CN(C)CCOc1ccc(-c2cc(-c3c[nH]nc3-c3ccccn3)ccn2)cc1

>  <Name>  (776) 
nan

>  <Pocket>  (776) 
nan

>  <ATP_Site>  (776) 
nan

>  <Peripheral>  (776) 
nan

>  <Num_H_Atoms_ProtBoundConf>  (776) 
nan

>  <Num_Resolved_Atoms>  (776) 
nan

>  <Num_Not_Resolved_Atoms>  (776) 
nan

$$$$
CHEMBL4246697
     RDKit          3D

  0  0  0  0  0  0  0  0  0  0999 V3000
M  V30 BEGIN CTAB
M  V30 COUNTS 49 51 0 0 0
M  V30 BEGIN ATOM
M  V30 1 C -1.602749 -4.615695 -0.210182 0
M  V30 2 O -1.427356 -4.423077 -1.593321 0
M  V30 3 C -0.920138 -3.280568 -2.182486 0
M  V30 4 C -0.549910 -2.236739 -1.370504 0
M  V30 5 C -0.028937 -1.034075 -1.771736 0
M  V30 6 C 0.395623 0.173526 -1.055155 0 CFG=1
M  V30 7 C -0.855942 1.029248 -0.873398 0
M  V30 8 N -0.528244 2.265836 -0.161783 0
M  V30 9 C -1.748661 3.023173 -0.023054 0
M  V30 10 C 0.410293 3.059311 -0.918979 0
M  V30 11 N 1.050078 -0.068780 0.197609 0
M  V30 12 C 0.442409 -0.409336 1.446026 0
M  V30 13 N -0.890756 -0.513613 1.613291 0
M  V30 14 N -1.476637 -0.804042 2.760538 0
M  V30 15 N -0.709066 -1.012725 3.844098 0
M  V30 16 C 0.609709 -0.914248 3.698840 0
M  V30 17 C 1.342037 -1.136079 4.832018 0
M  V30 18 C 0.913143 -1.469803 6.183708 0
M  V30 19 N -0.545679 -1.510542 6.184372 0
M  V30 20 O 0.494492 -1.745680 7.292879 0
M  V30 21 C 2.742035 -1.070210 4.849226 0
M  V30 22 C 3.418015 -0.765392 3.658648 0
M  V30 23 C 2.601633 -0.558839 2.573692 0
M  V30 24 C 1.252526 -0.618190 2.539581 0
M  V30 25 C 0.085151 -0.997203 -3.173400 0
M  V30 26 C -0.257927 -1.987662 -4.067107 0
M  V30 27 C -0.772313 -3.152816 -3.544100 0
M  V30 28 Cl -1.256974 -4.504466 -4.541291 0
M  V30 29 H -2.113681 -3.706564 0.171190 0
M  V30 30 H -2.335710 -5.457921 -0.074445 0
M  V30 31 H -0.632647 -4.819562 0.270192 0
M  V30 32 H -0.664230 -2.356056 -0.308998 0
M  V30 33 H 1.081642 0.756845 -1.733374 0
M  V30 34 H -1.680457 0.495365 -0.378844 0
M  V30 35 H -1.236188 1.328045 -1.873752 0
M  V30 36 H -1.626256 3.830705 0.738731 0
M  V30 37 H -2.593446 2.348762 0.275169 0
M  V30 38 H -2.048756 3.448226 -1.013712 0
M  V30 39 H 0.274579 4.116483 -0.620527 0
M  V30 40 H 1.457753 2.751007 -0.721156 0
M  V30 41 H 0.164120 2.965805 -2.013233 0
M  V30 42 H 2.062650 0.025867 0.119265 0
M  V30 43 H -1.541684 -1.152528 6.015908 0
M  V30 44 H -1.547859 -1.170593 6.023705 0
M  V30 45 H 3.389021 -1.232900 5.714436 0
M  V30 46 H 4.513371 -0.695461 3.589126 0
M  V30 47 H 3.135884 -0.326460 1.667196 0
M  V30 48 H 0.487531 -0.099572 -3.661533 0
M  V30 49 H -0.138589 -1.878260 -5.127775 0
M  V30 END ATOM
M  V30 BEGIN BOND
M  V30 1 1 1 2
M  V30 2 1 2 3
M  V30 3 2 3 4
M  V30 4 1 4 5
M  V30 5 1 5 6
M  V30 6 1 6 7
M  V30 7 1 7 8
M  V30 8 1 8 9
M  V30 9 1 8 10
M  V30 10 1 6 11
M  V30 11 1 11 12
M  V30 12 2 12 13
M  V30 13 1 13 14
M  V30 14 2 14 15
M  V30 15 1 15 16
M  V30 16 2 16 17
M  V30 17 1 17 18
M  V30 18 1 18 19
M  V30 19 2 18 20
M  V30 20 1 17 21
M  V30 21 2 21 22
M  V30 22 1 22 23
M  V30 23 2 23 24
M  V30 24 2 5 25
M  V30 25 1 25 26
M  V30 26 2 26 27
M  V30 27 1 27 28
M  V30 28 1 27 3
M  V30 29 1 24 12
M  V30 30 1 24 16
M  V30 31 1 1 29
M  V30 32 1 1 30
M  V30 33 1 1 31
M  V30 34 1 4 32
M  V30 35 1 6 33 CFG=3
M  V30 36 1 7 34
M  V30 37 1 7 35
M  V30 38 1 9 36
M  V30 39 1 9 37
M  V30 40 1 9 38
M  V30 41 1 10 39
M  V30 42 1 10 40
M  V30 43 1 10 41
M  V30 44 1 11 42
M  V30 45 1 19 43
M  V30 46 1 19 44
M  V30 47 1 21 45
M  V30 48 1 22 46
M  V30 49 1 23 47
M  V30 50 1 25 48
M  V30 51 1 26 49
M  V30 END BOND
M  V30 END CTAB
M  END
>  <Dataset>  (777) 
ChEMBL_Kinases

>  <Ligand_Instance>  (777) 
nan

>  <PDB_ID>  (777) 
nan

>  <Standardized_SMILES>  (777) 
COc1cc([C@@H](CN(C)C)Nc2nnnc3c(C(N)=O)cccc23)ccc1Cl

>  <Name>  (777) 
nan

>  <Pocket>  (777) 
nan

>  <ATP_Site>  (777) 
nan

>  <Peripheral>  (777) 
nan

>  <Num_H_Atoms_ProtBoundConf>  (777) 
nan

>  <Num_Resolved_Atoms>  (777) 
nan

>  <Num_Not_Resolved_Atoms>  (777) 
nan

$$$$
CHEMBL4247747
     RDKit          3D

  0  0  0  0  0  0  0  0  0  0999 V3000
M  V30 BEGIN CTAB
M  V30 COUNTS 27 28 0 0 0
M  V30 BEGIN ATOM
M  V30 1 C -0.740331 -3.315985 2.724207 0
M  V30 2 O -1.033450 -2.170506 1.969602 0
M  V30 3 C 0.013026 -1.503041 1.350432 0
M  V30 4 C 1.364646 -1.779282 1.343561 0
M  V30 5 C 2.227953 -0.975221 0.656264 0
M  V30 6 O 3.575323 -1.307915 0.689336 0
M  V30 7 C 1.812188 0.130143 -0.052317 0
M  V30 8 C 2.793985 0.943190 -0.763335 0
M  V30 9 N 2.325659 2.078472 -1.484948 0
M  V30 10 O 4.000596 0.590313 -0.695501 0
M  V30 11 C 0.467637 0.417728 -0.054389 0
M  V30 12 O -0.152057 1.407056 -0.652089 0
M  V30 13 C -1.438328 1.343414 -0.418123 0
M  V30 14 C -1.649831 0.231413 0.387562 0
M  V30 15 C -2.946168 -0.257884 0.919487 0
M  V30 16 C -0.434518 -0.392234 0.642750 0
M  V30 17 H 0.027909 -3.912186 2.226009 0
M  V30 18 H -0.510715 -3.077681 3.784165 0
M  V30 19 H -1.665924 -3.934973 2.763562 0
M  V30 20 H 1.608790 -2.659641 1.920728 0
M  V30 21 H 3.976363 -1.625899 1.576392 0
M  V30 22 H 1.967205 3.030855 -1.323941 0
M  V30 23 H 2.428859 1.697337 -2.445507 0
M  V30 24 H -2.274655 1.967836 -0.729733 0
M  V30 25 H -3.180205 -1.287868 0.582567 0
M  V30 26 H -3.768116 0.387353 0.544270 0
M  V30 27 H -2.950181 -0.169154 2.017222 0
M  V30 END ATOM
M  V30 BEGIN BOND
M  V30 1 1 1 2
M  V30 2 1 2 3
M  V30 3 2 3 4
M  V30 4 1 4 5
M  V30 5 1 5 6
M  V30 6 2 5 7
M  V30 7 1 7 8
M  V30 8 1 8 9
M  V30 9 2 8 10
M  V30 10 1 7 11
M  V30 11 1 11 12
M  V30 12 1 12 13
M  V30 13 2 13 14
M  V30 14 1 14 15
M  V30 15 1 14 16
M  V30 16 1 16 3
M  V30 17 2 16 11
M  V30 18 1 1 17
M  V30 19 1 1 18
M  V30 20 1 1 19
M  V30 21 1 4 20
M  V30 22 1 6 21
M  V30 23 1 9 22
M  V30 24 1 9 23
M  V30 25 1 13 24
M  V30 26 1 15 25
M  V30 27 1 15 26
M  V30 28 1 15 27
M  V30 END BOND
M  V30 END CTAB
M  END
>  <Dataset>  (778) 
ChEMBL_Kinases

>  <Ligand_Instance>  (778) 
nan

>  <PDB_ID>  (778) 
nan

>  <Standardized_SMILES>  (778) 
COc1cc(O)c(C(N)=O)c2occ(C)c12

>  <Name>  (778) 
nan

>  <Pocket>  (778) 
nan

>  <ATP_Site>  (778) 
nan

>  <Peripheral>  (778) 
nan

>  <Num_H_Atoms_ProtBoundConf>  (778) 
nan

>  <Num_Resolved_Atoms>  (778) 
nan

>  <Num_Not_Resolved_Atoms>  (778) 
nan

$$$$
CHEMBL4239476
     RDKit          3D

  0  0  0  0  0  0  0  0  0  0999 V3000
M  V30 BEGIN CTAB
M  V30 COUNTS 66 71 0 0 0
M  V30 BEGIN ATOM
M  V30 1 C 3.561334 1.870407 4.845557 0
M  V30 2 C 3.392587 0.532071 4.187241 0
M  V30 3 O 2.123311 0.377227 3.602240 0
M  V30 4 C 1.689104 1.217271 2.597979 0
M  V30 5 C 2.356385 2.273314 2.022806 0
M  V30 6 C 1.822485 3.045618 1.022605 0
M  V30 7 C 2.652691 4.149674 0.497432 0
M  V30 8 N 3.428426 4.915270 1.309073 0
M  V30 9 N 4.070583 5.834460 0.588299 0
M  V30 10 C 3.692577 5.644667 -0.701881 0
M  V30 11 N 2.832487 4.620475 -0.746189 0
M  V30 12 C 2.179371 4.071346 -1.895543 0
M  V30 13 C 0.560141 2.792164 0.535269 0
M  V30 14 C -0.170634 1.741137 1.069782 0
M  V30 15 C 0.426622 0.998888 2.078984 0
M  V30 16 N -0.359935 -0.062933 2.594864 0
M  V30 17 C -1.644506 -0.625931 2.369638 0
M  V30 18 N -2.732226 -0.201870 3.005095 0
M  V30 19 C -3.972750 -0.717967 2.816791 0
M  V30 20 C -4.039668 -1.744170 1.894856 0
M  V30 21 C -5.303497 -2.286509 1.688816 0
M  V30 22 C -5.399024 -3.326269 0.761972 0
M  V30 23 C -6.712542 -3.978695 0.467404 0
M  V30 24 N -4.288955 -3.763623 0.109251 0
M  V30 25 C -3.080754 -3.231039 0.319101 0
M  V30 26 N -1.941876 -3.735744 -0.399960 0
M  V30 27 C -1.667492 -4.755885 -1.393031 0
M  V30 28 C -0.425389 -4.029867 -1.768770 0
M  V30 29 C -0.521936 -3.092996 -2.942157 0
M  V30 30 C 0.674103 -2.151650 -2.858046 0
M  V30 31 O 1.561874 -2.532671 -1.838206 0
M  V30 32 C 1.984863 -3.850853 -2.006867 0
M  V30 33 C 0.839839 -4.841260 -1.910664 0
M  V30 34 C -0.530028 -3.404672 -0.417640 0
M  V30 35 C -2.921180 -2.197641 1.225464 0
M  V30 36 N -1.724917 -1.630885 1.470084 0
M  V30 37 H 4.497321 2.349100 4.476479 0
M  V30 38 H 3.645148 1.717471 5.963652 0
M  V30 39 H 2.657045 2.471765 4.676543 0
M  V30 40 H 3.573262 -0.280361 4.938300 0
M  V30 41 H 4.187691 0.369091 3.405384 0
M  V30 42 H 3.342212 2.479363 2.391194 0
M  V30 43 H 4.060436 6.253513 -1.515877 0
M  V30 44 H 2.777197 4.238186 -2.816308 0
M  V30 45 H 1.223879 4.624666 -2.071791 0
M  V30 46 H 1.943796 2.986255 -1.805293 0
M  V30 47 H 0.165058 3.415161 -0.251554 0
M  V30 48 H -1.157800 1.520724 0.708681 0
M  V30 49 H -0.032679 -0.699970 3.363785 0
M  V30 50 H -4.831173 -0.340276 3.357382 0
M  V30 51 H -6.196634 -1.951723 2.198429 0
M  V30 52 H -6.772847 -4.995892 0.874422 0
M  V30 53 H -7.532712 -3.313452 0.802994 0
M  V30 54 H -6.779901 -4.029028 -0.653113 0
M  V30 55 H -2.442793 -4.903863 -2.169957 0
M  V30 56 H -1.412348 -5.703198 -0.846350 0
M  V30 57 H -1.469796 -2.529501 -2.982242 0
M  V30 58 H -0.467506 -3.722629 -3.869301 0
M  V30 59 H 1.173151 -2.101668 -3.842761 0
M  V30 60 H 0.303394 -1.137829 -2.546740 0
M  V30 61 H 2.678128 -4.034706 -1.134296 0
M  V30 62 H 2.550398 -3.946279 -2.939292 0
M  V30 63 H 0.793330 -5.413758 -2.876098 0
M  V30 64 H 0.992832 -5.573819 -1.103741 0
M  V30 65 H -0.002874 -3.945782 0.392758 0
M  V30 66 H -0.319908 -2.296723 -0.409700 0
M  V30 END ATOM
M  V30 BEGIN BOND
M  V30 1 1 1 2
M  V30 2 1 2 3
M  V30 3 1 3 4
M  V30 4 2 4 5
M  V30 5 1 5 6
M  V30 6 1 6 7
M  V30 7 2 7 8
M  V30 8 1 8 9
M  V30 9 2 9 10
M  V30 10 1 10 11
M  V30 11 1 11 12
M  V30 12 2 6 13
M  V30 13 1 13 14
M  V30 14 2 14 15
M  V30 15 1 15 16
M  V30 16 1 16 17
M  V30 17 2 17 18
M  V30 18 1 18 19
M  V30 19 2 19 20
M  V30 20 1 20 21
M  V30 21 2 21 22
M  V30 22 1 22 23
M  V30 23 1 22 24
M  V30 24 2 24 25
M  V30 25 1 25 26
M  V30 26 1 26 27
M  V30 27 1 27 28
M  V30 28 1 28 29
M  V30 29 1 29 30
M  V30 30 1 30 31
M  V30 31 1 31 32
M  V30 32 1 32 33
M  V30 33 1 28 34
M  V30 34 1 25 35
M  V30 35 2 35 36
M  V30 36 1 15 4
M  V30 37 1 36 17
M  V30 38 1 11 7
M  V30 39 1 35 20
M  V30 40 1 34 26
M  V30 41 1 33 28
M  V30 42 1 1 37
M  V30 43 1 1 38
M  V30 44 1 1 39
M  V30 45 1 2 40
M  V30 46 1 2 41
M  V30 47 1 5 42
M  V30 48 1 10 43
M  V30 49 1 12 44
M  V30 50 1 12 45
M  V30 51 1 12 46
M  V30 52 1 13 47
M  V30 53 1 14 48
M  V30 54 1 16 49
M  V30 55 1 19 50
M  V30 56 1 21 51
M  V30 57 1 23 52
M  V30 58 1 23 53
M  V30 59 1 23 54
M  V30 60 1 27 55
M  V30 61 1 27 56
M  V30 62 1 29 57
M  V30 63 1 29 58
M  V30 64 1 30 59
M  V30 65 1 30 60
M  V30 66 1 32 61
M  V30 67 1 32 62
M  V30 68 1 33 63
M  V30 69 1 33 64
M  V30 70 1 34 65
M  V30 71 1 34 66
M  V30 END BOND
M  V30 END CTAB
M  END
>  <Dataset>  (779) 
ChEMBL_Kinases

>  <Ligand_Instance>  (779) 
nan

>  <PDB_ID>  (779) 
nan

>  <Standardized_SMILES>  (779) 
CCOc1cc(-c2nncn2C)ccc1Nc1ncc2cc(C)nc(N3CC4(CCOCC4)C3)c2n1

>  <Name>  (779) 
nan

>  <Pocket>  (779) 
nan

>  <ATP_Site>  (779) 
nan

>  <Peripheral>  (779) 
nan

>  <Num_H_Atoms_ProtBoundConf>  (779) 
nan

>  <Num_Resolved_Atoms>  (779) 
nan

>  <Num_Not_Resolved_Atoms>  (779) 
nan

$$$$
CHEMBL4765079
     RDKit          3D

  0  0  0  0  0  0  0  0  0  0999 V3000
M  V30 BEGIN CTAB
M  V30 COUNTS 51 54 0 0 0
M  V30 BEGIN ATOM
M  V30 1 C 1.367875 -4.462589 4.950949 0
M  V30 2 C 2.119891 -3.761704 3.850651 0
M  V30 3 O 2.540492 -4.476291 2.894328 0
M  V30 4 N 2.332109 -2.355769 3.912354 0
M  V30 5 C 3.057052 -1.729864 2.836342 0 CFG=2
M  V30 6 C 4.310116 -1.030462 3.243000 0
M  V30 7 C 4.212773 0.464042 2.963849 0
M  V30 8 C 4.011597 0.760016 1.502626 0
M  V30 9 C 3.069025 -0.235222 0.915634 0 CFG=2
M  V30 10 C 2.199217 0.376837 -0.151152 0
M  V30 11 O 2.146192 1.549568 -0.605799 0
M  V30 12 N 1.314656 -0.598092 -0.687896 0
M  V30 13 C 0.363202 -0.335411 -1.715219 0
M  V30 14 C -0.920741 0.077569 -1.401958 0
M  V30 15 C -1.870967 0.342101 -2.365054 0
M  V30 16 C -3.233812 0.779173 -2.069455 0
M  V30 17 C -3.831083 1.813679 -2.763166 0
M  V30 18 N -5.072801 1.969625 -2.257227 0
M  V30 19 C -5.240817 1.059973 -1.279769 0
M  V30 20 C -6.338072 0.817562 -0.461364 0
M  V30 21 C -6.245934 -0.189607 0.473416 0
M  V30 22 C -5.077830 -0.915376 0.563003 0
M  V30 23 C -3.997768 -0.661454 -0.257527 0
M  V30 24 N -4.105463 0.325088 -1.163919 0
M  V30 25 C -1.529491 0.189238 -3.699137 0
M  V30 26 Cl -2.663352 0.500613 -4.972745 0
M  V30 27 C -0.231703 -0.227854 -4.005887 0
M  V30 28 N 0.652808 -0.471714 -3.040245 0
M  V30 29 C 2.207684 -0.773144 2.040714 0
M  V30 30 H 1.637569 -3.949773 5.884335 0
M  V30 31 H 0.295325 -4.368923 4.752846 0
M  V30 32 H 1.618519 -5.543875 4.963708 0
M  V30 33 H 1.952182 -1.849221 4.733376 0
M  V30 34 H 3.325836 -2.553538 2.112029 0
M  V30 35 H 5.182797 -1.374605 2.620497 0
M  V30 36 H 4.597760 -1.174088 4.283688 0
M  V30 37 H 5.160473 0.948792 3.310157 0
M  V30 38 H 3.421223 0.866693 3.610828 0
M  V30 39 H 3.569614 1.790992 1.461683 0
M  V30 40 H 4.993557 0.806205 0.969569 0
M  V30 41 H 3.632655 -1.067627 0.437324 0
M  V30 42 H 1.169217 -1.613494 -0.482712 0
M  V30 43 H -1.185119 0.196087 -0.364083 0
M  V30 44 H -3.499923 2.460072 -3.569997 0
M  V30 45 H -7.215368 1.432939 -0.597300 0
M  V30 46 H -7.108050 -0.372186 1.108737 0
M  V30 47 H -5.019518 -1.702362 1.300679 0
M  V30 48 H -3.094069 -1.245382 -0.166314 0
M  V30 49 H 0.070055 -0.357851 -5.036967 0
M  V30 50 H 1.825248 0.082539 2.610703 0
M  V30 51 H 1.372862 -1.338633 1.532527 0
M  V30 END ATOM
M  V30 BEGIN BOND
M  V30 1 1 1 2
M  V30 2 2 2 3
M  V30 3 1 2 4
M  V30 4 1 4 5
M  V30 5 1 5 6
M  V30 6 1 6 7
M  V30 7 1 7 8
M  V30 8 1 8 9
M  V30 9 1 9 10
M  V30 10 2 10 11
M  V30 11 1 10 12
M  V30 12 1 12 13
M  V30 13 2 13 14
M  V30 14 1 14 15
M  V30 15 1 15 16
M  V30 16 2 16 17
M  V30 17 1 17 18
M  V30 18 2 18 19
M  V30 19 1 19 20
M  V30 20 2 20 21
M  V30 21 1 21 22
M  V30 22 2 22 23
M  V30 23 1 23 24
M  V30 24 2 15 25
M  V30 25 1 25 26
M  V30 26 1 25 27
M  V30 27 2 27 28
M  V30 28 1 9 29
M  V30 29 1 29 5
M  V30 30 1 28 13
M  V30 31 1 24 16
M  V30 32 1 24 19
M  V30 33 1 1 30
M  V30 34 1 1 31
M  V30 35 1 1 32
M  V30 36 1 4 33
M  V30 37 1 5 34 CFG=3
M  V30 38 1 6 35
M  V30 39 1 6 36
M  V30 40 1 7 37
M  V30 41 1 7 38
M  V30 42 1 8 39
M  V30 43 1 8 40
M  V30 44 1 9 41 CFG=3
M  V30 45 1 12 42
M  V30 46 1 14 43
M  V30 47 1 17 44
M  V30 48 1 20 45
M  V30 49 1 21 46
M  V30 50 1 22 47
M  V30 51 1 23 48
M  V30 52 1 27 49
M  V30 53 1 29 50
M  V30 54 1 29 51
M  V30 END BOND
M  V30 END CTAB
M  END
>  <Dataset>  (780) 
ChEMBL_Kinases

>  <Ligand_Instance>  (780) 
nan

>  <PDB_ID>  (780) 
nan

>  <Standardized_SMILES>  (780) 
CC(=O)N[C@@H]1CCC[C@H](C(=O)Nc2cc(-c3cnc4ccccn34)c(Cl)cn2)C1

>  <Name>  (780) 
nan

>  <Pocket>  (780) 
nan

>  <ATP_Site>  (780) 
nan

>  <Peripheral>  (780) 
nan

>  <Num_H_Atoms_ProtBoundConf>  (780) 
nan

>  <Num_Resolved_Atoms>  (780) 
nan

>  <Num_Not_Resolved_Atoms>  (780) 
nan

$$$$
CHEMBL4239032
     RDKit          3D

  0  0  0  0  0  0  0  0  0  0999 V3000
M  V30 BEGIN CTAB
M  V30 COUNTS 39 42 0 0 0
M  V30 BEGIN ATOM
M  V30 1 N 3.138967 -6.689386 1.633541 0
M  V30 2 C 3.553559 -5.604419 1.489072 0
M  V30 3 C 4.045040 -4.257201 1.304725 0
M  V30 4 C 5.113523 -3.777898 2.011411 0
M  V30 5 C 5.604315 -2.501004 1.858255 0
M  V30 6 C 4.989824 -1.650297 0.942598 0
M  V30 7 C 3.899730 -2.093439 0.200887 0
M  V30 8 C 3.267024 -1.159608 -0.768113 0
M  V30 9 C 2.179261 -0.370714 -0.129499 0
M  V30 10 O 1.896899 -0.537456 1.084751 0
M  V30 11 N 1.492254 0.562568 -0.953873 0
M  V30 12 C 0.443376 1.260991 -0.162319 0
M  V30 13 N -0.645115 1.249259 0.178272 0
M  V30 14 C -1.309836 2.090865 0.940371 0
M  V30 15 C -2.712478 1.946059 1.294604 0
M  V30 16 C -3.479273 2.776365 2.081998 0
M  V30 17 N -4.752431 2.366516 2.221792 0
M  V30 18 C -4.844108 1.229073 1.508562 0
M  V30 19 N -5.868322 0.376969 1.279981 0
M  V30 20 C -5.701207 -0.717025 0.512316 0
M  V30 21 C -4.504092 -1.053658 -0.090469 0
M  V30 22 C -3.450349 -0.167886 0.150642 0
M  V30 23 C -3.614421 0.965502 0.943048 0
M  V30 24 C -0.509173 3.175431 1.392258 0
M  V30 25 S 1.163479 2.776636 0.596770 0
M  V30 26 C 3.457560 -3.389806 0.404867 0
M  V30 27 H 5.608793 -4.431949 2.735133 0
M  V30 28 H 6.447536 -2.099448 2.405415 0
M  V30 29 H 5.371763 -0.631404 0.812009 0
M  V30 30 H 4.080484 -0.508245 -1.160311 0
M  V30 31 H 2.826134 -1.691617 -1.642084 0
M  V30 32 H 1.689573 0.734544 -1.958908 0
M  V30 33 H -3.093387 3.689593 2.554710 0
M  V30 34 H -5.486888 2.857830 2.777527 0
M  V30 35 H -6.522707 -1.411006 0.322103 0
M  V30 36 H -4.352478 -1.924221 -0.707305 0
M  V30 37 H -2.464779 -0.351558 -0.284600 0
M  V30 38 H -0.979802 4.074611 2.129849 0
M  V30 39 H 2.608717 -3.754372 -0.163872 0
M  V30 END ATOM
M  V30 BEGIN BOND
M  V30 1 3 1 2
M  V30 2 1 2 3
M  V30 3 2 3 4
M  V30 4 1 4 5
M  V30 5 2 5 6
M  V30 6 1 6 7
M  V30 7 1 7 8
M  V30 8 1 8 9
M  V30 9 2 9 10
M  V30 10 1 9 11
M  V30 11 1 11 12
M  V30 12 2 12 13
M  V30 13 1 13 14
M  V30 14 1 14 15
M  V30 15 2 15 16
M  V30 16 1 16 17
M  V30 17 1 17 18
M  V30 18 2 18 19
M  V30 19 1 19 20
M  V30 20 2 20 21
M  V30 21 1 21 22
M  V30 22 2 22 23
M  V30 23 2 14 24
M  V30 24 1 24 25
M  V30 25 2 7 26
M  V30 26 1 26 3
M  V30 27 1 25 12
M  V30 28 1 23 15
M  V30 29 1 23 18
M  V30 30 1 4 27
M  V30 31 1 5 28
M  V30 32 1 6 29
M  V30 33 1 8 30
M  V30 34 1 8 31
M  V30 35 1 11 32
M  V30 36 1 16 33
M  V30 37 1 17 34
M  V30 38 1 20 35
M  V30 39 1 21 36
M  V30 40 1 22 37
M  V30 41 1 24 38
M  V30 42 1 26 39
M  V30 END BOND
M  V30 END CTAB
M  END
>  <Dataset>  (781) 
ChEMBL_Kinases

>  <Ligand_Instance>  (781) 
nan

>  <PDB_ID>  (781) 
nan

>  <Standardized_SMILES>  (781) 
N#Cc1cccc(CC(=O)Nc2nc(-c3c[nH]c4ncccc34)cs2)c1

>  <Name>  (781) 
nan

>  <Pocket>  (781) 
nan

>  <ATP_Site>  (781) 
nan

>  <Peripheral>  (781) 
nan

>  <Num_H_Atoms_ProtBoundConf>  (781) 
nan

>  <Num_Resolved_Atoms>  (781) 
nan

>  <Num_Not_Resolved_Atoms>  (781) 
nan

$$$$
CHEMBL4238971
     RDKit          3D

  0  0  0  0  0  0  0  0  0  0999 V3000
M  V30 BEGIN CTAB
M  V30 COUNTS 70 74 0 0 0
M  V30 BEGIN ATOM
M  V30 1 N 1.370881 -3.126269 6.081925 0
M  V30 2 C 2.326666 -2.989383 5.430398 0
M  V30 3 C 3.524157 -2.812264 4.596921 0
M  V30 4 C 3.405553 -1.424767 3.943725 0
M  V30 5 C 2.176128 -1.331869 3.112458 0
M  V30 6 C 2.047789 -2.279023 1.988732 0
M  V30 7 C 3.030257 -2.210795 0.877364 0
M  V30 8 N 3.034077 -0.965996 0.139109 0
M  V30 9 C 2.071735 -0.819755 -0.825723 0
M  V30 10 C 2.101835 0.403046 -1.458409 0
M  V30 11 C 1.283821 1.017617 -2.488312 0
M  V30 12 C -0.042060 1.182802 -2.645199 0
M  V30 13 C -1.191297 0.807565 -1.836388 0
M  V30 14 C -1.577333 -0.361482 -1.216024 0
M  V30 15 N -2.724493 -0.235109 -0.531551 0
M  V30 16 C -3.380400 -1.286661 0.226569 0
M  V30 17 C -4.376678 -2.074618 -0.595935 0
M  V30 18 C -5.037899 -3.161461 0.227394 0
M  V30 19 C -4.041817 -4.157188 0.766623 0
M  V30 20 C -4.789998 -5.209040 1.578792 0
M  V30 21 C -5.504442 -4.599875 2.695335 0
M  V30 22 N -6.053366 -4.115705 3.580176 0
M  V30 23 C -3.148176 1.029897 -0.671346 0
M  V30 24 C -4.258907 1.619444 -0.152414 0
M  V30 25 C -4.516478 2.949230 -0.409229 0
M  V30 26 C -3.631597 3.653160 -1.193354 0
M  V30 27 C -2.533592 3.005850 -1.686047 0
M  V30 28 C -2.216107 1.684755 -1.470939 0
M  V30 29 C -0.254286 1.868298 -3.939468 0
M  V30 30 O -1.322998 2.239231 -4.528058 0
M  V30 31 N 0.994326 2.118204 -4.571340 0
M  V30 32 C 1.949890 1.590371 -3.672059 0
M  V30 33 O 3.195830 1.656383 -3.953730 0
M  V30 34 C 3.153066 1.057348 -0.845088 0
M  V30 35 C 3.781220 2.268506 -0.920965 0
M  V30 36 C 4.854476 2.668605 -0.152535 0
M  V30 37 C 5.332072 1.762460 0.772779 0
M  V30 38 C 4.739164 0.526564 0.895452 0
M  V30 39 C 3.681863 0.207508 0.099907 0
M  V30 40 H 3.594997 -3.588933 3.821367 0
M  V30 41 H 4.453363 -2.789296 5.190786 0
M  V30 42 H 4.348268 -1.161647 3.495807 0
M  V30 43 H 3.267285 -0.730979 4.822567 0
M  V30 44 H 2.006697 -0.285019 2.768592 0
M  V30 45 H 1.309313 -1.524775 3.804481 0
M  V30 46 H 2.011958 -3.330099 2.371419 0
M  V30 47 H 1.025163 -2.119692 1.541839 0
M  V30 48 H 2.841335 -3.047265 0.165911 0
M  V30 49 H 4.065137 -2.429559 1.265326 0
M  V30 50 H 1.302233 -1.531277 -1.158728 0
M  V30 51 H -1.031307 -1.276349 -1.271928 0
M  V30 52 H -2.599595 -1.976803 0.611413 0
M  V30 53 H -3.950797 -0.792477 1.032735 0
M  V30 54 H -3.966048 -2.492135 -1.518464 0
M  V30 55 H -5.177848 -1.357140 -0.892755 0
M  V30 56 H -5.578333 -2.643100 1.043440 0
M  V30 57 H -5.773242 -3.690251 -0.404279 0
M  V30 58 H -3.361700 -3.654349 1.479388 0
M  V30 59 H -3.447204 -4.631157 -0.032580 0
M  V30 60 H -5.591993 -5.686676 0.943062 0
M  V30 61 H -4.118266 -6.028463 1.897238 0
M  V30 62 H -4.960275 1.094094 0.458909 0
M  V30 63 H -5.386777 3.418219 -0.005135 0
M  V30 64 H -3.833830 4.695011 -1.394078 0
M  V30 65 H -1.873116 3.614193 -2.285274 0
M  V30 66 H 1.178438 2.590156 -5.501687 0
M  V30 67 H 3.431543 3.005331 -1.626655 0
M  V30 68 H 5.306725 3.641663 -0.262096 0
M  V30 69 H 6.173107 2.047824 1.389061 0
M  V30 70 H 5.163657 -0.128959 1.619282 0
M  V30 END ATOM
M  V30 BEGIN BOND
M  V30 1 3 1 2
M  V30 2 1 2 3
M  V30 3 1 3 4
M  V30 4 1 4 5
M  V30 5 1 5 6
M  V30 6 1 6 7
M  V30 7 1 7 8
M  V30 8 1 8 9
M  V30 9 2 9 10
M  V30 10 1 10 11
M  V30 11 2 11 12
M  V30 12 1 12 13
M  V30 13 2 13 14
M  V30 14 1 14 15
M  V30 15 1 15 16
M  V30 16 1 16 17
M  V30 17 1 17 18
M  V30 18 1 18 19
M  V30 19 1 19 20
M  V30 20 1 20 21
M  V30 21 3 21 22
M  V30 22 1 15 23
M  V30 23 2 23 24
M  V30 24 1 24 25
M  V30 25 2 25 26
M  V30 26 1 26 27
M  V30 27 2 27 28
M  V30 28 1 12 29
M  V30 29 2 29 30
M  V30 30 1 29 31
M  V30 31 1 31 32
M  V30 32 2 32 33
M  V30 33 1 10 34
M  V30 34 2 34 35
M  V30 35 1 35 36
M  V30 36 2 36 37
M  V30 37 1 37 38
M  V30 38 2 38 39
M  V30 39 1 39 8
M  V30 40 1 32 11
M  V30 41 1 39 34
M  V30 42 1 28 13
M  V30 43 1 28 23
M  V30 44 1 3 40
M  V30 45 1 3 41
M  V30 46 1 4 42
M  V30 47 1 4 43
M  V30 48 1 5 44
M  V30 49 1 5 45
M  V30 50 1 6 46
M  V30 51 1 6 47
M  V30 52 1 7 48
M  V30 53 1 7 49
M  V30 54 1 9 50
M  V30 55 1 14 51
M  V30 56 1 16 52
M  V30 57 1 16 53
M  V30 58 1 17 54
M  V30 59 1 17 55
M  V30 60 1 18 56
M  V30 61 1 18 57
M  V30 62 1 19 58
M  V30 63 1 19 59
M  V30 64 1 20 60
M  V30 65 1 20 61
M  V30 66 1 24 62
M  V30 67 1 25 63
M  V30 68 1 26 64
M  V30 69 1 27 65
M  V30 70 1 31 66
M  V30 71 1 35 67
M  V30 72 1 36 68
M  V30 73 1 37 69
M  V30 74 1 38 70
M  V30 END BOND
M  V30 END CTAB
M  END
>  <Dataset>  (782) 
ChEMBL_Kinases

>  <Ligand_Instance>  (782) 
nan

>  <PDB_ID>  (782) 
nan

>  <Standardized_SMILES>  (782) 
N#CCCCCCn1cc(C2=C(c3cn(CCCCCC#N)c4ccccc34)C(=O)NC2=O)c2ccccc21

>  <Name>  (782) 
nan

>  <Pocket>  (782) 
nan

>  <ATP_Site>  (782) 
nan

>  <Peripheral>  (782) 
nan

>  <Num_H_Atoms_ProtBoundConf>  (782) 
nan

>  <Num_Resolved_Atoms>  (782) 
nan

>  <Num_Not_Resolved_Atoms>  (782) 
nan

$$$$
CHEMBL4238696
     RDKit          3D

  0  0  0  0  0  0  0  0  0  0999 V3000
M  V30 BEGIN CTAB
M  V30 COUNTS 59 63 0 0 0
M  V30 BEGIN ATOM
M  V30 1 O -0.105178 -1.840475 0.108741 0
M  V30 2 C -1.041386 -2.256383 0.836721 0
M  V30 3 C -0.368004 -1.808511 2.084535 0
M  V30 4 C 0.926192 -1.172521 1.818518 0
M  V30 5 C 2.138919 -1.862940 1.766706 0
M  V30 6 C 3.337199 -1.217353 1.511569 0
M  V30 7 C 3.379730 0.144973 1.296755 0
M  V30 8 C 2.177106 0.844671 1.345822 0
M  V30 9 O 2.085253 2.226170 1.145542 0
M  V30 10 C 3.217509 3.027708 0.874871 0
M  V30 11 C 2.866293 4.484386 0.696582 0
M  V30 12 N 2.242312 5.080267 1.846878 0
M  V30 13 C 1.930025 6.480389 1.617239 0
M  V30 14 C 1.514680 7.168642 2.880215 0
M  V30 15 N 0.608420 6.381821 3.679130 0
M  V30 16 C 0.006380 5.393742 2.806893 0
M  V30 17 C 1.020367 4.420484 2.243567 0
M  V30 18 C 0.990065 0.187645 1.601282 0
M  V30 19 N -2.308486 -2.897648 0.887950 0
M  V30 20 C -2.971287 -3.339945 -0.361424 0
M  V30 21 N -2.806981 -4.458966 -0.855676 0
M  V30 22 C -3.425265 -4.817685 -1.985019 0
M  V30 23 C -3.211146 -6.161743 -2.554451 0
M  V30 24 C -3.760173 -6.695699 -3.696392 0
M  V30 25 N -3.354655 -7.947258 -3.929152 0
M  V30 26 C -2.514832 -8.289470 -2.940229 0
M  V30 27 N -1.821757 -9.421554 -2.679723 0
M  V30 28 C -1.017904 -9.523689 -1.585883 0
M  V30 29 C -0.902085 -8.458952 -0.722546 0
M  V30 30 C -1.606573 -7.277387 -0.967174 0
M  V30 31 C -2.425609 -7.200668 -2.099533 0
M  V30 32 C -4.272425 -3.882967 -2.599541 0
M  V30 33 S -4.082715 -2.442014 -1.382434 0
M  V30 34 H -1.019613 -1.064470 2.591498 0
M  V30 35 H -0.209560 -2.650519 2.787578 0
M  V30 36 H 2.088549 -2.944110 1.939302 0
M  V30 37 H 4.259328 -1.799512 1.481070 0
M  V30 38 H 4.285098 0.688988 1.095402 0
M  V30 39 H 3.978856 2.892805 1.649032 0
M  V30 40 H 3.640034 2.675860 -0.084245 0
M  V30 41 H 3.821726 5.031671 0.546146 0
M  V30 42 H 2.268922 4.652675 -0.200202 0
M  V30 43 H 2.792403 7.030634 1.190340 0
M  V30 44 H 1.096815 6.480251 0.871695 0
M  V30 45 H 0.996056 8.106752 2.599510 0
M  V30 46 H 2.411956 7.427027 3.482781 0
M  V30 47 H 1.063855 5.899697 4.468011 0
M  V30 48 H -0.518999 5.856319 1.951524 0
M  V30 49 H -0.713252 4.750434 3.386281 0
M  V30 50 H 0.569872 3.994456 1.328284 0
M  V30 51 H 1.252051 3.607010 2.961748 0
M  V30 52 H 0.045018 0.746312 1.638514 0
M  V30 53 H -2.704434 -3.021386 1.820390 0
M  V30 54 H -4.457602 -6.188041 -4.371535 0
M  V30 55 H -3.637036 -8.561658 -4.738572 0
M  V30 56 H -0.473711 -10.460219 -1.412589 0
M  V30 57 H -0.266230 -8.526356 0.151529 0
M  V30 58 H -1.513969 -6.434544 -0.282461 0
M  V30 59 H -4.831252 -4.072082 -3.531824 0
M  V30 END ATOM
M  V30 BEGIN BOND
M  V30 1 2 1 2
M  V30 2 1 2 3
M  V30 3 1 3 4
M  V30 4 2 4 5
M  V30 5 1 5 6
M  V30 6 2 6 7
M  V30 7 1 7 8
M  V30 8 1 8 9
M  V30 9 1 9 10
M  V30 10 1 10 11
M  V30 11 1 11 12
M  V30 12 1 12 13
M  V30 13 1 13 14
M  V30 14 1 14 15
M  V30 15 1 15 16
M  V30 16 1 16 17
M  V30 17 2 8 18
M  V30 18 1 2 19
M  V30 19 1 19 20
M  V30 20 2 20 21
M  V30 21 1 21 22
M  V30 22 1 22 23
M  V30 23 2 23 24
M  V30 24 1 24 25
M  V30 25 1 25 26
M  V30 26 2 26 27
M  V30 27 1 27 28
M  V30 28 2 28 29
M  V30 29 1 29 30
M  V30 30 2 30 31
M  V30 31 2 22 32
M  V30 32 1 32 33
M  V30 33 1 18 4
M  V30 34 1 33 20
M  V30 35 1 17 12
M  V30 36 1 31 23
M  V30 37 1 31 26
M  V30 38 1 3 34
M  V30 39 1 3 35
M  V30 40 1 5 36
M  V30 41 1 6 37
M  V30 42 1 7 38
M  V30 43 1 10 39
M  V30 44 1 10 40
M  V30 45 1 11 41
M  V30 46 1 11 42
M  V30 47 1 13 43
M  V30 48 1 13 44
M  V30 49 1 14 45
M  V30 50 1 14 46
M  V30 51 1 15 47
M  V30 52 1 16 48
M  V30 53 1 16 49
M  V30 54 1 17 50
M  V30 55 1 17 51
M  V30 56 1 18 52
M  V30 57 1 19 53
M  V30 58 1 24 54
M  V30 59 1 25 55
M  V30 60 1 28 56
M  V30 61 1 29 57
M  V30 62 1 30 58
M  V30 63 1 32 59
M  V30 END BOND
M  V30 END CTAB
M  END
>  <Dataset>  (783) 
ChEMBL_Kinases

>  <Ligand_Instance>  (783) 
nan

>  <PDB_ID>  (783) 
nan

>  <Standardized_SMILES>  (783) 
O=C(Cc1cccc(OCCN2CCNCC2)c1)Nc1nc(-c2c[nH]c3ncccc23)cs1

>  <Name>  (783) 
nan

>  <Pocket>  (783) 
nan

>  <ATP_Site>  (783) 
nan

>  <Peripheral>  (783) 
nan

>  <Num_H_Atoms_ProtBoundConf>  (783) 
nan

>  <Num_Resolved_Atoms>  (783) 
nan

>  <Num_Not_Resolved_Atoms>  (783) 
nan

$$$$
CHEMBL4238675
     RDKit          3D

  0  0  0  0  0  0  0  0  0  0999 V3000
M  V30 BEGIN CTAB
M  V30 COUNTS 34 35 0 0 0
M  V30 BEGIN ATOM
M  V30 1 C -0.552140 -4.995421 3.339984 0
M  V30 2 N -0.630848 -3.650451 2.862122 0
M  V30 3 C 0.011192 -3.198409 1.686158 0
M  V30 4 O 0.648340 -4.149284 1.141586 0
M  V30 5 C 0.013252 -1.877609 1.095900 0
M  V30 6 O 0.710100 -1.738544 -0.003874 0
M  V30 7 C 0.615762 -0.477400 -0.423788 0
M  V30 8 C 1.171101 0.140247 -1.525320 0
M  V30 9 C 2.017908 -0.587946 -2.463069 0
M  V30 10 N 2.266377 -1.984959 -2.212370 0
M  V30 11 O 2.585810 -0.159289 -3.499460 0
M  V30 12 C 0.935516 1.461926 -1.761586 0
M  V30 13 O 1.466915 2.126277 -2.848229 0
M  V30 14 C 0.140870 2.195515 -0.903884 0
M  V30 15 C -0.426716 1.592358 0.209426 0
M  V30 16 O -1.230784 2.270568 1.105945 0
M  V30 17 C -1.566113 3.619887 1.006072 0
M  V30 18 C -0.176985 0.256025 0.431037 0
M  V30 19 C -0.547337 -0.661004 1.390043 0
M  V30 20 C -1.396903 -0.450047 2.558448 0
M  V30 21 H -0.171522 -4.955277 4.392991 0
M  V30 22 H -1.536683 -5.513537 3.430536 0
M  V30 23 H 0.109289 -5.638971 2.749237 0
M  V30 24 H -1.189244 -2.961371 3.405614 0
M  V30 25 H 3.047890 -2.491245 -1.707701 0
M  V30 26 H 1.531553 -2.645918 -2.603873 0
M  V30 27 H 2.265022 2.732891 -2.749424 0
M  V30 28 H -0.041965 3.245637 -1.098022 0
M  V30 29 H -1.743128 4.104734 1.986375 0
M  V30 30 H -0.776446 4.251743 0.517581 0
M  V30 31 H -2.474595 3.719981 0.379622 0
M  V30 32 H -1.834233 0.590771 2.549700 0
M  V30 33 H -0.925404 -0.613890 3.531244 0
M  V30 34 H -2.317456 -1.101472 2.489225 0
M  V30 END ATOM
M  V30 BEGIN BOND
M  V30 1 1 1 2
M  V30 2 1 2 3
M  V30 3 2 3 4
M  V30 4 1 3 5
M  V30 5 1 5 6
M  V30 6 1 6 7
M  V30 7 2 7 8
M  V30 8 1 8 9
M  V30 9 1 9 10
M  V30 10 2 9 11
M  V30 11 1 8 12
M  V30 12 1 12 13
M  V30 13 2 12 14
M  V30 14 1 14 15
M  V30 15 1 15 16
M  V30 16 1 16 17
M  V30 17 2 15 18
M  V30 18 1 18 19
M  V30 19 1 19 20
M  V30 20 2 19 5
M  V30 21 1 18 7
M  V30 22 1 1 21
M  V30 23 1 1 22
M  V30 24 1 1 23
M  V30 25 1 2 24
M  V30 26 1 10 25
M  V30 27 1 10 26
M  V30 28 1 13 27
M  V30 29 1 14 28
M  V30 30 1 17 29
M  V30 31 1 17 30
M  V30 32 1 17 31
M  V30 33 1 20 32
M  V30 34 1 20 33
M  V30 35 1 20 34
M  V30 END BOND
M  V30 END CTAB
M  END
>  <Dataset>  (784) 
ChEMBL_Kinases

>  <Ligand_Instance>  (784) 
nan

>  <PDB_ID>  (784) 
nan

>  <Standardized_SMILES>  (784) 
CNC(=O)c1oc2c(C(N)=O)c(O)cc(OC)c2c1C

>  <Name>  (784) 
nan

>  <Pocket>  (784) 
nan

>  <ATP_Site>  (784) 
nan

>  <Peripheral>  (784) 
nan

>  <Num_H_Atoms_ProtBoundConf>  (784) 
nan

>  <Num_Resolved_Atoms>  (784) 
nan

>  <Num_Not_Resolved_Atoms>  (784) 
nan

$$$$
CHEMBL4238093
     RDKit          3D

  0  0  0  0  0  0  0  0  0  0999 V3000
M  V30 BEGIN CTAB
M  V30 COUNTS 38 42 0 0 0
M  V30 BEGIN ATOM
M  V30 1 O -0.758447 -4.603374 1.224803 0
M  V30 2 C -1.280431 -3.465612 1.371970 0
M  V30 3 C -0.647209 -2.172636 1.107117 0
M  V30 4 C 0.707806 -2.072854 0.587056 0
M  V30 5 C 1.763235 -2.799277 1.141024 0
M  V30 6 N 2.912234 -2.549519 0.486857 0
M  V30 7 C 2.636863 -1.664344 -0.498430 0
M  V30 8 C 3.414921 -1.066699 -1.468312 0
M  V30 9 C 2.813042 -0.187735 -2.356026 0
M  V30 10 C 1.466898 0.100495 -2.293352 0
M  V30 11 C 0.709995 -0.506740 -1.317989 0
M  V30 12 C 1.285540 -1.381680 -0.425714 0
M  V30 13 C -1.472940 -1.174029 1.365371 0
M  V30 14 C -1.334558 0.272212 1.274010 0
M  V30 15 C -2.318360 1.068060 0.697855 0
M  V30 16 N -1.995743 2.373273 0.726638 0
M  V30 17 C -0.800083 2.449583 1.321030 0
M  V30 18 N 0.040309 3.469929 1.647186 0
M  V30 19 C 1.211833 3.224314 2.269958 0
M  V30 20 C 1.659554 1.963110 2.625568 0
M  V30 21 C 0.814830 0.903681 2.301030 0
M  V30 22 C -0.364583 1.189027 1.669696 0
M  V30 23 C -2.730745 -1.798266 1.827439 0
M  V30 24 O -3.799458 -1.193351 2.183701 0
M  V30 25 N -2.587755 -3.212053 1.822980 0
M  V30 26 O -3.498687 -4.131317 2.172844 0
M  V30 27 H 1.716312 -3.486801 1.984186 0
M  V30 28 H 3.851261 -2.974298 0.711882 0
M  V30 29 H 4.468179 -1.316055 -1.487043 0
M  V30 30 H 3.421717 0.287727 -3.123499 0
M  V30 31 H 1.019572 0.800565 -3.010927 0
M  V30 32 H -0.332462 -0.269000 -1.304696 0
M  V30 33 H -3.287709 0.824258 0.232625 0
M  V30 34 H -2.461194 3.241981 0.404269 0
M  V30 35 H 1.888578 4.048433 2.530193 0
M  V30 36 H 2.607433 1.805028 3.127565 0
M  V30 37 H 1.134254 -0.078352 2.572893 0
M  V30 38 H -4.399284 -3.738818 1.980420 0
M  V30 END ATOM
M  V30 BEGIN BOND
M  V30 1 2 1 2
M  V30 2 1 2 3
M  V30 3 1 3 4
M  V30 4 2 4 5
M  V30 5 1 5 6
M  V30 6 1 6 7
M  V30 7 2 7 8
M  V30 8 1 8 9
M  V30 9 2 9 10
M  V30 10 1 10 11
M  V30 11 2 11 12
M  V30 12 2 3 13
M  V30 13 1 13 14
M  V30 14 2 14 15
M  V30 15 1 15 16
M  V30 16 1 16 17
M  V30 17 2 17 18
M  V30 18 1 18 19
M  V30 19 2 19 20
M  V30 20 1 20 21
M  V30 21 2 21 22
M  V30 22 1 13 23
M  V30 23 2 23 24
M  V30 24 1 23 25
M  V30 25 1 25 26
M  V30 26 1 25 2
M  V30 27 1 12 4
M  V30 28 1 22 14
M  V30 29 1 12 7
M  V30 30 1 22 17
M  V30 31 1 5 27
M  V30 32 1 6 28
M  V30 33 1 8 29
M  V30 34 1 9 30
M  V30 35 1 10 31
M  V30 36 1 11 32
M  V30 37 1 15 33
M  V30 38 1 16 34
M  V30 39 1 19 35
M  V30 40 1 20 36
M  V30 41 1 21 37
M  V30 42 1 26 38
M  V30 END BOND
M  V30 END CTAB
M  END
>  <Dataset>  (785) 
ChEMBL_Kinases

>  <Ligand_Instance>  (785) 
nan

>  <PDB_ID>  (785) 
nan

>  <Standardized_SMILES>  (785) 
O=C1C(c2c[nH]c3ccccc23)=C(c2c[nH]c3ncccc23)C(=O)N1O

>  <Name>  (785) 
nan

>  <Pocket>  (785) 
nan

>  <ATP_Site>  (785) 
nan

>  <Peripheral>  (785) 
nan

>  <Num_H_Atoms_ProtBoundConf>  (785) 
nan

>  <Num_Resolved_Atoms>  (785) 
nan

>  <Num_Not_Resolved_Atoms>  (785) 
nan

$$$$
CHEMBL4237918
     RDKit          3D

  0  0  0  0  0  0  0  0  0  0999 V3000
M  V30 BEGIN CTAB
M  V30 COUNTS 34 36 0 0 0
M  V30 BEGIN ATOM
M  V30 1 N -4.316871 -2.805558 0.485367 0
M  V30 2 C -3.394542 -3.819173 0.803629 0
M  V30 3 O -3.843458 -4.925089 1.175786 0
M  V30 4 C -1.966026 -3.549628 0.690327 0
M  V30 5 C -1.094917 -4.570921 1.011289 0
M  V30 6 C 0.260178 -4.285890 0.894287 0
M  V30 7 C 0.679930 -3.046233 0.479339 0
M  V30 8 C -0.173611 -2.032923 0.160687 0
M  V30 9 C 0.296088 -0.803510 -0.251650 0
M  V30 10 N 1.679955 -0.505886 -0.376420 0
M  V30 11 C 2.226899 0.766788 -0.802580 0
M  V30 12 C 1.861109 1.892539 0.102500 0
M  V30 13 C 0.811493 2.779362 0.000247 0
M  V30 14 C 0.617139 3.760360 0.946848 0
M  V30 15 C 1.447244 3.913944 2.037602 0
M  V30 16 C 2.507490 3.063085 2.193213 0
M  V30 17 C 2.670382 2.094142 1.226783 0
M  V30 18 N -0.693770 0.062146 -0.519275 0
M  V30 19 N -1.982216 -0.198664 -0.411365 0
M  V30 20 N -2.446031 -1.384759 -0.013389 0
M  V30 21 C -1.518892 -2.313664 0.276119 0
M  V30 22 H -5.272823 -2.790419 0.944858 0
M  V30 23 H -4.973128 -2.056110 0.237394 0
M  V30 24 H -1.534709 -5.488676 1.320676 0
M  V30 25 H 0.915702 -5.112810 1.155016 0
M  V30 26 H 1.733787 -2.962740 0.433859 0
M  V30 27 H 2.374216 -1.242884 -0.150153 0
M  V30 28 H 1.929517 0.992475 -1.856303 0
M  V30 29 H 3.332147 0.688959 -0.779161 0
M  V30 30 H 0.181640 2.646474 -0.862702 0
M  V30 31 H -0.250909 4.415219 0.770094 0
M  V30 32 H 1.231730 4.707739 2.739788 0
M  V30 33 H 3.174591 3.142276 3.017214 0
M  V30 34 H 3.529060 1.426546 1.378317 0
M  V30 END ATOM
M  V30 BEGIN BOND
M  V30 1 1 1 2
M  V30 2 2 2 3
M  V30 3 1 2 4
M  V30 4 2 4 5
M  V30 5 1 5 6
M  V30 6 2 6 7
M  V30 7 1 7 8
M  V30 8 2 8 9
M  V30 9 1 9 10
M  V30 10 1 10 11
M  V30 11 1 11 12
M  V30 12 2 12 13
M  V30 13 1 13 14
M  V30 14 2 14 15
M  V30 15 1 15 16
M  V30 16 2 16 17
M  V30 17 1 9 18
M  V30 18 2 18 19
M  V30 19 1 19 20
M  V30 20 2 20 21
M  V30 21 1 21 4
M  V30 22 1 21 8
M  V30 23 1 17 12
M  V30 24 1 1 22
M  V30 25 1 1 23
M  V30 26 1 5 24
M  V30 27 1 6 25
M  V30 28 1 7 26
M  V30 29 1 10 27
M  V30 30 1 11 28
M  V30 31 1 11 29
M  V30 32 1 13 30
M  V30 33 1 14 31
M  V30 34 1 15 32
M  V30 35 1 16 33
M  V30 36 1 17 34
M  V30 END BOND
M  V30 END CTAB
M  END
>  <Dataset>  (786) 
ChEMBL_Kinases

>  <Ligand_Instance>  (786) 
nan

>  <PDB_ID>  (786) 
nan

>  <Standardized_SMILES>  (786) 
NC(=O)c1cccc2c(NCc3ccccc3)nnnc12

>  <Name>  (786) 
nan

>  <Pocket>  (786) 
nan

>  <ATP_Site>  (786) 
nan

>  <Peripheral>  (786) 
nan

>  <Num_H_Atoms_ProtBoundConf>  (786) 
nan

>  <Num_Resolved_Atoms>  (786) 
nan

>  <Num_Not_Resolved_Atoms>  (786) 
nan

$$$$
CHEMBL423781
     RDKit          3D

  0  0  0  0  0  0  0  0  0  0999 V3000
M  V30 BEGIN CTAB
M  V30 COUNTS 42 45 0 0 0
M  V30 BEGIN ATOM
M  V30 1 O 6.166391 -5.283913 1.366632 0
M  V30 2 C 4.946680 -5.415602 1.646260 0
M  V30 3 O 4.980872 -6.689630 2.143896 0
M  V30 4 C 3.946927 -4.377802 1.422315 0
M  V30 5 C 4.449255 -3.216894 0.872150 0
M  V30 6 C 3.493972 -2.215495 0.653888 0
M  V30 7 C 2.153258 -2.427718 0.985268 0
M  V30 8 C 1.163019 -1.379246 0.754422 0
M  V30 9 C 1.360153 -0.123354 0.221147 0
M  V30 10 C 0.168282 0.573791 0.167193 0
M  V30 11 C -0.083103 1.923177 -0.316051 0
M  V30 12 C -0.842427 2.375768 -1.357671 0
M  V30 13 C -0.943230 3.718904 -1.637946 0
M  V30 14 C -0.269888 4.636494 -0.860862 0
M  V30 15 F -0.470362 5.918672 -1.266381 0
M  V30 16 C 0.501014 4.210322 0.193223 0
M  V30 17 C 0.597253 2.864768 0.467790 0
M  V30 18 C -0.786260 -0.286312 0.684654 0
M  V30 19 C -2.219210 -0.097650 0.873051 0
M  V30 20 C -2.591850 -0.059844 2.223175 0
M  V30 21 C -3.915889 0.110707 2.570774 0
M  V30 22 N -4.860075 0.242132 1.613291 0
M  V30 23 C -4.523789 0.208825 0.301496 0
M  V30 24 C -3.204272 0.038737 -0.051922 0
M  V30 25 N -0.163044 -1.431854 1.021675 0
M  V30 26 C 1.743386 -3.626299 1.533381 0
M  V30 27 C 2.643138 -4.655416 1.772683 0
M  V30 28 H 5.361384 -6.987657 3.037278 0
M  V30 29 H 5.483641 -3.080968 0.627806 0
M  V30 30 H 3.802399 -1.270685 0.225070 0
M  V30 31 H 2.320826 0.227366 -0.096581 0
M  V30 32 H -1.319355 1.597677 -1.898294 0
M  V30 33 H -1.583036 3.918119 -2.494731 0
M  V30 34 H 0.985268 5.004811 0.737291 0
M  V30 35 H 1.239405 2.651271 1.327848 0
M  V30 36 H -1.940761 -0.152029 3.088372 0
M  V30 37 H -4.259347 0.147101 3.597849 0
M  V30 38 H -5.256422 0.311206 -0.489726 0
M  V30 39 H -2.878672 0.001164 -1.061667 0
M  V30 40 H -0.600904 -2.286628 1.440212 0
M  V30 41 H 0.708040 -3.809645 1.796983 0
M  V30 42 H 2.362226 -5.598916 2.196473 0
M  V30 END ATOM
M  V30 BEGIN BOND
M  V30 1 2 1 2
M  V30 2 1 2 3
M  V30 3 1 2 4
M  V30 4 2 4 5
M  V30 5 1 5 6
M  V30 6 2 6 7
M  V30 7 1 7 8
M  V30 8 2 8 9
M  V30 9 1 9 10
M  V30 10 1 10 11
M  V30 11 2 11 12
M  V30 12 1 12 13
M  V30 13 2 13 14
M  V30 14 1 14 15
M  V30 15 1 14 16
M  V30 16 2 16 17
M  V30 17 2 10 18
M  V30 18 1 18 19
M  V30 19 2 19 20
M  V30 20 1 20 21
M  V30 21 2 21 22
M  V30 22 1 22 23
M  V30 23 2 23 24
M  V30 24 1 18 25
M  V30 25 1 7 26
M  V30 26 2 26 27
M  V30 27 1 27 4
M  V30 28 1 25 8
M  V30 29 1 17 11
M  V30 30 1 24 19
M  V30 31 1 3 28
M  V30 32 1 5 29
M  V30 33 1 6 30
M  V30 34 1 9 31
M  V30 35 1 12 32
M  V30 36 1 13 33
M  V30 37 1 16 34
M  V30 38 1 17 35
M  V30 39 1 20 36
M  V30 40 1 21 37
M  V30 41 1 23 38
M  V30 42 1 24 39
M  V30 43 1 25 40
M  V30 44 1 26 41
M  V30 45 1 27 42
M  V30 END BOND
M  V30 END CTAB
M  END
>  <Dataset>  (787) 
ChEMBL_Kinases

>  <Ligand_Instance>  (787) 
nan

>  <PDB_ID>  (787) 
nan

>  <Standardized_SMILES>  (787) 
O=C(O)c1ccc(-c2cc(-c3ccc(F)cc3)c(-c3ccncc3)[nH]2)cc1

>  <Name>  (787) 
nan

>  <Pocket>  (787) 
nan

>  <ATP_Site>  (787) 
nan

>  <Peripheral>  (787) 
nan

>  <Num_H_Atoms_ProtBoundConf>  (787) 
nan

>  <Num_Resolved_Atoms>  (787) 
nan

>  <Num_Not_Resolved_Atoms>  (787) 
nan

$$$$
CHEMBL4237479
     RDKit          3D

  0  0  0  0  0  0  0  0  0  0999 V3000
M  V30 BEGIN CTAB
M  V30 COUNTS 62 65 0 0 0
M  V30 BEGIN ATOM
M  V30 1 C 3.205211 0.616543 7.250743 0
M  V30 2 N 2.060837 -0.115484 6.805893 0
M  V30 3 C 2.277062 -1.454149 6.405645 0
M  V30 4 C 2.615049 -1.723566 4.987093 0
M  V30 5 C 1.782814 -0.792514 4.046952 0
M  V30 6 C 0.424821 -1.360933 3.915523 0
M  V30 7 C -0.592682 -0.692662 3.073710 0
M  V30 8 C -1.113732 0.640352 3.437042 0
M  V30 9 O -2.084021 1.133548 2.551850 0
M  V30 10 C -2.009911 1.452452 1.234752 0
M  V30 11 C -3.297961 1.875996 0.860757 0
M  V30 12 C -3.601050 2.287430 -0.439871 0
M  V30 13 C -2.600200 2.277713 -1.392008 0
M  V30 14 C -1.325948 1.869409 -1.062099 0
M  V30 15 C -0.151787 1.803220 -1.973074 0
M  V30 16 C -0.112626 0.447825 -2.585672 0
M  V30 17 O -1.161066 0.234333 -1.888136 0
M  V30 18 N 0.732743 -0.185112 -3.494426 0
M  V30 19 C 0.389683 -1.564050 -3.828483 0
M  V30 20 N -0.462662 -1.887019 -4.890682 0
M  V30 21 C -0.616366 -3.205448 -4.988841 0
M  V30 22 C -1.487135 -3.679872 -6.060631 0
M  V30 23 C -2.126455 -2.832929 -6.934401 0
M  V30 24 C -2.968108 -3.239352 -7.974382 0
M  V30 25 N -3.181980 -4.533869 -8.152211 0
M  V30 26 C -2.579244 -5.431514 -7.321098 0
M  V30 27 C -1.760310 -5.001305 -6.311688 0
M  V30 28 C -0.000156 -4.274008 -4.124505 0
M  V30 29 S 0.946635 -3.031532 -3.010058 0
M  V30 30 C -1.076339 1.474454 0.228916 0
M  V30 31 C 1.910494 0.592772 4.566788 0
M  V30 32 C 1.216036 0.641149 5.897823 0
M  V30 33 H 2.886945 1.697354 7.323199 0
M  V30 34 H 3.448142 0.341588 8.308999 0
M  V30 35 H 4.093464 0.553289 6.590778 0
M  V30 36 H 3.146965 -1.837931 7.016562 0
M  V30 37 H 1.416637 -2.071657 6.780973 0
M  V30 38 H 3.677393 -1.602808 4.741750 0
M  V30 39 H 2.300594 -2.740271 4.713991 0
M  V30 40 H 2.307393 -0.859791 3.073072 0
M  V30 41 H -0.014652 -1.619141 4.937912 0
M  V30 42 H 0.597944 -2.426465 3.503386 0
M  V30 43 H -0.209136 -0.608407 2.003202 0
M  V30 44 H -1.479546 -1.422977 3.009478 0
M  V30 45 H -1.665274 0.541423 4.426781 0
M  V30 46 H -0.409562 1.456050 3.591950 0
M  V30 47 H -4.224104 1.960812 1.446539 0
M  V30 48 H -4.533196 2.625446 -0.832088 0
M  V30 49 H -2.722516 2.574033 -2.424961 0
M  V30 50 H -0.217458 2.544338 -2.787687 0
M  V30 51 H 0.783959 2.022320 -1.425471 0
M  V30 52 H 1.473890 0.459066 -3.775753 0
M  V30 53 H -1.993299 -1.773103 -6.842171 0
M  V30 54 H -3.430326 -2.511339 -8.614863 0
M  V30 55 H -2.754137 -6.487591 -7.466443 0
M  V30 56 H -1.317857 -5.770655 -5.693609 0
M  V30 57 H -0.099037 -5.222097 -4.180223 0
M  V30 58 H -0.120640 1.160710 0.567416 0
M  V30 59 H 1.684833 1.332820 3.828689 0
M  V30 60 H 3.025828 0.717355 4.829421 0
M  V30 61 H 0.228976 0.142131 5.925975 0
M  V30 62 H 1.064951 1.661382 6.275682 0
M  V30 END ATOM
M  V30 BEGIN BOND
M  V30 1 1 1 2
M  V30 2 1 2 3
M  V30 3 1 3 4
M  V30 4 1 4 5
M  V30 5 1 5 6
M  V30 6 1 6 7
M  V30 7 1 7 8
M  V30 8 1 8 9
M  V30 9 1 9 10
M  V30 10 2 10 11
M  V30 11 1 11 12
M  V30 12 2 12 13
M  V30 13 1 13 14
M  V30 14 1 14 15
M  V30 15 1 15 16
M  V30 16 2 16 17
M  V30 17 1 16 18
M  V30 18 1 18 19
M  V30 19 2 19 20
M  V30 20 1 20 21
M  V30 21 1 21 22
M  V30 22 2 22 23
M  V30 23 1 23 24
M  V30 24 2 24 25
M  V30 25 1 25 26
M  V30 26 2 26 27
M  V30 27 2 21 28
M  V30 28 1 28 29
M  V30 29 2 14 30
M  V30 30 1 5 31
M  V30 31 1 31 32
M  V30 32 1 32 2
M  V30 33 1 30 10
M  V30 34 1 29 19
M  V30 35 1 27 22
M  V30 36 1 1 33
M  V30 37 1 1 34
M  V30 38 1 1 35
M  V30 39 1 3 36
M  V30 40 1 3 37
M  V30 41 1 4 38
M  V30 42 1 4 39
M  V30 43 1 5 40
M  V30 44 1 6 41
M  V30 45 1 6 42
M  V30 46 1 7 43
M  V30 47 1 7 44
M  V30 48 1 8 45
M  V30 49 1 8 46
M  V30 50 1 11 47
M  V30 51 1 12 48
M  V30 52 1 13 49
M  V30 53 1 15 50
M  V30 54 1 15 51
M  V30 55 1 18 52
M  V30 56 1 23 53
M  V30 57 1 24 54
M  V30 58 1 26 55
M  V30 59 1 27 56
M  V30 60 1 28 57
M  V30 61 1 30 58
M  V30 62 1 31 59
M  V30 63 1 31 60
M  V30 64 1 32 61
M  V30 65 1 32 62
M  V30 END BOND
M  V30 END CTAB
M  END
>  <Dataset>  (788) 
ChEMBL_Kinases

>  <Ligand_Instance>  (788) 
nan

>  <PDB_ID>  (788) 
nan

>  <Standardized_SMILES>  (788) 
CN1CCC(CCCOc2cccc(CC(=O)Nc3nc(-c4ccncc4)cs3)c2)CC1

>  <Name>  (788) 
nan

>  <Pocket>  (788) 
nan

>  <ATP_Site>  (788) 
nan

>  <Peripheral>  (788) 
nan

>  <Num_H_Atoms_ProtBoundConf>  (788) 
nan

>  <Num_Resolved_Atoms>  (788) 
nan

>  <Num_Not_Resolved_Atoms>  (788) 
nan

$$$$
CHEMBL4237434
     RDKit          3D

  0  0  0  0  0  0  0  0  0  0999 V3000
M  V30 BEGIN CTAB
M  V30 COUNTS 49 51 0 0 0
M  V30 BEGIN ATOM
M  V30 1 C -2.772680 -3.853422 3.213540 0
M  V30 2 C -1.969841 -3.869845 1.951128 0
M  V30 3 N -2.735952 -4.062809 0.744351 0
M  V30 4 C -1.937566 -4.071336 -0.449922 0
M  V30 5 C -1.386890 -2.718759 -0.737012 0
M  V30 6 N -2.226133 -1.650017 -0.288775 0
M  V30 7 C -1.902286 -0.352200 0.175706 0
M  V30 8 O -2.836398 0.442691 0.524535 0
M  V30 9 C -0.584546 0.244731 0.323835 0
M  V30 10 O -0.213849 0.870715 1.433631 0
M  V30 11 C 1.017913 1.319738 1.318389 0
M  V30 12 C 1.836022 2.020444 2.180208 0
M  V30 13 C 1.325229 2.378125 3.496984 0
M  V30 14 N 2.110876 3.108134 4.432065 0
M  V30 15 O 0.172453 2.076397 3.903207 0
M  V30 16 C 3.118272 2.395582 1.847956 0
M  V30 17 O 3.977838 3.100832 2.677432 0
M  V30 18 C 3.565595 2.039165 0.596870 0
M  V30 19 C 2.776890 1.338980 -0.293014 0
M  V30 20 O 3.276058 0.998465 -1.556068 0
M  V30 21 C 4.567360 1.329474 -2.000839 0
M  V30 22 C 1.506845 0.987709 0.083975 0
M  V30 23 C 0.495347 0.315485 -0.529690 0
M  V30 24 C 0.520028 -0.259598 -1.896688 0
M  V30 25 C -3.613368 -2.063744 -0.356333 0
M  V30 26 C -3.885076 -3.187990 0.634994 0
M  V30 27 H -2.954816 -2.811020 3.591479 0
M  V30 28 H -2.156439 -4.316920 4.030606 0
M  V30 29 H -3.711636 -4.449782 3.174669 0
M  V30 30 H -1.229462 -4.695391 2.012428 0
M  V30 31 H -1.383580 -2.921965 1.928303 0
M  V30 32 H -1.099883 -4.801743 -0.278294 0
M  V30 33 H -2.559991 -4.479903 -1.286875 0
M  V30 34 H -1.235686 -2.551432 -1.838596 0
M  V30 35 H -0.414313 -2.613788 -0.201526 0
M  V30 36 H 2.791361 3.888880 4.512858 0
M  V30 37 H 2.141875 2.933025 5.479075 0
M  V30 38 H 4.473599 2.590666 3.400645 0
M  V30 39 H 4.562931 2.323027 0.318740 0
M  V30 40 H 5.351849 1.254869 -1.225849 0
M  V30 41 H 4.590770 2.326521 -2.517221 0
M  V30 42 H 4.852883 0.604222 -2.789591 0
M  V30 43 H 1.138374 0.372784 -2.591001 0
M  V30 44 H -0.511354 -0.238622 -2.300541 0
M  V30 45 H 0.863732 -1.314327 -1.903182 0
M  V30 46 H -3.935245 -2.367615 -1.374854 0
M  V30 47 H -4.242338 -1.188945 -0.103577 0
M  V30 48 H -4.224263 -2.739757 1.566706 0
M  V30 49 H -4.717608 -3.787182 0.210733 0
M  V30 END ATOM
M  V30 BEGIN BOND
M  V30 1 1 1 2
M  V30 2 1 2 3
M  V30 3 1 3 4
M  V30 4 1 4 5
M  V30 5 1 5 6
M  V30 6 1 6 7
M  V30 7 2 7 8
M  V30 8 1 7 9
M  V30 9 1 9 10
M  V30 10 1 10 11
M  V30 11 2 11 12
M  V30 12 1 12 13
M  V30 13 1 13 14
M  V30 14 2 13 15
M  V30 15 1 12 16
M  V30 16 1 16 17
M  V30 17 2 16 18
M  V30 18 1 18 19
M  V30 19 1 19 20
M  V30 20 1 20 21
M  V30 21 2 19 22
M  V30 22 1 22 23
M  V30 23 1 23 24
M  V30 24 1 6 25
M  V30 25 1 25 26
M  V30 26 1 26 3
M  V30 27 2 23 9
M  V30 28 1 22 11
M  V30 29 1 1 27
M  V30 30 1 1 28
M  V30 31 1 1 29
M  V30 32 1 2 30
M  V30 33 1 2 31
M  V30 34 1 4 32
M  V30 35 1 4 33
M  V30 36 1 5 34
M  V30 37 1 5 35
M  V30 38 1 14 36
M  V30 39 1 14 37
M  V30 40 1 17 38
M  V30 41 1 18 39
M  V30 42 1 21 40
M  V30 43 1 21 41
M  V30 44 1 21 42
M  V30 45 1 24 43
M  V30 46 1 24 44
M  V30 47 1 24 45
M  V30 48 1 25 46
M  V30 49 1 25 47
M  V30 50 1 26 48
M  V30 51 1 26 49
M  V30 END BOND
M  V30 END CTAB
M  END
>  <Dataset>  (789) 
ChEMBL_Kinases

>  <Ligand_Instance>  (789) 
nan

>  <PDB_ID>  (789) 
nan

>  <Standardized_SMILES>  (789) 
CCN1CCN(C(=O)c2oc3c(C(N)=O)c(O)cc(OC)c3c2C)CC1

>  <Name>  (789) 
nan

>  <Pocket>  (789) 
nan

>  <ATP_Site>  (789) 
nan

>  <Peripheral>  (789) 
nan

>  <Num_H_Atoms_ProtBoundConf>  (789) 
nan

>  <Num_Resolved_Atoms>  (789) 
nan

>  <Num_Not_Resolved_Atoms>  (789) 
nan

$$$$
CHEMBL4242054
     RDKit          3D

  0  0  0  0  0  0  0  0  0  0999 V3000
M  V30 BEGIN CTAB
M  V30 COUNTS 61 65 0 0 0
M  V30 BEGIN ATOM
M  V30 1 C 2.491754 -2.171572 4.963203 0
M  V30 2 C 1.283224 -1.394642 5.365522 0
M  V30 3 O 0.513974 -0.938867 4.276026 0
M  V30 4 C 0.978609 -0.100031 3.293858 0
M  V30 5 C 2.248290 0.441956 3.186744 0
M  V30 6 C 2.584018 1.279471 2.136255 0
M  V30 7 C 3.942781 1.805991 2.097553 0
M  V30 8 N 4.605177 2.700726 2.863584 0
M  V30 9 N 5.845790 2.849993 2.421235 0
M  V30 10 C 5.962150 2.028009 1.351835 0
M  V30 11 N 4.794053 1.382287 1.147151 0
M  V30 12 C 4.596565 0.433608 0.080805 0
M  V30 13 C 1.661633 1.607296 1.151964 0
M  V30 14 C 0.399865 1.056956 1.275687 0
M  V30 15 C 0.037104 0.219721 2.310697 0
M  V30 16 N -1.299219 -0.300199 2.340378 0
M  V30 17 C -2.234652 0.045250 1.324099 0
M  V30 18 N -3.113788 1.064784 1.342749 0
M  V30 19 C -3.954168 1.296257 0.314682 0
M  V30 20 C -3.913709 0.454093 -0.805339 0
M  V30 21 C -4.748227 0.638252 -1.887288 0
M  V30 22 C -4.616654 -0.253738 -2.929154 0
M  V30 23 C -5.498137 -0.098207 -4.129149 0
M  V30 24 N -3.724455 -1.253125 -2.900041 0
M  V30 25 C -2.878970 -1.494832 -1.881627 0
M  V30 26 N -1.938488 -2.565730 -1.896838 0
M  V30 27 C -1.781432 -3.608890 -2.929507 0
M  V30 28 C -0.302119 -3.569804 -2.623759 0
M  V30 29 C -0.858124 -3.217054 -1.231676 0
M  V30 30 C -1.227625 -4.520407 -0.539041 0
M  V30 31 C 0.092997 -2.424059 -0.410417 0
M  V30 32 C -3.017021 -0.592328 -0.834752 0
M  V30 33 N -2.220986 -0.743169 0.235778 0
M  V30 34 H 3.409996 -1.780975 5.457800 0
M  V30 35 H 2.374837 -3.213326 5.381128 0
M  V30 36 H 2.602656 -2.229263 3.860062 0
M  V30 37 H 1.636059 -0.457645 5.886640 0
M  V30 38 H 0.675826 -1.922353 6.106605 0
M  V30 39 H 2.942981 0.156803 3.984753 0
M  V30 40 H 6.872484 1.924334 0.765106 0
M  V30 41 H 5.525785 -0.092349 -0.204056 0
M  V30 42 H 3.844381 -0.332144 0.372604 0
M  V30 43 H 4.216684 0.987474 -0.804197 0
M  V30 44 H 1.967821 2.265486 0.349442 0
M  V30 45 H -0.323523 1.304668 0.517172 0
M  V30 46 H -1.562485 -0.931420 3.119884 0
M  V30 47 H -4.646093 2.111740 0.348559 0
M  V30 48 H -5.452476 1.458224 -1.867191 0
M  V30 49 H -5.691378 -1.121702 -4.508220 0
M  V30 50 H -6.472506 0.353946 -3.873351 0
M  V30 51 H -4.989512 0.465488 -4.952511 0
M  V30 52 H -2.081317 -3.331606 -3.937248 0
M  V30 53 H -2.161300 -4.611545 -2.572361 0
M  V30 54 H 0.242082 -4.515088 -2.681623 0
M  V30 55 H 0.153741 -2.687942 -3.129491 0
M  V30 56 H -0.839810 -4.564819 0.507917 0
M  V30 57 H -2.351476 -4.636424 -0.518509 0
M  V30 58 H -0.864796 -5.418123 -1.078360 0
M  V30 59 H 1.094133 -2.952431 -0.501545 0
M  V30 60 H -0.149507 -2.539403 0.670406 0
M  V30 61 H 0.288689 -1.408217 -0.745202 0
M  V30 END ATOM
M  V30 BEGIN BOND
M  V30 1 1 1 2
M  V30 2 1 2 3
M  V30 3 1 3 4
M  V30 4 2 4 5
M  V30 5 1 5 6
M  V30 6 1 6 7
M  V30 7 2 7 8
M  V30 8 1 8 9
M  V30 9 2 9 10
M  V30 10 1 10 11
M  V30 11 1 11 12
M  V30 12 2 6 13
M  V30 13 1 13 14
M  V30 14 2 14 15
M  V30 15 1 15 16
M  V30 16 1 16 17
M  V30 17 2 17 18
M  V30 18 1 18 19
M  V30 19 2 19 20
M  V30 20 1 20 21
M  V30 21 2 21 22
M  V30 22 1 22 23
M  V30 23 1 22 24
M  V30 24 2 24 25
M  V30 25 1 25 26
M  V30 26 1 26 27
M  V30 27 1 27 28
M  V30 28 1 28 29
M  V30 29 1 29 30
M  V30 30 1 29 31
M  V30 31 1 25 32
M  V30 32 2 32 33
M  V30 33 1 15 4
M  V30 34 1 33 17
M  V30 35 1 11 7
M  V30 36 1 32 20
M  V30 37 1 29 26
M  V30 38 1 1 34
M  V30 39 1 1 35
M  V30 40 1 1 36
M  V30 41 1 2 37
M  V30 42 1 2 38
M  V30 43 1 5 39
M  V30 44 1 10 40
M  V30 45 1 12 41
M  V30 46 1 12 42
M  V30 47 1 12 43
M  V30 48 1 13 44
M  V30 49 1 14 45
M  V30 50 1 16 46
M  V30 51 1 19 47
M  V30 52 1 21 48
M  V30 53 1 23 49
M  V30 54 1 23 50
M  V30 55 1 23 51
M  V30 56 1 27 52
M  V30 57 1 27 53
M  V30 58 1 28 54
M  V30 59 1 28 55
M  V30 60 1 30 56
M  V30 61 1 30 57
M  V30 62 1 30 58
M  V30 63 1 31 59
M  V30 64 1 31 60
M  V30 65 1 31 61
M  V30 END BOND
M  V30 END CTAB
M  END
>  <Dataset>  (790) 
ChEMBL_Kinases

>  <Ligand_Instance>  (790) 
nan

>  <PDB_ID>  (790) 
nan

>  <Standardized_SMILES>  (790) 
CCOc1cc(-c2nncn2C)ccc1Nc1ncc2cc(C)nc(N3CCC3(C)C)c2n1

>  <Name>  (790) 
nan

>  <Pocket>  (790) 
nan

>  <ATP_Site>  (790) 
nan

>  <Peripheral>  (790) 
nan

>  <Num_H_Atoms_ProtBoundConf>  (790) 
nan

>  <Num_Resolved_Atoms>  (790) 
nan

>  <Num_Not_Resolved_Atoms>  (790) 
nan

$$$$
CHEMBL4229260
     RDKit          3D

  0  0  0  0  0  0  0  0  0  0999 V3000
M  V30 BEGIN CTAB
M  V30 COUNTS 39 41 0 0 0
M  V30 BEGIN ATOM
M  V30 1 O 0.656845 -1.825017 0.825007 0
M  V30 2 C 1.187108 -0.769269 1.301881 0
M  V30 3 N 2.117984 -1.027784 2.370185 0
M  V30 4 O 2.174817 -2.382859 2.582030 0
M  V30 5 C 3.189727 -2.845195 1.744166 0
M  V30 6 C 3.356716 -4.357062 1.883793 0
M  V30 7 O 4.384479 -4.726110 1.016159 0
M  V30 8 C 0.833776 0.511533 0.766936 0
M  V30 9 C 1.403422 1.663029 1.277590 0
M  V30 10 C 1.011475 2.871091 0.707452 0
M  V30 11 C 1.388955 4.186970 0.985371 0
M  V30 12 C 0.667833 4.966396 0.094249 0
M  V30 13 O -0.088442 4.200357 -0.667122 0
M  V30 14 C 0.084258 2.936118 -0.335849 0
M  V30 15 C -0.447846 1.746926 -0.800425 0
M  V30 16 F -1.356975 1.778893 -1.819889 0
M  V30 17 C -0.076308 0.514713 -0.250453 0
M  V30 18 N -0.663448 -0.659566 -0.778140 0
M  V30 19 C -1.882830 -1.106826 -0.172035 0
M  V30 20 C -2.409715 -0.383629 0.873000 0
M  V30 21 C -3.588858 -0.788909 1.482359 0
M  V30 22 C -4.254580 -1.918535 1.056617 0
M  V30 23 I -6.043521 -2.547259 1.969263 0
M  V30 24 C -3.680132 -2.600569 0.008209 0
M  V30 25 C -2.514316 -2.256074 -0.642291 0
M  V30 26 F -2.010064 -2.976375 -1.666506 0
M  V30 27 H 2.573869 -0.189147 2.787697 0
M  V30 28 H 2.925889 -2.638128 0.692412 0
M  V30 29 H 4.169052 -2.385592 1.983626 0
M  V30 30 H 3.575727 -4.672432 2.905426 0
M  V30 31 H 2.443220 -4.877544 1.475012 0
M  V30 32 H 4.893723 -3.945325 0.678882 0
M  V30 33 H 2.125076 1.671738 2.083110 0
M  V30 34 H 2.091250 4.535818 1.732045 0
M  V30 35 H 0.678679 6.048903 -0.012029 0
M  V30 36 H -0.244892 -1.192702 -1.573022 0
M  V30 37 H -1.921941 0.515164 1.245702 0
M  V30 38 H -4.005712 -0.212490 2.312776 0
M  V30 39 H -4.157338 -3.504057 -0.377080 0
M  V30 END ATOM
M  V30 BEGIN BOND
M  V30 1 2 1 2
M  V30 2 1 2 3
M  V30 3 1 3 4
M  V30 4 1 4 5
M  V30 5 1 5 6
M  V30 6 1 6 7
M  V30 7 1 2 8
M  V30 8 2 8 9
M  V30 9 1 9 10
M  V30 10 1 10 11
M  V30 11 2 11 12
M  V30 12 1 12 13
M  V30 13 1 13 14
M  V30 14 1 14 15
M  V30 15 1 15 16
M  V30 16 2 15 17
M  V30 17 1 17 18
M  V30 18 1 18 19
M  V30 19 2 19 20
M  V30 20 1 20 21
M  V30 21 2 21 22
M  V30 22 1 22 23
M  V30 23 1 22 24
M  V30 24 2 24 25
M  V30 25 1 25 26
M  V30 26 1 17 8
M  V30 27 1 25 19
M  V30 28 2 14 10
M  V30 29 1 3 27
M  V30 30 1 5 28
M  V30 31 1 5 29
M  V30 32 1 6 30
M  V30 33 1 6 31
M  V30 34 1 7 32
M  V30 35 1 9 33
M  V30 36 1 11 34
M  V30 37 1 12 35
M  V30 38 1 18 36
M  V30 39 1 20 37
M  V30 40 1 21 38
M  V30 41 1 24 39
M  V30 END BOND
M  V30 END CTAB
M  END
>  <Dataset>  (791) 
ChEMBL_Kinases

>  <Ligand_Instance>  (791) 
nan

>  <PDB_ID>  (791) 
nan

>  <Standardized_SMILES>  (791) 
O=C(NOCCO)c1cc2ccoc2c(F)c1Nc1ccc(I)cc1F

>  <Name>  (791) 
nan

>  <Pocket>  (791) 
nan

>  <ATP_Site>  (791) 
nan

>  <Peripheral>  (791) 
nan

>  <Num_H_Atoms_ProtBoundConf>  (791) 
nan

>  <Num_Resolved_Atoms>  (791) 
nan

>  <Num_Not_Resolved_Atoms>  (791) 
nan

$$$$
CHEMBL4229210
     RDKit          3D

  0  0  0  0  0  0  0  0  0  0999 V3000
M  V30 BEGIN CTAB
M  V30 COUNTS 69 73 0 0 0
M  V30 BEGIN ATOM
M  V30 1 C 4.464271 -2.894484 1.754775 0
M  V30 2 C 3.881790 -3.207869 0.428341 0
M  V30 3 C 2.831351 -2.567868 -0.143033 0
M  V30 4 C 2.388458 -1.523413 0.789654 0
M  V30 5 O 2.774036 -1.143589 1.938725 0
M  V30 6 N 1.304763 -0.602699 0.583147 0
M  V30 7 C 1.277760 0.201501 1.782839 0
M  V30 8 C 0.487275 -0.239426 2.853182 0
M  V30 9 C 0.455324 0.512363 3.992016 0
M  V30 10 C 1.178118 1.684363 4.106078 0
M  V30 11 N 1.295843 2.580114 5.120577 0
M  V30 12 N 2.121634 3.509308 4.668260 0
M  V30 13 C 2.540939 3.271928 3.430895 0
M  V30 14 C 1.951687 2.088296 3.016282 0
M  V30 15 C 2.008355 1.364404 1.867184 0
M  V30 16 C 2.205033 -2.805895 -1.423945 0
M  V30 17 C 0.759143 -3.025824 -1.509782 0
M  V30 18 C 0.086349 -3.980554 -0.744514 0
M  V30 19 C -1.268237 -4.183788 -0.876373 0
M  V30 20 C -1.996889 -3.428213 -1.788859 0
M  V30 21 F -3.351774 -3.627666 -1.928672 0
M  V30 22 C -1.404716 -2.462160 -2.585039 0
M  V30 23 C -2.141471 -1.652643 -3.578754 0
M  V30 24 C -2.986539 -0.559564 -3.036818 0
M  V30 25 C -2.298496 0.473176 -2.268581 0
M  V30 26 O -1.069919 0.436821 -2.010104 0
M  V30 27 N -3.080258 1.580130 -1.792681 0
M  V30 28 C -2.400300 2.599650 -1.031269 0
M  V30 29 C -1.778365 2.079600 0.252047 0
M  V30 30 C -2.854753 1.521771 1.116496 0
M  V30 31 C -3.245509 0.198327 1.067456 0
M  V30 32 C -4.266254 -0.236462 1.904064 0
M  V30 33 C -4.915743 0.595247 2.791013 0
M  V30 34 C -4.530482 1.937845 2.852856 0
M  V30 35 C -3.510343 2.338475 2.005281 0
M  V30 36 C -0.067431 -2.319380 -2.397884 0
M  V30 37 N 2.940114 -3.932055 -2.025790 0
M  V30 38 C 4.039138 -4.718240 -1.609878 0
M  V30 39 O 4.544734 -5.647284 -2.267759 0
M  V30 40 N 4.480638 -4.291110 -0.325273 0
M  V30 41 H 5.296602 -3.642858 1.929962 0
M  V30 42 H 3.783185 -3.065012 2.606693 0
M  V30 43 H 4.926072 -1.883927 1.721035 0
M  V30 44 H 0.775116 -0.658966 -0.311625 0
M  V30 45 H -0.096382 -1.165690 2.790637 0
M  V30 46 H -0.167497 0.161538 4.832549 0
M  V30 47 H 0.821979 2.516924 6.051981 0
M  V30 48 H 3.215666 3.880836 2.848377 0
M  V30 49 H 2.602396 1.658341 1.013248 0
M  V30 50 H 2.435425 -1.942734 -2.077845 0
M  V30 51 H 0.695912 -4.547567 -0.042228 0
M  V30 52 H -1.749976 -4.946417 -0.250637 0
M  V30 53 H -1.381501 -1.167368 -4.266353 0
M  V30 54 H -2.713707 -2.318550 -4.286329 0
M  V30 55 H -3.568753 -0.053801 -3.853976 0
M  V30 56 H -3.802140 -1.059488 -2.434019 0
M  V30 57 H -4.101114 1.619090 -2.005834 0
M  V30 58 H -3.177801 3.342395 -0.693548 0
M  V30 59 H -1.666936 3.157432 -1.614996 0
M  V30 60 H -0.958267 1.377500 0.108321 0
M  V30 61 H -1.365927 2.964037 0.780995 0
M  V30 62 H -2.775198 -0.493672 0.399588 0
M  V30 63 H -4.619535 -1.260582 1.912782 0
M  V30 64 H -5.713546 0.299700 3.458431 0
M  V30 65 H -5.008098 2.652499 3.539506 0
M  V30 66 H -3.196447 3.390800 2.042087 0
M  V30 67 H 0.471463 -1.589105 -2.987689 0
M  V30 68 H 2.493348 -4.125096 -2.951887 0
M  V30 69 H 5.305228 -4.829171 0.068935 0
M  V30 END ATOM
M  V30 BEGIN BOND
M  V30 1 1 1 2
M  V30 2 2 2 3
M  V30 3 1 3 4
M  V30 4 2 4 5
M  V30 5 1 4 6
M  V30 6 1 6 7
M  V30 7 2 7 8
M  V30 8 1 8 9
M  V30 9 2 9 10
M  V30 10 1 10 11
M  V30 11 1 11 12
M  V30 12 2 12 13
M  V30 13 1 13 14
M  V30 14 2 14 15
M  V30 15 1 3 16
M  V30 16 1 16 17
M  V30 17 2 17 18
M  V30 18 1 18 19
M  V30 19 2 19 20
M  V30 20 1 20 21
M  V30 21 1 20 22
M  V30 22 1 22 23
M  V30 23 1 23 24
M  V30 24 1 24 25
M  V30 25 2 25 26
M  V30 26 1 25 27
M  V30 27 1 27 28
M  V30 28 1 28 29
M  V30 29 1 29 30
M  V30 30 2 30 31
M  V30 31 1 31 32
M  V30 32 2 32 33
M  V30 33 1 33 34
M  V30 34 2 34 35
M  V30 35 2 22 36
M  V30 36 1 16 37
M  V30 37 1 37 38
M  V30 38 2 38 39
M  V30 39 1 38 40
M  V30 40 1 40 2
M  V30 41 1 15 7
M  V30 42 1 36 17
M  V30 43 1 14 10
M  V30 44 1 35 30
M  V30 45 1 1 41
M  V30 46 1 1 42
M  V30 47 1 1 43
M  V30 48 1 6 44
M  V30 49 1 8 45
M  V30 50 1 9 46
M  V30 51 1 11 47
M  V30 52 1 13 48
M  V30 53 1 15 49
M  V30 54 1 16 50
M  V30 55 1 18 51
M  V30 56 1 19 52
M  V30 57 1 23 53
M  V30 58 1 23 54
M  V30 59 1 24 55
M  V30 60 1 24 56
M  V30 61 1 27 57
M  V30 62 1 28 58
M  V30 63 1 28 59
M  V30 64 1 29 60
M  V30 65 1 29 61
M  V30 66 1 31 62
M  V30 67 1 32 63
M  V30 68 1 33 64
M  V30 69 1 34 65
M  V30 70 1 35 66
M  V30 71 1 36 67
M  V30 72 1 37 68
M  V30 73 1 40 69
M  V30 END BOND
M  V30 END CTAB
M  END
>  <Dataset>  (792) 
ChEMBL_Kinases

>  <Ligand_Instance>  (792) 
nan

>  <PDB_ID>  (792) 
nan

>  <Standardized_SMILES>  (792) 
CC1=C(C(=O)Nc2ccc3[nH]ncc3c2)C(c2ccc(F)c(CCC(=O)NCCc3ccccc3)c2)NC(=O)N1

>  <Name>  (792) 
nan

>  <Pocket>  (792) 
nan

>  <ATP_Site>  (792) 
nan

>  <Peripheral>  (792) 
nan

>  <Num_H_Atoms_ProtBoundConf>  (792) 
nan

>  <Num_Resolved_Atoms>  (792) 
nan

>  <Num_Not_Resolved_Atoms>  (792) 
nan

$$$$
CHEMBL4229169
     RDKit          3D

  0  0  0  0  0  0  0  0  0  0999 V3000
M  V30 BEGIN CTAB
M  V30 COUNTS 45 47 0 0 0
M  V30 BEGIN ATOM
M  V30 1 C 2.176870 -7.031976 0.476031 0
M  V30 2 N 2.081966 -5.601763 0.135164 0
M  V30 3 C 0.827081 -5.024519 0.572374 0
M  V30 4 C 3.241626 -5.087552 -0.550453 0
M  V30 5 O 4.092854 -5.997684 -0.702277 0
M  V30 6 C 3.053500 -3.680097 -0.846401 0
M  V30 7 C 2.764218 -2.805316 0.207439 0
M  V30 8 C 2.566567 -1.451505 -0.037819 0
M  V30 9 C 2.669195 -1.025277 -1.363429 0
M  V30 10 N 2.392504 0.374437 -1.565011 0
M  V30 11 C 1.449693 1.108563 -0.756581 0
M  V30 12 N 1.254395 2.416640 -0.798899 0
M  V30 13 C 0.323291 3.029584 -0.034027 0
M  V30 14 C -0.460787 2.290627 0.827218 0
M  V30 15 C -1.500612 2.788906 1.717700 0
M  V30 16 C -2.219633 3.887704 1.312059 0
M  V30 17 C -3.204767 4.401077 2.118577 0
M  V30 18 C -3.463693 3.791959 3.354647 0
M  V30 19 C -4.502956 4.333266 4.215530 0
M  V30 20 O -4.778361 3.832539 5.338146 0
M  V30 21 O -5.277672 5.447467 3.869411 0
M  V30 22 C -2.753503 2.687069 3.782476 0
M  V30 23 C -1.768469 2.201889 2.935298 0
M  V30 24 C -0.258903 0.922581 0.874525 0
M  V30 25 N 0.687024 0.355497 0.087990 0
M  V30 26 C 2.957064 -1.896562 -2.397226 0
M  V30 27 C 3.152873 -3.241849 -2.149121 0
M  V30 28 H 3.159495 -7.458516 0.282738 0
M  V30 29 H 1.901379 -7.204840 1.526007 0
M  V30 30 H 1.404529 -7.549496 -0.159072 0
M  V30 31 H 0.636446 -4.007596 0.189067 0
M  V30 32 H 0.803791 -4.958088 1.694384 0
M  V30 33 H -0.002886 -5.723255 0.305824 0
M  V30 34 H 2.704031 -3.249068 1.199549 0
M  V30 35 H 2.370272 -0.928048 0.874755 0
M  V30 36 H 2.850577 0.974882 -2.310617 0
M  V30 37 H 0.140727 4.090548 -0.047251 0
M  V30 38 H -2.015052 4.344228 0.368657 0
M  V30 39 H -3.784500 5.266093 1.813924 0
M  V30 40 H -6.234759 5.588949 4.222581 0
M  V30 41 H -3.008206 2.269174 4.749567 0
M  V30 42 H -1.211735 1.326279 3.265373 0
M  V30 43 H -0.777880 0.184239 1.489394 0
M  V30 44 H 3.013538 -1.449449 -3.382573 0
M  V30 45 H 3.377699 -3.914745 -2.985503 0
M  V30 END ATOM
M  V30 BEGIN BOND
M  V30 1 1 1 2
M  V30 2 1 2 3
M  V30 3 1 2 4
M  V30 4 2 4 5
M  V30 5 1 4 6
M  V30 6 2 6 7
M  V30 7 1 7 8
M  V30 8 2 8 9
M  V30 9 1 9 10
M  V30 10 1 10 11
M  V30 11 2 11 12
M  V30 12 1 12 13
M  V30 13 2 13 14
M  V30 14 1 14 15
M  V30 15 2 15 16
M  V30 16 1 16 17
M  V30 17 2 17 18
M  V30 18 1 18 19
M  V30 19 2 19 20
M  V30 20 1 19 21
M  V30 21 1 18 22
M  V30 22 2 22 23
M  V30 23 1 14 24
M  V30 24 2 24 25
M  V30 25 1 9 26
M  V30 26 2 26 27
M  V30 27 1 27 6
M  V30 28 1 25 11
M  V30 29 1 23 15
M  V30 30 1 1 28
M  V30 31 1 1 29
M  V30 32 1 1 30
M  V30 33 1 3 31
M  V30 34 1 3 32
M  V30 35 1 3 33
M  V30 36 1 7 34
M  V30 37 1 8 35
M  V30 38 1 10 36
M  V30 39 1 13 37
M  V30 40 1 16 38
M  V30 41 1 17 39
M  V30 42 1 21 40
M  V30 43 1 22 41
M  V30 44 1 23 42
M  V30 45 1 24 43
M  V30 46 1 26 44
M  V30 47 1 27 45
M  V30 END BOND
M  V30 END CTAB
M  END
>  <Dataset>  (793) 
ChEMBL_Kinases

>  <Ligand_Instance>  (793) 
nan

>  <PDB_ID>  (793) 
nan

>  <Standardized_SMILES>  (793) 
CN(C)C(=O)c1ccc(Nc2ncc(-c3ccc(C(=O)O)cc3)cn2)cc1

>  <Name>  (793) 
nan

>  <Pocket>  (793) 
nan

>  <ATP_Site>  (793) 
nan

>  <Peripheral>  (793) 
nan

>  <Num_H_Atoms_ProtBoundConf>  (793) 
nan

>  <Num_Resolved_Atoms>  (793) 
nan

>  <Num_Not_Resolved_Atoms>  (793) 
nan

$$$$
CHEMBL4229149
     RDKit          3D

  0  0  0  0  0  0  0  0  0  0999 V3000
M  V30 BEGIN CTAB
M  V30 COUNTS 71 74 0 0 0
M  V30 BEGIN ATOM
M  V30 1 C 2.098878 0.117258 6.551021 0
M  V30 2 C 1.970797 -0.995397 5.591136 0
M  V30 3 C 2.031940 -0.623490 4.329667 0
M  V30 4 C 2.205608 0.646168 3.654405 0
M  V30 5 O 2.235123 0.794491 2.376463 0
M  V30 6 N 2.384429 2.006162 3.965824 0
M  V30 7 C 2.498473 2.812646 2.797066 0
M  V30 8 C 3.604739 3.181541 2.070597 0
M  V30 9 C 3.430151 3.983700 0.960580 0
M  V30 10 C 2.195390 4.427712 0.553279 0
M  V30 11 N 1.810391 5.206494 -0.484939 0
M  V30 12 N 0.497614 5.340419 -0.436597 0
M  V30 13 C -0.004098 4.654641 0.630735 0
M  V30 14 C 1.064678 4.059186 1.283737 0
M  V30 15 C 1.233542 3.256524 2.395442 0
M  V30 16 C 1.848172 -1.663340 3.308145 0
M  V30 17 C 0.539864 -1.408161 2.595572 0
M  V30 18 C -0.348274 -0.407100 2.844574 0
M  V30 19 C -1.497526 -0.291921 2.095413 0
M  V30 20 C -1.703502 -1.214996 1.105166 0
M  V30 21 F -2.830576 -1.073697 0.394594 0
M  V30 22 C -0.864972 -2.253483 0.786021 0
M  V30 23 C -1.047432 -3.250529 -0.254951 0
M  V30 24 O -0.160613 -4.157066 -0.420952 0
M  V30 25 N -2.109079 -3.404631 -1.181989 0
M  V30 26 C -2.190571 -4.436564 -2.179382 0
M  V30 27 C -3.526152 -5.144697 -2.126628 0
M  V30 28 C -1.753710 -4.101838 -3.547872 0
M  V30 29 C -2.396955 -3.042699 -4.330709 0
M  V30 30 C -2.366394 -1.643405 -3.842711 0
M  V30 31 C -3.085260 -0.787184 -4.902817 0
M  V30 32 C -3.096705 0.652963 -4.479416 0
M  V30 33 C -2.443198 -0.974633 -6.248936 0
M  V30 34 C 0.278582 -2.324191 1.571045 0
M  V30 35 N 1.891909 -3.007572 3.774682 0
M  V30 36 C 1.813611 -3.435143 5.107694 0
M  V30 37 O 1.713143 -4.629567 5.480374 0
M  V30 38 N 1.861486 -2.341971 6.014168 0
M  V30 39 H 1.214966 0.793830 6.410459 0
M  V30 40 H 3.068168 0.615577 6.561722 0
M  V30 41 H 1.963636 -0.368624 7.569795 0
M  V30 42 H 2.397106 2.132003 4.997212 0
M  V30 43 H 4.507851 2.781323 2.476090 0
M  V30 44 H 4.344699 4.239732 0.429459 0
M  V30 45 H 2.430573 5.638723 -1.212553 0
M  V30 46 H -1.035871 4.565727 0.944637 0
M  V30 47 H 0.275542 3.037246 2.881582 0
M  V30 48 H 2.637071 -1.591711 2.496680 0
M  V30 49 H -0.153165 0.281217 3.628100 0
M  V30 50 H -2.200932 0.502737 2.293321 0
M  V30 51 H -2.877191 -2.714799 -1.081225 0
M  V30 52 H -1.426883 -5.220665 -1.825662 0
M  V30 53 H -4.195969 -4.549315 -1.460914 0
M  V30 54 H -3.996668 -5.256542 -3.129568 0
M  V30 55 H -3.461912 -6.149702 -1.665769 0
M  V30 56 H -1.833635 -5.055710 -4.163135 0
M  V30 57 H -0.642790 -3.852124 -3.470953 0
M  V30 58 H -3.448783 -3.324651 -4.669605 0
M  V30 59 H -1.854000 -3.021688 -5.335606 0
M  V30 60 H -1.298783 -1.315189 -3.784476 0
M  V30 61 H -2.938266 -1.470767 -2.936824 0
M  V30 62 H -4.131211 -1.144276 -4.962970 0
M  V30 63 H -4.029961 1.184572 -4.787472 0
M  V30 64 H -2.269331 1.229682 -4.954360 0
M  V30 65 H -3.052523 0.722458 -3.378556 0
M  V30 66 H -2.610864 -0.031484 -6.820262 0
M  V30 67 H -2.956846 -1.785062 -6.809142 0
M  V30 68 H -1.360446 -1.157066 -6.203500 0
M  V30 69 H 0.981927 -3.128715 1.362140 0
M  V30 70 H 1.992553 -3.731584 3.021290 0
M  V30 71 H 1.815708 -2.511216 7.050160 0
M  V30 END ATOM
M  V30 BEGIN BOND
M  V30 1 1 1 2
M  V30 2 2 2 3
M  V30 3 1 3 4
M  V30 4 2 4 5
M  V30 5 1 4 6
M  V30 6 1 6 7
M  V30 7 2 7 8
M  V30 8 1 8 9
M  V30 9 2 9 10
M  V30 10 1 10 11
M  V30 11 1 11 12
M  V30 12 2 12 13
M  V30 13 1 13 14
M  V30 14 2 14 15
M  V30 15 1 3 16
M  V30 16 1 16 17
M  V30 17 2 17 18
M  V30 18 1 18 19
M  V30 19 2 19 20
M  V30 20 1 20 21
M  V30 21 1 20 22
M  V30 22 1 22 23
M  V30 23 2 23 24
M  V30 24 1 23 25
M  V30 25 1 25 26
M  V30 26 1 26 27
M  V30 27 1 26 28
M  V30 28 1 28 29
M  V30 29 1 29 30
M  V30 30 1 30 31
M  V30 31 1 31 32
M  V30 32 1 31 33
M  V30 33 2 22 34
M  V30 34 1 16 35
M  V30 35 1 35 36
M  V30 36 2 36 37
M  V30 37 1 36 38
M  V30 38 1 38 2
M  V30 39 1 15 7
M  V30 40 1 34 17
M  V30 41 1 14 10
M  V30 42 1 1 39
M  V30 43 1 1 40
M  V30 44 1 1 41
M  V30 45 1 6 42
M  V30 46 1 8 43
M  V30 47 1 9 44
M  V30 48 1 11 45
M  V30 49 1 13 46
M  V30 50 1 15 47
M  V30 51 1 16 48
M  V30 52 1 18 49
M  V30 53 1 19 50
M  V30 54 1 25 51
M  V30 55 1 26 52
M  V30 56 1 27 53
M  V30 57 1 27 54
M  V30 58 1 27 55
M  V30 59 1 28 56
M  V30 60 1 28 57
M  V30 61 1 29 58
M  V30 62 1 29 59
M  V30 63 1 30 60
M  V30 64 1 30 61
M  V30 65 1 31 62
M  V30 66 1 32 63
M  V30 67 1 32 64
M  V30 68 1 32 65
M  V30 69 1 33 66
M  V30 70 1 33 67
M  V30 71 1 33 68
M  V30 72 1 34 69
M  V30 73 1 35 70
M  V30 74 1 38 71
M  V30 END BOND
M  V30 END CTAB
M  END
>  <Dataset>  (794) 
ChEMBL_Kinases

>  <Ligand_Instance>  (794) 
nan

>  <PDB_ID>  (794) 
nan

>  <Standardized_SMILES>  (794) 
CC1=C(C(=O)Nc2ccc3[nH]ncc3c2)C(c2ccc(F)c(C(=O)NC(C)CCCC(C)C)c2)NC(=O)N1

>  <Name>  (794) 
nan

>  <Pocket>  (794) 
nan

>  <ATP_Site>  (794) 
nan

>  <Peripheral>  (794) 
nan

>  <Num_H_Atoms_ProtBoundConf>  (794) 
nan

>  <Num_Resolved_Atoms>  (794) 
nan

>  <Num_Not_Resolved_Atoms>  (794) 
nan

$$$$
CHEMBL4229137
     RDKit          3D

  0  0  0  0  0  0  0  0  0  0999 V3000
M  V30 BEGIN CTAB
M  V30 COUNTS 49 53 0 0 0
M  V30 BEGIN ATOM
M  V30 1 C -0.913246 -1.946708 -3.498320 0
M  V30 2 C 0.196521 -2.006065 -2.491871 0
M  V30 3 C 0.778259 -0.862281 -1.963691 0
M  V30 4 C 1.798209 -0.954299 -1.038702 0
M  V30 5 C 2.334733 0.332450 -0.551051 0
M  V30 6 N 2.933907 1.311467 -1.271528 0
M  V30 7 C 3.279791 2.316285 -0.474954 0
M  V30 8 C 3.907464 3.550268 -0.655183 0
M  V30 9 C 4.113182 4.375386 0.445657 0
M  V30 10 C 3.697896 3.964835 1.683538 0
M  V30 11 N 3.086551 2.761975 1.856505 0
M  V30 12 N 2.914672 2.010843 0.766940 0
M  V30 13 C 2.332839 0.799959 0.748960 0
M  V30 14 C 1.752696 -0.005559 1.840559 0
M  V30 15 C 2.558268 -0.407794 2.885359 0
M  V30 16 C 1.926800 -1.156096 3.856208 0
M  V30 17 N 0.626578 -1.483422 3.813212 0
M  V30 18 C -0.188384 -1.109204 2.811249 0
M  V30 19 N -1.548623 -1.495365 2.838810 0
M  V30 20 C -2.596957 -1.239477 1.928016 0
M  V30 21 O -2.324356 -0.567512 0.921251 0
M  V30 22 C -3.953780 -1.713703 2.105586 0
M  V30 23 C -4.442768 -2.468143 3.154842 0
M  V30 24 C -5.743765 -2.875163 3.243948 0
M  V30 25 C -6.659081 -2.547721 2.270032 0
M  V30 26 N -6.204328 -1.811713 1.236234 0
M  V30 27 C -4.920731 -1.417666 1.160981 0
M  V30 28 C 0.421936 -0.365211 1.838022 0
M  V30 29 C 2.277188 -2.189560 -0.604971 0
M  V30 30 C 1.709970 -3.335814 -1.119982 0
M  V30 31 C 0.685058 -3.215134 -2.049448 0
M  V30 32 F 0.181218 -4.396108 -2.507126 0
M  V30 33 H -1.793637 -2.521377 -3.085939 0
M  V30 34 H -1.247401 -0.872217 -3.512631 0
M  V30 35 H -0.581320 -2.311870 -4.472122 0
M  V30 36 H 0.386037 0.076798 -2.318717 0
M  V30 37 H 4.219766 3.837011 -1.645969 0
M  V30 38 H 4.594145 5.307949 0.272279 0
M  V30 39 H 3.883127 4.651298 2.518806 0
M  V30 40 H 3.608013 -0.163452 2.953543 0
M  V30 41 H 2.467819 -1.515923 4.708714 0
M  V30 42 H -1.867712 -2.071488 3.662660 0
M  V30 43 H -3.748767 -2.741841 3.936319 0
M  V30 44 H -6.047071 -3.463339 4.097408 0
M  V30 45 H -7.691719 -2.860113 2.322604 0
M  V30 46 H -4.652453 -0.820710 0.276388 0
M  V30 47 H -0.126317 -0.017895 1.003246 0
M  V30 48 H 3.083563 -2.179204 0.126340 0
M  V30 49 H 2.089109 -4.294829 -0.776412 0
M  V30 END ATOM
M  V30 BEGIN BOND
M  V30 1 1 1 2
M  V30 2 2 2 3
M  V30 3 1 3 4
M  V30 4 1 4 5
M  V30 5 1 5 6
M  V30 6 2 6 7
M  V30 7 1 7 8
M  V30 8 2 8 9
M  V30 9 1 9 10
M  V30 10 2 10 11
M  V30 11 1 11 12
M  V30 12 1 12 13
M  V30 13 1 13 14
M  V30 14 2 14 15
M  V30 15 1 15 16
M  V30 16 2 16 17
M  V30 17 1 17 18
M  V30 18 1 18 19
M  V30 19 1 19 20
M  V30 20 2 20 21
M  V30 21 1 20 22
M  V30 22 2 22 23
M  V30 23 1 23 24
M  V30 24 2 24 25
M  V30 25 1 25 26
M  V30 26 2 26 27
M  V30 27 2 18 28
M  V30 28 2 4 29
M  V30 29 1 29 30
M  V30 30 2 30 31
M  V30 31 1 31 32
M  V30 32 1 31 2
M  V30 33 2 13 5
M  V30 34 1 28 14
M  V30 35 1 12 7
M  V30 36 1 27 22
M  V30 37 1 1 33
M  V30 38 1 1 34
M  V30 39 1 1 35
M  V30 40 1 3 36
M  V30 41 1 8 37
M  V30 42 1 9 38
M  V30 43 1 10 39
M  V30 44 1 15 40
M  V30 45 1 16 41
M  V30 46 1 19 42
M  V30 47 1 23 43
M  V30 48 1 24 44
M  V30 49 1 25 45
M  V30 50 1 27 46
M  V30 51 1 28 47
M  V30 52 1 29 48
M  V30 53 1 30 49
M  V30 END BOND
M  V30 END CTAB
M  END
>  <Dataset>  (795) 
ChEMBL_Kinases

>  <Ligand_Instance>  (795) 
nan

>  <PDB_ID>  (795) 
nan

>  <Standardized_SMILES>  (795) 
Cc1cc(-c2nc3cccnn3c2-c2ccnc(NC(=O)c3cccnc3)c2)ccc1F

>  <Name>  (795) 
nan

>  <Pocket>  (795) 
nan

>  <ATP_Site>  (795) 
nan

>  <Peripheral>  (795) 
nan

>  <Num_H_Atoms_ProtBoundConf>  (795) 
nan

>  <Num_Resolved_Atoms>  (795) 
nan

>  <Num_Not_Resolved_Atoms>  (795) 
nan

$$$$
CHEMBL4229135
     RDKit          3D

  0  0  0  0  0  0  0  0  0  0999 V3000
M  V30 BEGIN CTAB
M  V30 COUNTS 43 47 0 0 0
M  V30 BEGIN ATOM
M  V30 1 C 2.288597 -2.653949 2.768230 0
M  V30 2 C 2.129199 -1.285125 2.190741 0
M  V30 3 C 2.781936 -0.856866 1.062097 0
M  V30 4 N 2.710437 0.324368 0.470881 0
M  V30 5 C 3.304488 0.826380 -0.617757 0
M  V30 6 C 4.252751 0.265581 -1.561228 0
M  V30 7 C 4.903465 -0.924794 -1.747126 0
M  V30 8 N 5.700102 -0.871883 -2.834491 0
M  V30 9 N 5.603499 0.326373 -3.388568 0
M  V30 10 C 4.736804 1.017245 -2.631961 0
M  V30 11 C 2.787840 2.128628 -0.678446 0
M  V30 12 N 1.943463 2.309377 0.351101 0
M  V30 13 C 1.878724 1.203306 1.078987 0
M  V30 14 C 1.175491 0.871268 2.220080 0
M  V30 15 N 0.301032 1.856005 2.814935 0
M  V30 16 C -1.026469 1.551732 2.225415 0
M  V30 17 C -1.916177 0.759301 2.777356 0
M  V30 18 C -3.018719 0.698202 1.966171 0
M  V30 19 C -4.264120 -0.104627 2.243564 0
M  V30 20 C -4.110690 -1.478203 1.686021 0
M  V30 21 N -3.579570 -2.422003 2.488583 0
M  V30 22 C -3.391353 -3.694471 2.103152 0
M  V30 23 C -3.762297 -4.039363 0.825950 0
M  V30 24 C -4.309949 -3.066403 -0.001821 0
M  V30 25 N -4.479854 -1.794694 0.433809 0
M  V30 26 N -3.197437 1.392991 0.690441 0
M  V30 27 S -1.532781 2.206724 0.744009 0
M  V30 28 N 1.298122 -0.369003 2.776991 0
M  V30 29 H 2.356861 -2.554674 3.859317 0
M  V30 30 H 3.217069 -3.097319 2.341951 0
M  V30 31 H 1.414590 -3.285828 2.526588 0
M  V30 32 H 3.418974 -1.614853 0.646348 0
M  V30 33 H 4.793709 -1.779901 -1.114849 0
M  V30 34 H 6.150415 0.554303 -4.241775 0
M  V30 35 H 4.524543 2.034470 -2.929197 0
M  V30 36 H 2.994170 2.891676 -1.395618 0
M  V30 37 H 0.524406 2.614483 3.499985 0
M  V30 38 H -1.897620 0.204516 3.691558 0
M  V30 39 H -4.330549 -0.165888 3.370818 0
M  V30 40 H -5.187253 0.381607 1.935899 0
M  V30 41 H -2.962590 -4.396583 2.791443 0
M  V30 42 H -3.630245 -5.040403 0.476298 0
M  V30 43 H -4.618046 -3.301085 -1.027092 0
M  V30 END ATOM
M  V30 BEGIN BOND
M  V30 1 1 1 2
M  V30 2 2 2 3
M  V30 3 1 3 4
M  V30 4 1 4 5
M  V30 5 1 5 6
M  V30 6 1 6 7
M  V30 7 2 7 8
M  V30 8 1 8 9
M  V30 9 1 9 10
M  V30 10 2 5 11
M  V30 11 1 11 12
M  V30 12 2 12 13
M  V30 13 1 13 14
M  V30 14 1 14 15
M  V30 15 1 15 16
M  V30 16 2 16 17
M  V30 17 1 17 18
M  V30 18 1 18 19
M  V30 19 1 19 20
M  V30 20 2 20 21
M  V30 21 1 21 22
M  V30 22 2 22 23
M  V30 23 1 23 24
M  V30 24 2 24 25
M  V30 25 2 18 26
M  V30 26 1 26 27
M  V30 27 2 14 28
M  V30 28 1 28 2
M  V30 29 1 13 4
M  V30 30 1 27 16
M  V30 31 2 10 6
M  V30 32 1 25 20
M  V30 33 1 1 29
M  V30 34 1 1 30
M  V30 35 1 1 31
M  V30 36 1 3 32
M  V30 37 1 7 33
M  V30 38 1 9 34
M  V30 39 1 10 35
M  V30 40 1 11 36
M  V30 41 1 15 37
M  V30 42 1 17 38
M  V30 43 1 19 39
M  V30 44 1 19 40
M  V30 45 1 22 41
M  V30 46 1 23 42
M  V30 47 1 24 43
M  V30 END BOND
M  V30 END CTAB
M  END
>  <Dataset>  (796) 
ChEMBL_Kinases

>  <Ligand_Instance>  (796) 
nan

>  <PDB_ID>  (796) 
nan

>  <Standardized_SMILES>  (796) 
Cc1cn2c(-c3cn[nH]c3)cnc2c(Nc2cc(Cc3ncccn3)ns2)n1

>  <Name>  (796) 
nan

>  <Pocket>  (796) 
nan

>  <ATP_Site>  (796) 
nan

>  <Peripheral>  (796) 
nan

>  <Num_H_Atoms_ProtBoundConf>  (796) 
nan

>  <Num_Resolved_Atoms>  (796) 
nan

>  <Num_Not_Resolved_Atoms>  (796) 
nan

$$$$
CHEMBL476532
     RDKit          3D

  0  0  0  0  0  0  0  0  0  0999 V3000
M  V30 BEGIN CTAB
M  V30 COUNTS 50 53 0 0 0
M  V30 BEGIN ATOM
M  V30 1 C 0.567596 0.060857 4.377358 0
M  V30 2 C 1.698775 0.055722 3.413326 0
M  V30 3 C 3.021311 0.171297 3.788128 0
M  V30 4 C 4.052741 0.162816 2.868464 0
M  V30 5 C 3.733985 0.033573 1.532087 0
M  V30 6 N 4.754809 0.016659 0.516778 0
M  V30 7 C 5.032449 1.329439 0.048882 0
M  V30 8 O 4.374848 2.268410 0.567834 0
M  V30 9 C 6.052844 1.568092 -1.003189 0
M  V30 10 C 7.196261 0.683844 -1.226546 0
M  V30 11 C 6.077457 0.567370 -2.199186 0
M  V30 12 C 2.420502 -0.078787 1.189537 0
M  V30 13 C 1.349912 -0.074757 2.085357 0
M  V30 14 C 0.008183 -0.205743 1.529936 0
M  V30 15 C -0.170800 -1.174469 0.564746 0
M  V30 16 C -1.406485 -1.366753 -0.014453 0
M  V30 17 C -2.519399 -0.624718 0.321145 0
M  V30 18 C -3.846988 -0.787125 -0.259819 0
M  V30 19 O -4.766237 -0.005000 0.176711 0
M  V30 20 N -4.108524 -1.780349 -1.275563 0
M  V30 21 C -5.416926 -1.941775 -1.826978 0
M  V30 22 C -6.403927 -2.439220 -0.843748 0
M  V30 23 C -6.214223 -3.824416 -0.220283 0
M  V30 24 C -6.026287 -2.558222 0.605176 0
M  V30 25 C -2.279236 0.326893 1.290054 0
M  V30 26 C -1.066778 0.547283 1.888078 0
M  V30 27 H -0.286675 -0.540582 4.024095 0
M  V30 28 H 0.873822 -0.436366 5.344473 0
M  V30 29 H 0.277027 1.100338 4.692005 0
M  V30 30 H 3.207267 0.269746 4.851003 0
M  V30 31 H 5.077381 0.252970 3.166406 0
M  V30 32 H 5.312298 -0.764666 0.074688 0
M  V30 33 H 6.190499 2.629428 -1.294952 0
M  V30 34 H 8.135605 1.103397 -1.620135 0
M  V30 35 H 7.353185 -0.247567 -0.613958 0
M  V30 36 H 6.124090 1.038558 -3.205797 0
M  V30 37 H 5.322001 -0.226839 -2.105687 0
M  V30 38 H 2.204218 -0.179617 0.121416 0
M  V30 39 H 0.667925 -1.807488 0.242701 0
M  V30 40 H -1.493474 -2.124929 -0.752662 0
M  V30 41 H -3.307564 -2.371359 -1.587872 0
M  V30 42 H -5.335953 -2.706774 -2.661682 0
M  V30 43 H -5.766778 -1.020400 -2.364501 0
M  V30 44 H -7.464849 -2.182781 -1.091028 0
M  V30 45 H -5.361927 -4.412608 -0.556943 0
M  V30 46 H -7.107156 -4.399406 0.048688 0
M  V30 47 H -6.813066 -2.317905 1.361592 0
M  V30 48 H -4.982217 -2.491516 0.948161 0
M  V30 49 H -3.098001 0.961065 1.619627 0
M  V30 50 H -0.941998 1.302940 2.635796 0
M  V30 END ATOM
M  V30 BEGIN BOND
M  V30 1 1 1 2
M  V30 2 2 2 3
M  V30 3 1 3 4
M  V30 4 2 4 5
M  V30 5 1 5 6
M  V30 6 1 6 7
M  V30 7 2 7 8
M  V30 8 1 7 9
M  V30 9 1 9 10
M  V30 10 1 10 11
M  V30 11 1 5 12
M  V30 12 2 12 13
M  V30 13 1 13 14
M  V30 14 2 14 15
M  V30 15 1 15 16
M  V30 16 2 16 17
M  V30 17 1 17 18
M  V30 18 2 18 19
M  V30 19 1 18 20
M  V30 20 1 20 21
M  V30 21 1 21 22
M  V30 22 1 22 23
M  V30 23 1 23 24
M  V30 24 1 17 25
M  V30 25 2 25 26
M  V30 26 1 13 2
M  V30 27 1 26 14
M  V30 28 1 11 9
M  V30 29 1 24 22
M  V30 30 1 1 27
M  V30 31 1 1 28
M  V30 32 1 1 29
M  V30 33 1 3 30
M  V30 34 1 4 31
M  V30 35 1 6 32
M  V30 36 1 9 33
M  V30 37 1 10 34
M  V30 38 1 10 35
M  V30 39 1 11 36
M  V30 40 1 11 37
M  V30 41 1 12 38
M  V30 42 1 15 39
M  V30 43 1 16 40
M  V30 44 1 20 41
M  V30 45 1 21 42
M  V30 46 1 21 43
M  V30 47 1 22 44
M  V30 48 1 23 45
M  V30 49 1 23 46
M  V30 50 1 24 47
M  V30 51 1 24 48
M  V30 52 1 25 49
M  V30 53 1 26 50
M  V30 END BOND
M  V30 END CTAB
M  END
>  <Dataset>  (797) 
ChEMBL_Kinases

>  <Ligand_Instance>  (797) 
nan

>  <PDB_ID>  (797) 
nan

>  <Standardized_SMILES>  (797) 
Cc1ccc(NC(=O)C2CC2)cc1-c1ccc(C(=O)NCC2CC2)cc1

>  <Name>  (797) 
nan

>  <Pocket>  (797) 
nan

>  <ATP_Site>  (797) 
nan

>  <Peripheral>  (797) 
nan

>  <Num_H_Atoms_ProtBoundConf>  (797) 
nan

>  <Num_Resolved_Atoms>  (797) 
nan

>  <Num_Not_Resolved_Atoms>  (797) 
nan

$$$$
CHEMBL4229100
     RDKit          3D

  0  0  0  0  0  0  0  0  0  0999 V3000
M  V30 BEGIN CTAB
M  V30 COUNTS 63 67 0 0 0
M  V30 BEGIN ATOM
M  V30 1 C 1.135238 -2.135642 4.393586 0
M  V30 2 C -0.216525 -1.592493 4.237354 0
M  V30 3 C -0.355565 -0.532627 3.494344 0
M  V30 4 C 0.610601 0.245388 2.763309 0
M  V30 5 O 0.322455 1.279286 2.065753 0
M  V30 6 N 1.992990 0.297794 2.484750 0
M  V30 7 C 2.267394 1.424380 1.621800 0
M  V30 8 C 2.227538 1.247068 0.250193 0
M  V30 9 C 2.492064 2.334366 -0.579925 0
M  V30 10 C 2.781380 3.537502 0.036076 0
M  V30 11 N 3.073082 4.739709 -0.506679 0
M  V30 12 N 3.296551 5.672642 0.419530 0
M  V30 13 C 3.150135 5.077669 1.629628 0
M  V30 14 C 2.826182 3.735343 1.407215 0
M  V30 15 C 2.561290 2.646329 2.236401 0
M  V30 16 C -1.739856 0.051142 3.300005 0
M  V30 17 C -2.099656 0.053695 1.834656 0
M  V30 18 C -2.280636 1.068053 0.920748 0
M  V30 19 C -2.588895 0.751293 -0.363368 0
M  V30 20 C -2.734064 -0.543586 -0.812972 0
M  V30 21 F -3.042205 -0.641616 -2.126015 0
M  V30 22 C -2.556843 -1.560800 0.087485 0
M  V30 23 C -2.722869 -2.906583 -0.443268 0
M  V30 24 O -3.888284 -3.386557 -0.390285 0
M  V30 25 N -1.903742 -3.902001 -1.042138 0
M  V30 26 C -2.826785 -4.981136 -1.295389 0
M  V30 27 C -0.495611 -3.977990 -1.381755 0
M  V30 28 C -0.202738 -3.489460 -2.746587 0
M  V30 29 C 0.112962 -2.192357 -3.107071 0
M  V30 30 C 0.308442 -2.184603 -4.475058 0
M  V30 31 C 0.669954 -0.974492 -5.283272 0
M  V30 32 N 0.110176 -3.447333 -4.893594 0
M  V30 33 N -0.195464 -4.243331 -3.883029 0
M  V30 34 C -2.239793 -1.269681 1.411873 0
M  V30 35 N -2.699040 -0.688112 4.052448 0
M  V30 36 C -2.598471 -1.836343 4.865290 0
M  V30 37 O -3.596503 -2.348241 5.425105 0
M  V30 38 N -1.255136 -2.269551 4.924913 0
M  V30 39 H 1.810965 -1.432033 4.918098 0
M  V30 40 H 1.596711 -2.512895 3.453690 0
M  V30 41 H 1.103211 -3.065091 5.040069 0
M  V30 42 H 2.484034 -0.484886 2.965945 0
M  V30 43 H 1.989254 0.257685 -0.115537 0
M  V30 44 H 2.461307 2.197463 -1.635146 0
M  V30 45 H 3.136705 4.994158 -1.510663 0
M  V30 46 H 3.231741 5.425067 2.663713 0
M  V30 47 H 2.591269 2.780482 3.292743 0
M  V30 48 H -1.695924 1.100454 3.637212 0
M  V30 49 H -2.155325 2.031985 1.380180 0
M  V30 50 H -2.712536 1.628596 -1.014537 0
M  V30 51 H -2.275764 -5.787066 -1.858497 0
M  V30 52 H -3.665004 -4.697054 -1.975423 0
M  V30 53 H -3.223049 -5.459738 -0.383923 0
M  V30 54 H 0.132445 -3.389788 -0.671249 0
M  V30 55 H -0.193522 -5.037766 -1.272059 0
M  V30 56 H 0.196853 -1.334336 -2.464310 0
M  V30 57 H 1.120928 -1.335453 -6.246690 0
M  V30 58 H -0.174556 -0.290388 -5.416541 0
M  V30 59 H 1.481510 -0.389117 -4.767730 0
M  V30 60 H 0.206758 -3.688271 -5.921394 0
M  V30 61 H -2.133714 -2.189599 1.992547 0
M  V30 62 H -3.614246 -0.185485 3.889146 0
M  V30 63 H -1.055272 -3.126617 5.508594 0
M  V30 END ATOM
M  V30 BEGIN BOND
M  V30 1 1 1 2
M  V30 2 2 2 3
M  V30 3 1 3 4
M  V30 4 2 4 5
M  V30 5 1 4 6
M  V30 6 1 6 7
M  V30 7 2 7 8
M  V30 8 1 8 9
M  V30 9 2 9 10
M  V30 10 1 10 11
M  V30 11 1 11 12
M  V30 12 2 12 13
M  V30 13 1 13 14
M  V30 14 2 14 15
M  V30 15 1 3 16
M  V30 16 1 16 17
M  V30 17 2 17 18
M  V30 18 1 18 19
M  V30 19 2 19 20
M  V30 20 1 20 21
M  V30 21 1 20 22
M  V30 22 1 22 23
M  V30 23 2 23 24
M  V30 24 1 23 25
M  V30 25 1 25 26
M  V30 26 1 25 27
M  V30 27 1 27 28
M  V30 28 1 28 29
M  V30 29 2 29 30
M  V30 30 1 30 31
M  V30 31 1 30 32
M  V30 32 1 32 33
M  V30 33 2 22 34
M  V30 34 1 16 35
M  V30 35 1 35 36
M  V30 36 2 36 37
M  V30 37 1 36 38
M  V30 38 1 38 2
M  V30 39 1 15 7
M  V30 40 1 34 17
M  V30 41 1 14 10
M  V30 42 2 33 28
M  V30 43 1 1 39
M  V30 44 1 1 40
M  V30 45 1 1 41
M  V30 46 1 6 42
M  V30 47 1 8 43
M  V30 48 1 9 44
M  V30 49 1 11 45
M  V30 50 1 13 46
M  V30 51 1 15 47
M  V30 52 1 16 48
M  V30 53 1 18 49
M  V30 54 1 19 50
M  V30 55 1 26 51
M  V30 56 1 26 52
M  V30 57 1 26 53
M  V30 58 1 27 54
M  V30 59 1 27 55
M  V30 60 1 29 56
M  V30 61 1 31 57
M  V30 62 1 31 58
M  V30 63 1 31 59
M  V30 64 1 32 60
M  V30 65 1 34 61
M  V30 66 1 35 62
M  V30 67 1 38 63
M  V30 END BOND
M  V30 END CTAB
M  END
>  <Dataset>  (798) 
ChEMBL_Kinases

>  <Ligand_Instance>  (798) 
nan

>  <PDB_ID>  (798) 
nan

>  <Standardized_SMILES>  (798) 
CC1=C(C(=O)Nc2ccc3[nH]ncc3c2)C(c2ccc(F)c(C(=O)N(C)Cc3cc(C)[nH]n3)c2)NC(=O)N1

>  <Name>  (798) 
nan

>  <Pocket>  (798) 
nan

>  <ATP_Site>  (798) 
nan

>  <Peripheral>  (798) 
nan

>  <Num_H_Atoms_ProtBoundConf>  (798) 
nan

>  <Num_Resolved_Atoms>  (798) 
nan

>  <Num_Not_Resolved_Atoms>  (798) 
nan

$$$$
CHEMBL4229079
     RDKit          3D

  0  0  0  0  0  0  0  0  0  0999 V3000
M  V30 BEGIN CTAB
M  V30 COUNTS 81 87 0 0 0
M  V30 BEGIN ATOM
M  V30 1 O 1.429422 -2.710672 -4.303035 0
M  V30 2 C 0.670468 -1.774256 -3.994575 0
M  V30 3 C 0.765254 -0.301522 -4.043122 0
M  V30 4 N 1.994090 0.208219 -4.559101 0
M  V30 5 C 2.020572 1.635602 -4.554635 0
M  V30 6 C 3.170616 2.108181 -3.714302 0
M  V30 7 C 3.717109 0.869704 -3.078284 0 CFG=1
M  V30 8 C 5.233452 0.884132 -3.042405 0
M  V30 9 O 5.759579 0.965490 -4.319099 0
M  V30 10 C 3.184781 0.683198 -1.686076 0
M  V30 11 O 2.532695 -0.318843 -1.276964 0
M  V30 12 N 3.387817 1.670792 -0.681140 0
M  V30 13 C 2.910446 1.547606 0.654183 0
M  V30 14 C 3.886367 0.931045 1.445861 0
M  V30 15 C 3.685276 0.684750 2.792376 0
M  V30 16 C 2.485748 1.060119 3.365560 0
M  V30 17 N 1.957800 0.982450 4.597147 0
M  V30 18 N 0.738055 1.511889 4.579855 0
M  V30 19 C 0.438121 1.948582 3.337949 0
M  V30 20 C -0.807605 2.589093 2.911098 0
M  V30 21 C -0.877142 3.713425 2.117825 0
M  V30 22 C -2.092138 4.237047 1.770766 0
M  V30 23 C -3.213775 3.611192 2.234400 0
M  V30 24 F -4.411442 4.129530 1.890465 0
M  V30 25 C -3.177876 2.471366 3.039443 0
M  V30 26 C -1.947653 1.944452 3.388319 0
M  V30 27 C 1.536010 1.663677 2.580731 0
M  V30 28 C 1.718292 1.916952 1.239096 0
M  V30 29 C 3.186258 -0.252239 -3.925761 0
M  V30 30 N -0.530786 -2.337563 -3.493711 0
M  V30 31 C -0.725017 -3.789028 -3.392671 0
M  V30 32 C -1.037502 -4.002851 -1.931637 0
M  V30 33 C -1.975958 -3.294698 -1.328691 0
M  V30 34 C -2.304963 -3.471478 0.074707 0
M  V30 35 C -1.679538 -4.382373 0.891673 0
M  V30 36 C -1.975561 -4.560124 2.206996 0
M  V30 37 C -2.957630 -3.806030 2.814422 0
M  V30 38 C -3.308332 -3.961976 4.217030 0
M  V30 39 N -4.282374 -3.174051 4.714934 0
M  V30 40 C -4.623133 -3.306601 6.021448 0
M  V30 41 C -4.012159 -4.212818 6.853162 0
M  V30 42 C -3.009486 -5.017658 6.323547 0
M  V30 43 N -2.698454 -4.854896 5.015069 0
M  V30 44 C -3.621830 -2.876829 2.053002 0
M  V30 45 C -3.275951 -2.741276 0.717834 0
M  V30 46 C -2.633367 -2.326209 -2.237308 0
M  V30 47 C -1.634083 -1.531400 -3.057332 0
M  V30 48 H -0.059897 0.031273 -4.719176 0
M  V30 49 H 0.510004 0.165943 -3.061993 0
M  V30 50 H 1.079732 1.998025 -4.073796 0
M  V30 51 H 2.146011 2.065988 -5.572737 0
M  V30 52 H 3.978921 2.531373 -4.366224 0
M  V30 53 H 2.850202 2.868793 -2.958309 0
M  V30 54 H 5.643482 0.080680 -2.430644 0
M  V30 55 H 5.521517 1.848847 -2.534736 0
M  V30 56 H 5.123316 1.019292 -5.043202 0
M  V30 57 H 3.925358 2.546469 -0.946468 0
M  V30 58 H 4.876383 0.582440 1.129968 0
M  V30 59 H 4.387528 0.219017 3.451387 0
M  V30 60 H 2.479463 0.560700 5.394415 0
M  V30 61 H 0.051731 4.156807 1.787133 0
M  V30 62 H -2.090738 5.118133 1.148507 0
M  V30 63 H -4.074114 1.985547 3.399618 0
M  V30 64 H -1.932602 1.057531 4.015016 0
M  V30 65 H 1.062696 2.374792 0.530232 0
M  V30 66 H 3.001568 -1.171315 -3.289551 0
M  V30 67 H 3.964567 -0.580797 -4.653778 0
M  V30 68 H -1.616117 -4.010591 -3.996179 0
M  V30 69 H 0.181899 -4.328607 -3.677070 0
M  V30 70 H -0.464033 -4.749575 -1.419790 0
M  V30 71 H -0.895990 -5.024960 0.520734 0
M  V30 72 H -1.473240 -5.281863 2.837058 0
M  V30 73 H -5.414432 -2.659666 6.408076 0
M  V30 74 H -4.267979 -4.335946 7.901292 0
M  V30 75 H -2.490684 -5.752592 6.932146 0
M  V30 76 H -4.402824 -2.267641 2.508573 0
M  V30 77 H -3.850900 -1.987782 0.199261 0
M  V30 78 H -3.283636 -2.953373 -2.915832 0
M  V30 79 H -3.333548 -1.652702 -1.711505 0
M  V30 80 H -2.196481 -1.264410 -4.000729 0
M  V30 81 H -1.371159 -0.579872 -2.589572 0
M  V30 END ATOM
M  V30 BEGIN BOND
M  V30 1 2 1 2
M  V30 2 1 2 3
M  V30 3 1 3 4
M  V30 4 1 4 5
M  V30 5 1 5 6
M  V30 6 1 6 7
M  V30 7 1 7 8 CFG=1
M  V30 8 1 8 9
M  V30 9 1 7 10
M  V30 10 2 10 11
M  V30 11 1 10 12
M  V30 12 1 12 13
M  V30 13 2 13 14
M  V30 14 1 14 15
M  V30 15 2 15 16
M  V30 16 1 16 17
M  V30 17 1 17 18
M  V30 18 2 18 19
M  V30 19 1 19 20
M  V30 20 2 20 21
M  V30 21 1 21 22
M  V30 22 2 22 23
M  V30 23 1 23 24
M  V30 24 1 23 25
M  V30 25 2 25 26
M  V30 26 1 19 27
M  V30 27 2 27 28
M  V30 28 1 7 29
M  V30 29 1 2 30
M  V30 30 1 30 31
M  V30 31 1 31 32
M  V30 32 2 32 33
M  V30 33 1 33 34
M  V30 34 2 34 35
M  V30 35 1 35 36
M  V30 36 2 36 37
M  V30 37 1 37 38
M  V30 38 2 38 39
M  V30 39 1 39 40
M  V30 40 2 40 41
M  V30 41 1 41 42
M  V30 42 2 42 43
M  V30 43 1 37 44
M  V30 44 2 44 45
M  V30 45 1 33 46
M  V30 46 1 46 47
M  V30 47 1 29 4
M  V30 48 1 47 30
M  V30 49 1 28 13
M  V30 50 1 45 34
M  V30 51 1 27 16
M  V30 52 1 43 38
M  V30 53 1 26 20
M  V30 54 1 3 48
M  V30 55 1 3 49
M  V30 56 1 5 50
M  V30 57 1 5 51
M  V30 58 1 6 52
M  V30 59 1 6 53
M  V30 60 1 8 54
M  V30 61 1 8 55
M  V30 62 1 9 56
M  V30 63 1 12 57
M  V30 64 1 14 58
M  V30 65 1 15 59
M  V30 66 1 17 60
M  V30 67 1 21 61
M  V30 68 1 22 62
M  V30 69 1 25 63
M  V30 70 1 26 64
M  V30 71 1 28 65
M  V30 72 1 29 66
M  V30 73 1 29 67
M  V30 74 1 31 68
M  V30 75 1 31 69
M  V30 76 1 32 70
M  V30 77 1 35 71
M  V30 78 1 36 72
M  V30 79 1 40 73
M  V30 80 1 41 74
M  V30 81 1 42 75
M  V30 82 1 44 76
M  V30 83 1 45 77
M  V30 84 1 46 78
M  V30 85 1 46 79
M  V30 86 1 47 80
M  V30 87 1 47 81
M  V30 END BOND
M  V30 END CTAB
M  END
>  <Dataset>  (799) 
ChEMBL_Kinases

>  <Ligand_Instance>  (799) 
nan

>  <PDB_ID>  (799) 
nan

>  <Standardized_SMILES>  (799) 
O=C(CN1CC[C@@](CO)(C(=O)Nc2ccc3[nH]nc(-c4ccc(F)cc4)c3c2)C1)N1CC=C(c2ccc(-c3ncccn3)cc2)CC1

>  <Name>  (799) 
nan

>  <Pocket>  (799) 
nan

>  <ATP_Site>  (799) 
nan

>  <Peripheral>  (799) 
nan

>  <Num_H_Atoms_ProtBoundConf>  (799) 
nan

>  <Num_Resolved_Atoms>  (799) 
nan

>  <Num_Not_Resolved_Atoms>  (799) 
nan

$$$$
CHEMBL476533
     RDKit          3D

  0  0  0  0  0  0  0  0  0  0999 V3000
M  V30 BEGIN CTAB
M  V30 COUNTS 52 54 0 0 0
M  V30 BEGIN ATOM
M  V30 1 C 3.434402 -5.776636 3.504082 0
M  V30 2 C 4.362433 -5.961257 2.349262 0
M  V30 3 C 3.994638 -5.233969 1.102259 0
M  V30 4 C 3.927929 -3.761197 1.275707 0
M  V30 5 O 4.119688 -2.993426 2.267378 0
M  V30 6 N 3.573182 -3.120500 0.055305 0
M  V30 7 C 3.432014 -1.708321 -0.085410 0
M  V30 8 C 4.542522 -0.948838 -0.448041 0
M  V30 9 C 4.370654 0.414035 -0.575327 0
M  V30 10 C 3.157026 1.038176 -0.359177 0
M  V30 11 C 2.970927 2.501796 -0.498297 0
M  V30 12 C 2.046857 0.303471 0.000395 0
M  V30 13 C 0.703288 0.813479 0.264884 0
M  V30 14 C 0.310914 1.897303 1.021710 0
M  V30 15 C -1.015323 2.223095 1.150288 0
M  V30 16 C -2.024189 1.525190 0.559762 0
M  V30 17 C -3.393214 1.951087 0.757546 0
M  V30 18 O -3.577107 2.981091 1.491540 0
M  V30 19 N -4.553509 1.329698 0.210785 0
M  V30 20 C -5.710131 2.084189 0.664848 0
M  V30 21 C -7.018219 1.572552 0.186244 0
M  V30 22 C -7.494203 0.202758 0.495009 0
M  V30 23 C -7.005917 0.532194 -0.896848 0
M  V30 24 C -1.659611 0.436619 -0.202685 0
M  V30 25 C -0.318455 0.080992 -0.351814 0
M  V30 26 C 2.232528 -1.066895 0.125225 0
M  V30 27 H 3.381373 -6.721131 4.089592 0
M  V30 28 H 3.749415 -4.997193 4.212348 0
M  V30 29 H 2.405996 -5.574177 3.165230 0
M  V30 30 H 4.338888 -7.054396 2.076158 0
M  V30 31 H 5.428322 -5.785684 2.637499 0
M  V30 32 H 2.967235 -5.559127 0.824543 0
M  V30 33 H 4.685811 -5.544333 0.315240 0
M  V30 34 H 3.358406 -3.493773 -0.910490 0
M  V30 35 H 5.504036 -1.413789 -0.622977 0
M  V30 36 H 5.192090 1.054504 -0.853292 0
M  V30 37 H 3.218293 3.021225 0.452872 0
M  V30 38 H 1.926438 2.729588 -0.764997 0
M  V30 39 H 3.631204 2.866977 -1.317943 0
M  V30 40 H 1.137535 2.424408 1.475034 0
M  V30 41 H -1.165190 3.104700 1.779673 0
M  V30 42 H -4.288757 0.506598 -0.366224 0
M  V30 43 H -5.617718 3.162506 0.376939 0
M  V30 44 H -5.707888 2.083629 1.793390 0
M  V30 45 H -7.818370 2.361718 0.120276 0
M  V30 46 H -6.874871 -0.512147 1.066082 0
M  V30 47 H -8.590967 0.050810 0.552937 0
M  V30 48 H -6.062645 0.051258 -1.214728 0
M  V30 49 H -7.755219 0.676828 -1.704508 0
M  V30 50 H -2.396254 -0.150280 -0.690090 0
M  V30 51 H -0.104536 -0.800227 -0.975662 0
M  V30 52 H 1.412591 -1.701719 0.402154 0
M  V30 END ATOM
M  V30 BEGIN BOND
M  V30 1 1 1 2
M  V30 2 1 2 3
M  V30 3 1 3 4
M  V30 4 2 4 5
M  V30 5 1 4 6
M  V30 6 1 6 7
M  V30 7 2 7 8
M  V30 8 1 8 9
M  V30 9 2 9 10
M  V30 10 1 10 11
M  V30 11 1 10 12
M  V30 12 1 12 13
M  V30 13 2 13 14
M  V30 14 1 14 15
M  V30 15 2 15 16
M  V30 16 1 16 17
M  V30 17 2 17 18
M  V30 18 1 17 19
M  V30 19 1 19 20
M  V30 20 1 20 21
M  V30 21 1 21 22
M  V30 22 1 22 23
M  V30 23 1 16 24
M  V30 24 2 24 25
M  V30 25 2 12 26
M  V30 26 1 26 7
M  V30 27 1 25 13
M  V30 28 1 23 21
M  V30 29 1 1 27
M  V30 30 1 1 28
M  V30 31 1 1 29
M  V30 32 1 2 30
M  V30 33 1 2 31
M  V30 34 1 3 32
M  V30 35 1 3 33
M  V30 36 1 6 34
M  V30 37 1 8 35
M  V30 38 1 9 36
M  V30 39 1 11 37
M  V30 40 1 11 38
M  V30 41 1 11 39
M  V30 42 1 14 40
M  V30 43 1 15 41
M  V30 44 1 19 42
M  V30 45 1 20 43
M  V30 46 1 20 44
M  V30 47 1 21 45
M  V30 48 1 22 46
M  V30 49 1 22 47
M  V30 50 1 23 48
M  V30 51 1 23 49
M  V30 52 1 24 50
M  V30 53 1 25 51
M  V30 54 1 26 52
M  V30 END BOND
M  V30 END CTAB
M  END
>  <Dataset>  (800) 
ChEMBL_Kinases

>  <Ligand_Instance>  (800) 
nan

>  <PDB_ID>  (800) 
nan

>  <Standardized_SMILES>  (800) 
CCCC(=O)Nc1ccc(C)c(-c2ccc(C(=O)NCC3CC3)cc2)c1

>  <Name>  (800) 
nan

>  <Pocket>  (800) 
nan

>  <ATP_Site>  (800) 
nan

>  <Peripheral>  (800) 
nan

>  <Num_H_Atoms_ProtBoundConf>  (800) 
nan

>  <Num_Resolved_Atoms>  (800) 
nan

>  <Num_Not_Resolved_Atoms>  (800) 
nan

$$$$
CHEMBL476534
     RDKit          3D

  0  0  0  0  0  0  0  0  0  0999 V3000
M  V30 BEGIN CTAB
M  V30 COUNTS 53 56 0 0 0
M  V30 BEGIN ATOM
M  V30 1 C 1.801057 -3.991307 1.322748 0
M  V30 2 C 2.462783 -2.696108 1.021564 0
M  V30 3 C 3.823272 -2.571992 1.132626 0
M  V30 4 C 4.355294 -1.337975 0.833976 0
M  V30 5 C 3.577247 -0.245355 0.434705 0
M  V30 6 N 4.307490 0.946174 0.169641 0
M  V30 7 C 4.674539 2.022223 1.023392 0
M  V30 8 O 4.357037 2.031189 2.228548 0
M  V30 9 C 5.443974 3.032569 0.237691 0
M  V30 10 C 5.846668 4.187237 1.121239 0
M  V30 11 C 4.544797 4.866751 0.738880 0
M  V30 12 C 4.503451 3.974608 -0.485384 0
M  V30 13 C 2.204147 -0.441954 0.343200 0
M  V30 14 C 1.645969 -1.655683 0.633191 0
M  V30 15 C 0.195760 -1.702516 0.491607 0
M  V30 16 C -0.703579 -2.254716 1.376946 0
M  V30 17 C -2.061398 -2.242332 1.137669 0
M  V30 18 C -2.577042 -1.671757 -0.007026 0
M  V30 19 C -4.007288 -1.635692 -0.302125 0
M  V30 20 O -4.469493 -1.102500 -1.366605 0
M  V30 21 N -5.014659 -2.169536 0.529134 0
M  V30 22 C -6.415632 -2.069626 0.119975 0
M  V30 23 C -7.224482 -2.729979 1.217649 0
M  V30 24 C -8.686522 -2.832327 1.174602 0
M  V30 25 C -7.901389 -4.042597 0.861027 0
M  V30 26 C -1.726236 -1.105193 -0.926755 0
M  V30 27 C -0.357629 -1.131345 -0.660206 0
M  V30 28 H 1.624787 -4.140392 2.417709 0
M  V30 29 H 2.485110 -4.824110 0.984078 0
M  V30 30 H 0.862553 -4.141197 0.734405 0
M  V30 31 H 4.430825 -3.399414 1.436971 0
M  V30 32 H 5.438925 -1.254015 0.926758 0
M  V30 33 H 4.499087 0.801503 -0.845969 0
M  V30 34 H 6.257247 2.613563 -0.386984 0
M  V30 35 H 6.686555 4.736086 0.670092 0
M  V30 36 H 5.938579 3.942408 2.194556 0
M  V30 37 H 3.722378 4.675145 1.449129 0
M  V30 38 H 4.616365 5.949946 0.524100 0
M  V30 39 H 4.940278 4.443889 -1.400115 0
M  V30 40 H 3.505374 3.509700 -0.655943 0
M  V30 41 H 1.688609 0.469941 0.024415 0
M  V30 42 H -0.282178 -2.694927 2.265633 0
M  V30 43 H -2.710501 -2.683457 1.855909 0
M  V30 44 H -4.704175 -2.627854 1.430140 0
M  V30 45 H -6.735090 -1.003504 0.030118 0
M  V30 46 H -6.628538 -2.528517 -0.846514 0
M  V30 47 H -6.783388 -2.682706 2.254188 0
M  V30 48 H -9.264409 -2.808550 2.121340 0
M  V30 49 H -9.195988 -2.284331 0.361050 0
M  V30 50 H -7.902931 -4.342202 -0.215026 0
M  V30 51 H -7.784577 -4.860117 1.587645 0
M  V30 52 H -2.038338 -0.631106 -1.859406 0
M  V30 53 H 0.321370 -0.680021 -1.392585 0
M  V30 END ATOM
M  V30 BEGIN BOND
M  V30 1 1 1 2
M  V30 2 2 2 3
M  V30 3 1 3 4
M  V30 4 2 4 5
M  V30 5 1 5 6
M  V30 6 1 6 7
M  V30 7 2 7 8
M  V30 8 1 7 9
M  V30 9 1 9 10
M  V30 10 1 10 11
M  V30 11 1 11 12
M  V30 12 1 5 13
M  V30 13 2 13 14
M  V30 14 1 14 15
M  V30 15 2 15 16
M  V30 16 1 16 17
M  V30 17 2 17 18
M  V30 18 1 18 19
M  V30 19 2 19 20
M  V30 20 1 19 21
M  V30 21 1 21 22
M  V30 22 1 22 23
M  V30 23 1 23 24
M  V30 24 1 24 25
M  V30 25 1 18 26
M  V30 26 2 26 27
M  V30 27 1 14 2
M  V30 28 1 27 15
M  V30 29 1 12 9
M  V30 30 1 25 23
M  V30 31 1 1 28
M  V30 32 1 1 29
M  V30 33 1 1 30
M  V30 34 1 3 31
M  V30 35 1 4 32
M  V30 36 1 6 33
M  V30 37 1 9 34
M  V30 38 1 10 35
M  V30 39 1 10 36
M  V30 40 1 11 37
M  V30 41 1 11 38
M  V30 42 1 12 39
M  V30 43 1 12 40
M  V30 44 1 13 41
M  V30 45 1 16 42
M  V30 46 1 17 43
M  V30 47 1 21 44
M  V30 48 1 22 45
M  V30 49 1 22 46
M  V30 50 1 23 47
M  V30 51 1 24 48
M  V30 52 1 24 49
M  V30 53 1 25 50
M  V30 54 1 25 51
M  V30 55 1 26 52
M  V30 56 1 27 53
M  V30 END BOND
M  V30 END CTAB
M  END
>  <Dataset>  (801) 
ChEMBL_Kinases

>  <Ligand_Instance>  (801) 
nan

>  <PDB_ID>  (801) 
nan

>  <Standardized_SMILES>  (801) 
Cc1ccc(NC(=O)C2CCC2)cc1-c1ccc(C(=O)NCC2CC2)cc1

>  <Name>  (801) 
nan

>  <Pocket>  (801) 
nan

>  <ATP_Site>  (801) 
nan

>  <Peripheral>  (801) 
nan

>  <Num_H_Atoms_ProtBoundConf>  (801) 
nan

>  <Num_Resolved_Atoms>  (801) 
nan

>  <Num_Not_Resolved_Atoms>  (801) 
nan

$$$$
CHEMBL4228999
     RDKit          3D

  0  0  0  0  0  0  0  0  0  0999 V3000
M  V30 BEGIN CTAB
M  V30 COUNTS 43 45 0 0 0
M  V30 BEGIN ATOM
M  V30 1 O 1.026069 -1.521339 0.211741 0
M  V30 2 C 0.709360 -0.330225 0.423302 0
M  V30 3 N 1.943309 0.350927 0.548780 0
M  V30 4 O 2.996637 -0.518333 0.396369 0
M  V30 5 C 4.142099 0.274123 0.537067 0
M  V30 6 C 4.923479 0.146520 -0.763365 0
M  V30 7 O 4.096789 0.604460 -1.787545 0
M  V30 8 C 5.046924 -0.140763 1.644604 0
M  V30 9 O 6.134727 0.760978 1.634061 0
M  V30 10 C -0.549438 0.384991 0.546778 0
M  V30 11 C -0.553120 1.737468 0.770544 0
M  V30 12 C -1.770364 2.372987 0.871421 0
M  V30 13 C -2.070015 3.723814 1.093914 0
M  V30 14 C -3.446930 3.793997 1.100511 0
M  V30 15 O -3.927725 2.599977 0.901084 0
M  V30 16 C -2.992228 1.698728 0.755363 0
M  V30 17 C -2.922093 0.330918 0.529241 0
M  V30 18 F -4.184103 -0.200814 0.423277 0
M  V30 19 C -1.702964 -0.351352 0.421247 0
M  V30 20 N -1.855042 -1.732193 0.186707 0
M  V30 21 C -1.864922 -2.960354 0.855094 0
M  V30 22 C -0.997606 -3.981905 0.532871 0
M  V30 23 C -0.938388 -5.201495 1.149102 0
M  V30 24 C -1.828701 -5.413805 2.179324 0
M  V30 25 I -1.786723 -7.277968 3.173427 0
M  V30 26 C -2.735508 -4.449836 2.573371 0
M  V30 27 C -2.714436 -3.265022 1.894495 0
M  V30 28 F -3.626129 -2.370634 2.340043 0
M  V30 29 H 2.059418 1.392453 0.735551 0
M  V30 30 H 3.816536 1.304953 0.720212 0
M  V30 31 H 5.247164 -0.902824 -0.902765 0
M  V30 32 H 5.829089 0.784694 -0.768559 0
M  V30 33 H 4.296533 1.517973 -2.069648 0
M  V30 34 H 4.588276 -0.047766 2.654857 0
M  V30 35 H 5.498625 -1.141544 1.521909 0
M  V30 36 H 6.977273 0.349001 1.374085 0
M  V30 37 H 0.322149 2.346587 0.874214 0
M  V30 38 H -1.356134 4.530152 1.229998 0
M  V30 39 H -3.935731 4.745771 1.256181 0
M  V30 40 H -2.008215 -1.774306 -0.860156 0
M  V30 41 H -0.264311 -3.875182 -0.283254 0
M  V30 42 H -0.249281 -5.981867 0.876104 0
M  V30 43 H -3.399383 -4.691329 3.387232 0
M  V30 END ATOM
M  V30 BEGIN BOND
M  V30 1 2 1 2
M  V30 2 1 2 3
M  V30 3 1 3 4
M  V30 4 1 4 5
M  V30 5 1 5 6
M  V30 6 1 6 7
M  V30 7 1 5 8
M  V30 8 1 8 9
M  V30 9 1 2 10
M  V30 10 2 10 11
M  V30 11 1 11 12
M  V30 12 1 12 13
M  V30 13 2 13 14
M  V30 14 1 14 15
M  V30 15 1 15 16
M  V30 16 1 16 17
M  V30 17 1 17 18
M  V30 18 2 17 19
M  V30 19 1 19 20
M  V30 20 1 20 21
M  V30 21 2 21 22
M  V30 22 1 22 23
M  V30 23 2 23 24
M  V30 24 1 24 25
M  V30 25 1 24 26
M  V30 26 2 26 27
M  V30 27 1 27 28
M  V30 28 1 19 10
M  V30 29 1 27 21
M  V30 30 2 16 12
M  V30 31 1 3 29
M  V30 32 1 5 30
M  V30 33 1 6 31
M  V30 34 1 6 32
M  V30 35 1 7 33
M  V30 36 1 8 34
M  V30 37 1 8 35
M  V30 38 1 9 36
M  V30 39 1 11 37
M  V30 40 1 13 38
M  V30 41 1 14 39
M  V30 42 1 20 40
M  V30 43 1 22 41
M  V30 44 1 23 42
M  V30 45 1 26 43
M  V30 END BOND
M  V30 END CTAB
M  END
>  <Dataset>  (802) 
ChEMBL_Kinases

>  <Ligand_Instance>  (802) 
nan

>  <PDB_ID>  (802) 
nan

>  <Standardized_SMILES>  (802) 
O=C(NOC(CO)CO)c1cc2ccoc2c(F)c1Nc1ccc(I)cc1F

>  <Name>  (802) 
nan

>  <Pocket>  (802) 
nan

>  <ATP_Site>  (802) 
nan

>  <Peripheral>  (802) 
nan

>  <Num_H_Atoms_ProtBoundConf>  (802) 
nan

>  <Num_Resolved_Atoms>  (802) 
nan

>  <Num_Not_Resolved_Atoms>  (802) 
nan

$$$$
CHEMBL4237255
     RDKit          3D

  0  0  0  0  0  0  0  0  0  0999 V3000
M  V30 BEGIN CTAB
M  V30 COUNTS 44 47 0 0 0
M  V30 BEGIN ATOM
M  V30 1 C 5.132070 -4.771967 1.163745 0
M  V30 2 S 5.972227 -3.508727 0.203732 0
M  V30 3 O 6.810118 -2.689274 1.127701 0
M  V30 4 O 6.838499 -4.214149 -0.790159 0
M  V30 5 C 4.804002 -2.495999 -0.602729 0
M  V30 6 C 4.317778 -2.770092 -1.871527 0
M  V30 7 C 3.397171 -1.954030 -2.482932 0
M  V30 8 C 2.942557 -0.827384 -1.814081 0
M  V30 9 C 3.411959 -0.523412 -0.536371 0
M  V30 10 C 2.902924 0.692732 0.151619 0
M  V30 11 C 1.676550 0.352474 0.955453 0
M  V30 12 O 1.356187 -0.877178 0.867550 0
M  V30 13 N 1.046175 1.387911 1.684686 0
M  V30 14 C -0.119681 1.090622 2.455655 0
M  V30 15 N -1.258142 1.111309 2.177713 0
M  V30 16 C -2.284316 0.823152 2.944065 0
M  V30 17 C -3.685054 0.867459 2.539724 0
M  V30 18 C -4.824632 0.585411 3.264681 0
M  V30 19 N -5.936610 0.746245 2.527462 0
M  V30 20 C -5.592219 1.135520 1.301117 0
M  V30 21 N -6.269276 1.435321 0.183470 0
M  V30 22 C -5.647885 1.813674 -0.955759 0
M  V30 23 C -4.272015 1.901097 -0.992502 0
M  V30 24 C -3.564585 1.599575 0.136434 0
M  V30 25 C -4.214575 1.208276 1.313291 0
M  V30 26 C -1.919834 0.435262 4.296732 0
M  V30 27 S -0.141767 0.540103 4.276252 0
M  V30 28 C 4.336141 -1.371737 0.038380 0
M  V30 29 H 5.776897 -5.646754 1.331630 0
M  V30 30 H 4.795646 -4.331127 2.117481 0
M  V30 31 H 4.271413 -5.096696 0.531982 0
M  V30 32 H 4.691591 -3.656520 -2.367875 0
M  V30 33 H 3.029847 -2.187069 -3.476299 0
M  V30 34 H 2.213272 -0.164356 -2.276200 0
M  V30 35 H 3.691922 1.161756 0.756945 0
M  V30 36 H 2.573758 1.400378 -0.619129 0
M  V30 37 H 1.452046 2.344808 1.639148 0
M  V30 38 H -4.832991 0.266405 4.319988 0
M  V30 39 H -6.914899 0.581889 2.892139 0
M  V30 40 H -6.276100 2.042800 -1.830290 0
M  V30 41 H -3.798205 2.207405 -1.920176 0
M  V30 42 H -2.481413 1.671144 0.098413 0
M  V30 43 H -2.708603 0.151738 5.091375 0
M  V30 44 H 4.699938 -1.138821 1.025050 0
M  V30 END ATOM
M  V30 BEGIN BOND
M  V30 1 1 1 2
M  V30 2 2 2 3
M  V30 3 2 2 4
M  V30 4 1 2 5
M  V30 5 2 5 6
M  V30 6 1 6 7
M  V30 7 2 7 8
M  V30 8 1 8 9
M  V30 9 1 9 10
M  V30 10 1 10 11
M  V30 11 2 11 12
M  V30 12 1 11 13
M  V30 13 1 13 14
M  V30 14 2 14 15
M  V30 15 1 15 16
M  V30 16 1 16 17
M  V30 17 2 17 18
M  V30 18 1 18 19
M  V30 19 1 19 20
M  V30 20 2 20 21
M  V30 21 1 21 22
M  V30 22 2 22 23
M  V30 23 1 23 24
M  V30 24 2 24 25
M  V30 25 2 16 26
M  V30 26 1 26 27
M  V30 27 2 9 28
M  V30 28 1 28 5
M  V30 29 1 27 14
M  V30 30 1 25 17
M  V30 31 1 25 20
M  V30 32 1 1 29
M  V30 33 1 1 30
M  V30 34 1 1 31
M  V30 35 1 6 32
M  V30 36 1 7 33
M  V30 37 1 8 34
M  V30 38 1 10 35
M  V30 39 1 10 36
M  V30 40 1 13 37
M  V30 41 1 18 38
M  V30 42 1 19 39
M  V30 43 1 22 40
M  V30 44 1 23 41
M  V30 45 1 24 42
M  V30 46 1 26 43
M  V30 47 1 28 44
M  V30 END BOND
M  V30 END CTAB
M  END
>  <Dataset>  (803) 
ChEMBL_Kinases

>  <Ligand_Instance>  (803) 
nan

>  <PDB_ID>  (803) 
nan

>  <Standardized_SMILES>  (803) 
CS(=O)(=O)c1cccc(CC(=O)Nc2nc(-c3c[nH]c4ncccc34)cs2)c1

>  <Name>  (803) 
nan

>  <Pocket>  (803) 
nan

>  <ATP_Site>  (803) 
nan

>  <Peripheral>  (803) 
nan

>  <Num_H_Atoms_ProtBoundConf>  (803) 
nan

>  <Num_Resolved_Atoms>  (803) 
nan

>  <Num_Not_Resolved_Atoms>  (803) 
nan

$$$$
CHEMBL424203
     RDKit          3D

  0  0  0  0  0  0  0  0  0  0999 V3000
M  V30 BEGIN CTAB
M  V30 COUNTS 31 33 0 0 0
M  V30 BEGIN ATOM
M  V30 1 O -1.886641 -2.310246 -0.835616 0
M  V30 2 C -1.387063 -1.692682 0.110587 0
M  V30 3 C -0.030094 -1.153629 0.140290 0
M  V30 4 C 0.643169 -1.062302 -1.022247 0
M  V30 5 C 1.998473 -0.567089 -1.251613 0
M  V30 6 C 3.176941 -0.837841 -0.602357 0
M  V30 7 C 4.375318 -0.252346 -0.922218 0
M  V30 8 C 4.373740 0.653974 -1.956189 0
M  V30 9 C 3.206498 0.938054 -2.618414 0
M  V30 10 N 2.052321 0.342997 -2.274543 0
M  V30 11 C 0.751826 -0.666285 1.283324 0
M  V30 12 C -0.123909 -0.153656 2.437107 0
M  V30 13 C -1.487958 -0.721964 2.367981 0
M  V30 14 C -2.211580 -0.486354 3.523219 0
M  V30 15 C -3.500804 -0.918768 3.677729 0
M  V30 16 C -4.168383 -1.626496 2.677928 0
M  V30 17 C -3.419900 -1.855673 1.518628 0
M  V30 18 C -2.125096 -1.421941 1.359303 0
M  V30 19 H 0.105682 -1.414022 -1.923996 0
M  V30 20 H 3.082165 -1.560818 0.180015 0
M  V30 21 H 5.256822 -0.518158 -0.367073 0
M  V30 22 H 5.354903 1.085629 -2.161629 0
M  V30 23 H 3.242178 1.667572 -3.430858 0
M  V30 24 H 1.401111 0.197809 1.033114 0
M  V30 25 H 1.307632 -1.531548 1.707507 0
M  V30 26 H 0.318397 -0.491313 3.415098 0
M  V30 27 H -0.138839 0.955859 2.480819 0
M  V30 28 H -1.877655 0.035222 4.407691 0
M  V30 29 H -4.128966 -0.771608 4.554246 0
M  V30 30 H -5.172902 -1.987782 2.745550 0
M  V30 31 H -3.832747 -2.398910 0.662079 0
M  V30 END ATOM
M  V30 BEGIN BOND
M  V30 1 2 1 2
M  V30 2 1 2 3
M  V30 3 2 3 4
M  V30 4 1 4 5
M  V30 5 2 5 6
M  V30 6 1 6 7
M  V30 7 2 7 8
M  V30 8 1 8 9
M  V30 9 2 9 10
M  V30 10 1 3 11
M  V30 11 1 11 12
M  V30 12 1 12 13
M  V30 13 2 13 14
M  V30 14 1 14 15
M  V30 15 2 15 16
M  V30 16 1 16 17
M  V30 17 2 17 18
M  V30 18 1 18 2
M  V30 19 1 10 5
M  V30 20 1 18 13
M  V30 21 1 4 19
M  V30 22 1 6 20
M  V30 23 1 7 21
M  V30 24 1 8 22
M  V30 25 1 9 23
M  V30 26 1 11 24
M  V30 27 1 11 25
M  V30 28 1 12 26
M  V30 29 1 12 27
M  V30 30 1 14 28
M  V30 31 1 15 29
M  V30 32 1 16 30
M  V30 33 1 17 31
M  V30 END BOND
M  V30 END CTAB
M  END
>  <Dataset>  (804) 
ChEMBL_Kinases

>  <Ligand_Instance>  (804) 
nan

>  <PDB_ID>  (804) 
nan

>  <Standardized_SMILES>  (804) 
O=C1/C(=C/c2ccccn2)CCc2ccccc21

>  <Name>  (804) 
nan

>  <Pocket>  (804) 
nan

>  <ATP_Site>  (804) 
nan

>  <Peripheral>  (804) 
nan

>  <Num_H_Atoms_ProtBoundConf>  (804) 
nan

>  <Num_Resolved_Atoms>  (804) 
nan

>  <Num_Not_Resolved_Atoms>  (804) 
nan

$$$$
CHEMBL4764548
     RDKit          3D

  0  0  0  0  0  0  0  0  0  0999 V3000
M  V30 BEGIN CTAB
M  V30 COUNTS 43 45 0 0 0
M  V30 BEGIN ATOM
M  V30 1 O 4.357462 -2.825650 1.067192 0
M  V30 2 C 3.987414 -3.748626 1.862634 0
M  V30 3 O 4.995149 -4.627916 2.181011 0
M  V30 4 C 2.703126 -4.066639 2.510387 0
M  V30 5 C 1.602742 -3.116513 2.176087 0
M  V30 6 C 1.901414 -1.726254 2.575703 0
M  V30 7 O 3.043506 -1.802015 3.102356 0
M  V30 8 N 1.080117 -0.583858 2.399026 0
M  V30 9 C 1.752671 0.576481 2.932917 0
M  V30 10 C 1.024351 1.852901 2.815485 0
M  V30 11 C 0.699582 2.389568 1.482453 0
M  V30 12 N -0.091386 1.624316 0.596108 0
M  V30 13 C 0.420464 0.766289 -0.337591 0
M  V30 14 O 1.667130 0.637896 -0.431713 0
M  V30 15 C -0.395180 0.042380 -1.174498 0
M  V30 16 C 0.178536 -0.813715 -2.103470 0
M  V30 17 C -0.694661 -1.527370 -2.931276 0
M  V30 18 F -0.130315 -2.364495 -3.839553 0
M  V30 19 C -2.063629 -1.432735 -2.880172 0
M  V30 20 C -2.611400 -0.565853 -1.938183 0
M  V30 21 C -1.767536 0.141336 -1.118723 0
M  V30 22 N -2.263551 0.977293 -0.209100 0
M  V30 23 C -3.510152 1.310218 0.111646 0
M  V30 24 S -4.960850 0.849159 -0.458289 0
M  V30 25 N -3.493786 2.206595 1.108717 0
M  V30 26 N -2.217140 2.433544 1.411525 0
M  V30 27 C -1.437593 1.669782 0.593368 0
M  V30 28 H 5.939051 -4.562112 1.825498 0
M  V30 29 H 2.829824 -4.190572 3.604369 0
M  V30 30 H 2.396953 -5.075948 2.107823 0
M  V30 31 H 0.710357 -3.417488 2.797724 0
M  V30 32 H 1.277287 -3.208009 1.120043 0
M  V30 33 H 0.221661 -0.895505 1.942159 0
M  V30 34 H 2.808210 0.614069 2.587826 0
M  V30 35 H 1.848118 0.362106 4.038737 0
M  V30 36 H 1.617848 2.655718 3.351369 0
M  V30 37 H 0.098845 1.769861 3.455278 0
M  V30 38 H 1.629959 2.733822 0.961012 0
M  V30 39 H 0.123824 3.351788 1.666389 0
M  V30 40 H 1.259142 -0.934671 -2.195228 0
M  V30 41 H -2.654542 -2.033037 -3.570821 0
M  V30 42 H -3.681648 -0.534256 -1.945342 0
M  V30 43 H -4.226408 2.708733 1.637908 0
M  V30 END ATOM
M  V30 BEGIN BOND
M  V30 1 2 1 2
M  V30 2 1 2 3
M  V30 3 1 2 4
M  V30 4 1 4 5
M  V30 5 1 5 6
M  V30 6 2 6 7
M  V30 7 1 6 8
M  V30 8 1 8 9
M  V30 9 1 9 10
M  V30 10 1 10 11
M  V30 11 1 11 12
M  V30 12 1 12 13
M  V30 13 2 13 14
M  V30 14 1 13 15
M  V30 15 2 15 16
M  V30 16 1 16 17
M  V30 17 1 17 18
M  V30 18 2 17 19
M  V30 19 1 19 20
M  V30 20 2 20 21
M  V30 21 1 21 22
M  V30 22 1 22 23
M  V30 23 2 23 24
M  V30 24 1 23 25
M  V30 25 1 25 26
M  V30 26 2 26 27
M  V30 27 1 27 12
M  V30 28 1 21 15
M  V30 29 1 27 22
M  V30 30 1 3 28
M  V30 31 1 4 29
M  V30 32 1 4 30
M  V30 33 1 5 31
M  V30 34 1 5 32
M  V30 35 1 8 33
M  V30 36 1 9 34
M  V30 37 1 9 35
M  V30 38 1 10 36
M  V30 39 1 10 37
M  V30 40 1 11 38
M  V30 41 1 11 39
M  V30 42 1 16 40
M  V30 43 1 19 41
M  V30 44 1 20 42
M  V30 45 1 25 43
M  V30 END BOND
M  V30 END CTAB
M  END
>  <Dataset>  (805) 
ChEMBL_Kinases

>  <Ligand_Instance>  (805) 
nan

>  <PDB_ID>  (805) 
nan

>  <Standardized_SMILES>  (805) 
O=C(O)CCC(=O)NCCCn1c(=O)c2cc(F)ccc2n2c(=S)[nH]nc12

>  <Name>  (805) 
nan

>  <Pocket>  (805) 
nan

>  <ATP_Site>  (805) 
nan

>  <Peripheral>  (805) 
nan

>  <Num_H_Atoms_ProtBoundConf>  (805) 
nan

>  <Num_Resolved_Atoms>  (805) 
nan

>  <Num_Not_Resolved_Atoms>  (805) 
nan

$$$$
CHEMBL4241959
     RDKit          3D

  0  0  0  0  0  0  0  0  0  0999 V3000
M  V30 BEGIN CTAB
M  V30 COUNTS 53 56 0 0 0
M  V30 BEGIN ATOM
M  V30 1 C 1.355623 -2.527411 1.855896 0
M  V30 2 O 2.432537 -2.617284 2.723082 0
M  V30 3 C 3.575554 -2.030262 2.253156 0
M  V30 4 C 3.453318 -0.547996 1.981506 0
M  V30 5 N 4.758977 -0.125319 1.500036 0
M  V30 6 S 4.813553 1.544087 1.137662 0
M  V30 7 O 6.197340 1.906300 0.685426 0
M  V30 8 O 4.479206 2.361032 2.376853 0
M  V30 9 C 3.712558 2.026812 -0.123218 0
M  V30 10 C 3.965096 1.977795 -1.490065 0
M  V30 11 C 3.073489 2.383318 -2.454701 0
M  V30 12 C 1.829683 2.880064 -2.074072 0
M  V30 13 C 1.480538 2.970083 -0.741660 0
M  V30 14 C 0.194691 3.495876 -0.217282 0
M  V30 15 C -0.776707 2.399028 -0.123372 0
M  V30 16 O 0.036635 1.522757 -0.590659 0
M  V30 17 N -2.094274 2.106451 0.262404 0
M  V30 18 C -2.685831 0.830932 0.181272 0
M  V30 19 N -2.880996 -0.234884 0.746709 0
M  V30 20 C -3.555628 -1.239157 0.275501 0
M  V30 21 C -3.711106 -2.418644 1.100758 0
M  V30 22 C -3.406388 -2.545079 2.462355 0
M  V30 23 N -3.626490 -3.765819 2.986725 0
M  V30 24 C -4.105558 -4.537577 1.957076 0
M  V30 25 N -4.477022 -5.817671 1.900391 0
M  V30 26 C -4.910263 -6.385476 0.764191 0
M  V30 27 C -4.974894 -5.601954 -0.411719 0
M  V30 28 C -4.569688 -4.285818 -0.255260 0
M  V30 29 C -4.129070 -3.689509 0.886060 0
M  V30 30 C -4.127429 -1.112322 -1.005743 0
M  V30 31 S -3.617138 0.567779 -1.484520 0
M  V30 32 C 2.437225 2.539920 0.146518 0
M  V30 33 H 0.462325 -3.036128 2.311757 0
M  V30 34 H 1.043456 -1.501221 1.610413 0
M  V30 35 H 1.522251 -3.070764 0.890544 0
M  V30 36 H 3.888457 -2.546276 1.307155 0
M  V30 37 H 4.414938 -2.164620 2.968399 0
M  V30 38 H 3.171526 -0.025345 2.906242 0
M  V30 39 H 2.674353 -0.387081 1.236533 0
M  V30 40 H 5.412796 -0.281130 2.309223 0
M  V30 41 H 4.952490 1.583018 -1.773859 0
M  V30 42 H 3.338191 2.313579 -3.505332 0
M  V30 43 H 1.102896 3.208847 -2.798374 0
M  V30 44 H 0.384609 3.871742 0.819013 0
M  V30 45 H -0.194839 4.311981 -0.866680 0
M  V30 46 H -2.482563 3.013353 0.598314 0
M  V30 47 H -3.010152 -1.755108 3.132435 0
M  V30 48 H -3.473576 -4.081431 3.962234 0
M  V30 49 H -5.220222 -7.438420 0.707085 0
M  V30 50 H -5.323067 -6.100126 -1.279429 0
M  V30 51 H -4.643655 -3.803613 -1.203128 0
M  V30 52 H -4.766736 -1.749865 -1.695542 0
M  V30 53 H 2.185048 2.594573 1.219293 0
M  V30 END ATOM
M  V30 BEGIN BOND
M  V30 1 1 1 2
M  V30 2 1 2 3
M  V30 3 1 3 4
M  V30 4 1 4 5
M  V30 5 1 5 6
M  V30 6 2 6 7
M  V30 7 2 6 8
M  V30 8 1 6 9
M  V30 9 2 9 10
M  V30 10 1 10 11
M  V30 11 2 11 12
M  V30 12 1 12 13
M  V30 13 1 13 14
M  V30 14 1 14 15
M  V30 15 2 15 16
M  V30 16 1 15 17
M  V30 17 1 17 18
M  V30 18 2 18 19
M  V30 19 1 19 20
M  V30 20 1 20 21
M  V30 21 2 21 22
M  V30 22 1 22 23
M  V30 23 1 23 24
M  V30 24 2 24 25
M  V30 25 1 25 26
M  V30 26 2 26 27
M  V30 27 1 27 28
M  V30 28 2 28 29
M  V30 29 2 20 30
M  V30 30 1 30 31
M  V30 31 2 13 32
M  V30 32 1 32 9
M  V30 33 1 31 18
M  V30 34 1 29 21
M  V30 35 1 29 24
M  V30 36 1 1 33
M  V30 37 1 1 34
M  V30 38 1 1 35
M  V30 39 1 3 36
M  V30 40 1 3 37
M  V30 41 1 4 38
M  V30 42 1 4 39
M  V30 43 1 5 40
M  V30 44 1 10 41
M  V30 45 1 11 42
M  V30 46 1 12 43
M  V30 47 1 14 44
M  V30 48 1 14 45
M  V30 49 1 17 46
M  V30 50 1 22 47
M  V30 51 1 23 48
M  V30 52 1 26 49
M  V30 53 1 27 50
M  V30 54 1 28 51
M  V30 55 1 30 52
M  V30 56 1 32 53
M  V30 END BOND
M  V30 END CTAB
M  END
>  <Dataset>  (806) 
ChEMBL_Kinases

>  <Ligand_Instance>  (806) 
nan

>  <PDB_ID>  (806) 
nan

>  <Standardized_SMILES>  (806) 
COCCNS(=O)(=O)c1cccc(CC(=O)Nc2nc(-c3c[nH]c4ncccc34)cs2)c1

>  <Name>  (806) 
nan

>  <Pocket>  (806) 
nan

>  <ATP_Site>  (806) 
nan

>  <Peripheral>  (806) 
nan

>  <Num_H_Atoms_ProtBoundConf>  (806) 
nan

>  <Num_Resolved_Atoms>  (806) 
nan

>  <Num_Not_Resolved_Atoms>  (806) 
nan

$$$$
CHEMBL4241707
     RDKit          3D

  0  0  0  0  0  0  0  0  0  0999 V3000
M  V30 BEGIN CTAB
M  V30 COUNTS 61 63 0 0 0
M  V30 BEGIN ATOM
M  V30 1 C 0.406089 5.592523 6.145826 0
M  V30 2 O 0.426777 4.242452 6.565109 0
M  V30 3 C 0.465560 3.181460 5.675604 0
M  V30 4 C 0.483000 1.913464 6.209109 0
M  V30 5 C 0.521864 0.834103 5.344851 0
M  V30 6 O 0.538500 -0.431920 5.914623 0
M  V30 7 C 0.578088 -1.539525 5.034070 0
M  V30 8 C 0.542455 1.032110 3.988621 0
M  V30 9 C 0.524623 2.303173 3.455844 0
M  V30 10 C 0.544966 2.570791 2.020302 0
M  V30 11 O 0.511945 3.759988 1.565349 0
M  V30 12 N 0.601756 1.565591 1.015243 0
M  V30 13 C 0.618829 1.868008 -0.383390 0 CFG=1
M  V30 14 C 1.822772 1.401814 -1.131858 0
M  V30 15 C 2.071372 -0.074501 -1.087319 0
M  V30 16 C 0.798887 -0.872176 -1.141176 0 CFG=2
M  V30 17 N 0.997532 -2.064026 -1.967317 0
M  V30 18 C -0.075462 -2.984808 -2.129368 0
M  V30 19 N -1.271753 -2.805416 -1.545230 0
M  V30 20 C -2.317688 -3.634575 -1.659707 0
M  V30 21 C -3.510627 -3.178506 -0.901912 0
M  V30 22 C -2.168978 -4.762304 -2.433499 0
M  V30 23 C -0.952607 -4.974518 -3.046431 0
M  V30 24 N -0.856890 -6.156068 -3.833761 0
M  V30 25 C -0.419017 -7.422733 -3.278170 0
M  V30 26 C -1.214424 -6.066415 -5.240414 0
M  V30 27 N 0.059774 -4.081939 -2.878444 0
M  V30 28 C -0.224253 0.010845 -1.849437 0
M  V30 29 C -0.592173 1.198279 -1.016342 0
M  V30 30 C 0.486003 3.381867 4.311418 0
M  V30 31 H -0.244619 5.779352 5.281542 0
M  V30 32 H 1.453713 5.966607 6.001858 0
M  V30 33 H -0.002761 6.193876 6.995482 0
M  V30 34 H 0.466711 1.738218 7.284840 0
M  V30 35 H 1.433342 -1.433223 4.308799 0
M  V30 36 H 0.704358 -2.504048 5.540020 0
M  V30 37 H -0.326103 -1.567402 4.364959 0
M  V30 38 H 0.572776 0.183629 3.350409 0
M  V30 39 H 0.630651 0.578563 1.354616 0
M  V30 40 H 0.573256 2.971103 -0.492583 0
M  V30 41 H 1.714356 1.729693 -2.178977 0
M  V30 42 H 2.768454 1.887512 -0.770040 0
M  V30 43 H 2.650358 -0.332547 -2.017249 0
M  V30 44 H 2.696797 -0.387527 -0.204705 0
M  V30 45 H 0.436663 -1.244650 -0.181432 0
M  V30 46 H 1.902795 -2.263736 -2.444423 0
M  V30 47 H -3.315148 -3.145607 0.194049 0
M  V30 48 H -3.849227 -2.182486 -1.185957 0
M  V30 49 H -4.318091 -3.906958 -1.043487 0
M  V30 50 H -3.056516 -5.384416 -2.479102 0
M  V30 51 H 0.450924 -7.181315 -2.600008 0
M  V30 52 H -1.177350 -7.901718 -2.645445 0
M  V30 53 H -0.002821 -8.088450 -4.054702 0
M  V30 54 H -0.264321 -6.071376 -5.816063 0
M  V30 55 H -1.720177 -5.113961 -5.465193 0
M  V30 56 H -1.778191 -6.958489 -5.577462 0
M  V30 57 H -1.155157 -0.509148 -2.100618 0
M  V30 58 H 0.295358 0.391333 -2.761373 0
M  V30 59 H -1.097888 1.947191 -1.664985 0
M  V30 60 H -1.337549 0.938760 -0.229975 0
M  V30 61 H 0.470671 4.403567 3.950438 0
M  V30 END ATOM
M  V30 BEGIN BOND
M  V30 1 1 1 2
M  V30 2 1 2 3
M  V30 3 2 3 4
M  V30 4 1 4 5
M  V30 5 1 5 6
M  V30 6 1 6 7
M  V30 7 2 5 8
M  V30 8 1 8 9
M  V30 9 1 9 10
M  V30 10 2 10 11
M  V30 11 1 10 12
M  V30 12 1 12 13
M  V30 13 1 13 14
M  V30 14 1 14 15
M  V30 15 1 15 16
M  V30 16 1 16 17
M  V30 17 1 17 18
M  V30 18 2 18 19
M  V30 19 1 19 20
M  V30 20 1 20 21
M  V30 21 2 20 22
M  V30 22 1 22 23
M  V30 23 1 23 24
M  V30 24 1 24 25
M  V30 25 1 24 26
M  V30 26 2 23 27
M  V30 27 1 16 28
M  V30 28 1 28 29
M  V30 29 2 9 30
M  V30 30 1 30 3
M  V30 31 1 29 13
M  V30 32 1 27 18
M  V30 33 1 1 31
M  V30 34 1 1 32
M  V30 35 1 1 33
M  V30 36 1 4 34
M  V30 37 1 7 35
M  V30 38 1 7 36
M  V30 39 1 7 37
M  V30 40 1 8 38
M  V30 41 1 12 39
M  V30 42 1 13 40 CFG=1
M  V30 43 1 14 41
M  V30 44 1 14 42
M  V30 45 1 15 43
M  V30 46 1 15 44
M  V30 47 1 16 45 CFG=1
M  V30 48 1 17 46
M  V30 49 1 21 47
M  V30 50 1 21 48
M  V30 51 1 21 49
M  V30 52 1 22 50
M  V30 53 1 25 51
M  V30 54 1 25 52
M  V30 55 1 25 53
M  V30 56 1 26 54
M  V30 57 1 26 55
M  V30 58 1 26 56
M  V30 59 1 28 57
M  V30 60 1 28 58
M  V30 61 1 29 59
M  V30 62 1 29 60
M  V30 63 1 30 61
M  V30 END BOND
M  V30 END CTAB
M  END
>  <Dataset>  (807) 
ChEMBL_Kinases

>  <Ligand_Instance>  (807) 
nan

>  <PDB_ID>  (807) 
nan

>  <Standardized_SMILES>  (807) 
COc1cc(OC)cc(C(=O)N[C@H]2CC[C@H](Nc3nc(C)cc(N(C)C)n3)CC2)c1

>  <Name>  (807) 
nan

>  <Pocket>  (807) 
nan

>  <ATP_Site>  (807) 
nan

>  <Peripheral>  (807) 
nan

>  <Num_H_Atoms_ProtBoundConf>  (807) 
nan

>  <Num_Resolved_Atoms>  (807) 
nan

>  <Num_Not_Resolved_Atoms>  (807) 
nan

$$$$
CHEMBL4241699
     RDKit          3D

  0  0  0  0  0  0  0  0  0  0999 V3000
M  V30 BEGIN CTAB
M  V30 COUNTS 57 61 0 0 0
M  V30 BEGIN ATOM
M  V30 1 O 2.369083 3.760308 4.494028 0
M  V30 2 C 3.021077 3.043420 3.656605 0
M  V30 3 O 3.148146 4.346659 3.196149 0
M  V30 4 C 2.919458 1.648160 4.097492 0
M  V30 5 C 3.682023 0.703839 3.172351 0
M  V30 6 C 3.140294 0.778511 1.761891 0
M  V30 7 C 3.940141 -0.165919 0.910264 0
M  V30 8 C 3.542352 -0.221179 -0.522055 0
M  V30 9 N 2.207906 -0.624469 -0.790725 0
M  V30 10 C 1.723531 -1.866245 -0.996355 0
M  V30 11 C 0.347397 -1.805500 -1.224276 0
M  V30 12 C -0.489229 -2.966814 -1.493947 0
M  V30 13 C -1.680586 -3.390519 -1.038086 0
M  V30 14 C -2.499429 -2.700155 -0.050401 0
M  V30 15 C -1.869861 -2.165596 1.056200 0
M  V30 16 N -2.766393 -1.549449 1.865772 0
M  V30 17 C -3.986380 -1.678795 1.290696 0
M  V30 18 C -5.280178 -1.283646 1.594534 0
M  V30 19 C -6.353138 -1.579241 0.764455 0
M  V30 20 C -6.113806 -2.289252 -0.397514 0
M  V30 21 C -4.843765 -2.719301 -0.768573 0
M  V30 22 C -3.832361 -2.390989 0.101203 0
M  V30 23 C -2.045229 -4.649743 -1.664961 0
M  V30 24 O -3.025546 -5.404789 -1.564194 0
M  V30 25 N -1.001774 -5.007778 -2.560352 0
M  V30 26 O -0.884874 -6.098945 -3.377470 0
M  V30 27 C -0.025679 -3.977249 -2.470017 0
M  V30 28 O 1.059343 -3.977101 -3.146533 0
M  V30 29 C 0.048800 -0.461812 -1.142545 0
M  V30 30 C -1.135735 0.201501 -1.286276 0
M  V30 31 C -1.273465 1.571126 -1.180344 0
M  V30 32 C -0.114677 2.301879 -0.909465 0
M  V30 33 C 1.090410 1.630672 -0.763883 0
M  V30 34 C 1.195748 0.256436 -0.875936 0
M  V30 35 H 2.867330 4.604707 2.238826 0
M  V30 36 H 1.848614 1.367021 4.137383 0
M  V30 37 H 3.288284 1.554763 5.140851 0
M  V30 38 H 3.484213 -0.317567 3.596177 0
M  V30 39 H 4.763971 0.864970 3.227771 0
M  V30 40 H 3.293950 1.832391 1.419547 0
M  V30 41 H 2.068597 0.603519 1.783349 0
M  V30 42 H 5.000353 0.192396 0.952557 0
M  V30 43 H 3.952733 -1.179235 1.358472 0
M  V30 44 H 4.248964 -0.904294 -1.036289 0
M  V30 45 H 3.746404 0.799511 -0.961210 0
M  V30 46 H 2.346264 -2.743079 -0.978001 0
M  V30 47 H -0.826046 -2.157730 1.370814 0
M  V30 48 H -2.616274 -1.047614 2.779068 0
M  V30 49 H -5.335474 -0.732902 2.537519 0
M  V30 50 H -7.328442 -1.231276 1.081069 0
M  V30 51 H -6.983568 -2.489176 -1.007034 0
M  V30 52 H -4.681953 -3.260077 -1.669326 0
M  V30 53 H -0.781793 -6.922722 -2.841427 0
M  V30 54 H -2.051556 -0.311899 -1.503445 0
M  V30 55 H -2.206564 2.077691 -1.294147 0
M  V30 56 H -0.211005 3.379745 -0.823561 0
M  V30 57 H 1.961408 2.239078 -0.555603 0
M  V30 END ATOM
M  V30 BEGIN BOND
M  V30 1 2 1 2
M  V30 2 1 2 3
M  V30 3 1 2 4
M  V30 4 1 4 5
M  V30 5 1 5 6
M  V30 6 1 6 7
M  V30 7 1 7 8
M  V30 8 1 8 9
M  V30 9 1 9 10
M  V30 10 2 10 11
M  V30 11 1 11 12
M  V30 12 2 12 13
M  V30 13 1 13 14
M  V30 14 2 14 15
M  V30 15 1 15 16
M  V30 16 1 16 17
M  V30 17 2 17 18
M  V30 18 1 18 19
M  V30 19 2 19 20
M  V30 20 1 20 21
M  V30 21 2 21 22
M  V30 22 1 13 23
M  V30 23 2 23 24
M  V30 24 1 23 25
M  V30 25 1 25 26
M  V30 26 1 25 27
M  V30 27 2 27 28
M  V30 28 1 11 29
M  V30 29 2 29 30
M  V30 30 1 30 31
M  V30 31 2 31 32
M  V30 32 1 32 33
M  V30 33 2 33 34
M  V30 34 1 34 9
M  V30 35 1 27 12
M  V30 36 1 34 29
M  V30 37 1 22 14
M  V30 38 1 22 17
M  V30 39 1 3 35
M  V30 40 1 4 36
M  V30 41 1 4 37
M  V30 42 1 5 38
M  V30 43 1 5 39
M  V30 44 1 6 40
M  V30 45 1 6 41
M  V30 46 1 7 42
M  V30 47 1 7 43
M  V30 48 1 8 44
M  V30 49 1 8 45
M  V30 50 1 10 46
M  V30 51 1 15 47
M  V30 52 1 16 48
M  V30 53 1 18 49
M  V30 54 1 19 50
M  V30 55 1 20 51
M  V30 56 1 21 52
M  V30 57 1 26 53
M  V30 58 1 30 54
M  V30 59 1 31 55
M  V30 60 1 32 56
M  V30 61 1 33 57
M  V30 END BOND
M  V30 END CTAB
M  END
>  <Dataset>  (808) 
ChEMBL_Kinases

>  <Ligand_Instance>  (808) 
nan

>  <PDB_ID>  (808) 
nan

>  <Standardized_SMILES>  (808) 
O=C(O)CCCCCn1cc(C2=C(c3c[nH]c4ccccc34)C(=O)N(O)C2=O)c2ccccc21

>  <Name>  (808) 
nan

>  <Pocket>  (808) 
nan

>  <ATP_Site>  (808) 
nan

>  <Peripheral>  (808) 
nan

>  <Num_H_Atoms_ProtBoundConf>  (808) 
nan

>  <Num_Resolved_Atoms>  (808) 
nan

>  <Num_Not_Resolved_Atoms>  (808) 
nan

$$$$
CHEMBL4241689
     RDKit          3D

  0  0  0  0  0  0  0  0  0  0999 V3000
M  V30 BEGIN CTAB
M  V30 COUNTS 58 61 0 0 0
M  V30 BEGIN ATOM
M  V30 1 C 0.388571 -2.325443 3.940165 0
M  V30 2 N 1.652706 -2.616295 3.384084 0
M  V30 3 C 2.795529 -2.032231 4.047664 0
M  V30 4 C 3.088432 -0.634587 3.634045 0
M  V30 5 N 2.926907 -0.351411 2.223431 0
M  V30 6 C 3.864246 0.483548 1.645910 0
M  V30 7 C 3.671924 0.918856 0.188975 0
M  V30 8 O 2.549783 1.550892 -0.077688 0
M  V30 9 C 1.731141 2.186195 -0.918320 0
M  V30 10 C 1.899148 2.524470 -2.219470 0
M  V30 11 C 0.881777 3.172641 -2.841997 0
M  V30 12 C -0.295002 3.515227 -2.261565 0
M  V30 13 C -0.443561 3.158324 -0.930307 0
M  V30 14 C -1.773369 3.331225 -0.218480 0
M  V30 15 C -2.261225 1.898271 -0.080277 0
M  V30 16 O -1.663772 1.134506 0.724931 0
M  V30 17 N -3.329753 1.220772 -0.747408 0
M  V30 18 C -3.278115 -0.097967 -0.278023 0
M  V30 19 N -3.304957 -1.215452 -0.667734 0
M  V30 20 C -3.329831 -2.353611 -1.039887 0
M  V30 21 C -3.444039 -3.756459 -1.308383 0
M  V30 22 C -2.790261 -4.106213 -2.501266 0
M  V30 23 C -2.756888 -5.335876 -3.135738 0
M  V30 24 N -3.454025 -6.278756 -2.494448 0
M  V30 25 C -4.128548 -6.095708 -1.357155 0
M  V30 26 C -4.125361 -4.863939 -0.765601 0
M  V30 27 C -3.176969 -2.668842 0.510855 0
M  V30 28 S -3.112139 -0.912056 1.311501 0
M  V30 29 C 0.532721 2.507324 -0.248254 0
M  V30 30 C 1.966392 -1.078280 1.514244 0
M  V30 31 C 1.747706 -2.507476 1.951995 0
M  V30 32 H 0.193233 -2.956969 4.887849 0
M  V30 33 H -0.402533 -2.667959 3.243757 0
M  V30 34 H 0.215341 -1.270767 4.230610 0
M  V30 35 H 2.557211 -1.980947 5.146434 0
M  V30 36 H 3.668375 -2.715805 3.967238 0
M  V30 37 H 4.148862 -0.409832 3.883261 0
M  V30 38 H 2.474216 0.155486 4.183284 0
M  V30 39 H 4.926127 0.141974 1.692120 0
M  V30 40 H 3.838044 1.490613 2.227916 0
M  V30 41 H 4.569837 1.668895 0.045655 0
M  V30 42 H 3.914198 0.080964 -0.506178 0
M  V30 43 H 2.828534 2.274630 -2.702117 0
M  V30 44 H 0.929388 3.487147 -3.870395 0
M  V30 45 H -1.172044 4.023236 -2.631204 0
M  V30 46 H -1.573743 3.671368 0.797876 0
M  V30 47 H -2.446372 3.961399 -0.738166 0
M  V30 48 H -3.929853 1.725361 -1.373782 0
M  V30 49 H -2.185008 -3.416609 -3.092112 0
M  V30 50 H -2.221436 -5.598279 -4.061136 0
M  V30 51 H -4.757107 -6.756054 -0.772698 0
M  V30 52 H -4.662574 -4.562624 0.152910 0
M  V30 53 H -3.131747 -3.389804 1.358056 0
M  V30 54 H 0.329286 2.273931 0.787308 0
M  V30 55 H 0.979842 -0.541659 1.509332 0
M  V30 56 H 2.284625 -1.133663 0.433138 0
M  V30 57 H 2.571287 -3.119247 1.601865 0
M  V30 58 H 0.769448 -2.844289 1.500647 0
M  V30 END ATOM
M  V30 BEGIN BOND
M  V30 1 1 1 2
M  V30 2 1 2 3
M  V30 3 1 3 4
M  V30 4 1 4 5
M  V30 5 1 5 6
M  V30 6 1 6 7
M  V30 7 1 7 8
M  V30 8 1 8 9
M  V30 9 2 9 10
M  V30 10 1 10 11
M  V30 11 2 11 12
M  V30 12 1 12 13
M  V30 13 1 13 14
M  V30 14 1 14 15
M  V30 15 2 15 16
M  V30 16 1 15 17
M  V30 17 1 17 18
M  V30 18 2 18 19
M  V30 19 1 19 20
M  V30 20 1 20 21
M  V30 21 2 21 22
M  V30 22 1 22 23
M  V30 23 2 23 24
M  V30 24 1 24 25
M  V30 25 2 25 26
M  V30 26 2 20 27
M  V30 27 1 27 28
M  V30 28 2 13 29
M  V30 29 1 5 30
M  V30 30 1 30 31
M  V30 31 1 31 2
M  V30 32 1 29 9
M  V30 33 1 28 18
M  V30 34 1 26 21
M  V30 35 1 1 32
M  V30 36 1 1 33
M  V30 37 1 1 34
M  V30 38 1 3 35
M  V30 39 1 3 36
M  V30 40 1 4 37
M  V30 41 1 4 38
M  V30 42 1 6 39
M  V30 43 1 6 40
M  V30 44 1 7 41
M  V30 45 1 7 42
M  V30 46 1 10 43
M  V30 47 1 11 44
M  V30 48 1 12 45
M  V30 49 1 14 46
M  V30 50 1 14 47
M  V30 51 1 17 48
M  V30 52 1 22 49
M  V30 53 1 23 50
M  V30 54 1 25 51
M  V30 55 1 26 52
M  V30 56 1 27 53
M  V30 57 1 29 54
M  V30 58 1 30 55
M  V30 59 1 30 56
M  V30 60 1 31 57
M  V30 61 1 31 58
M  V30 END BOND
M  V30 END CTAB
M  END
>  <Dataset>  (809) 
ChEMBL_Kinases

>  <Ligand_Instance>  (809) 
nan

>  <PDB_ID>  (809) 
nan

>  <Standardized_SMILES>  (809) 
CN1CCN(CCOc2cccc(CC(=O)Nc3nc(-c4ccncc4)cs3)c2)CC1

>  <Name>  (809) 
nan

>  <Pocket>  (809) 
nan

>  <ATP_Site>  (809) 
nan

>  <Peripheral>  (809) 
nan

>  <Num_H_Atoms_ProtBoundConf>  (809) 
nan

>  <Num_Resolved_Atoms>  (809) 
nan

>  <Num_Not_Resolved_Atoms>  (809) 
nan

$$$$
CHEMBL4241305
     RDKit          3D

  0  0  0  0  0  0  0  0  0  0999 V3000
M  V30 BEGIN CTAB
M  V30 COUNTS 52 55 0 0 0
M  V30 BEGIN ATOM
M  V30 1 C 4.246626 -3.121267 0.680161 0
M  V30 2 C 5.628268 -3.038369 1.224760 0
M  V30 3 C 5.804294 -2.237599 2.463910 0
M  V30 4 S 5.389931 -0.549174 2.374607 0
M  V30 5 O 5.559091 0.031036 3.770452 0
M  V30 6 O 6.315921 0.227624 1.484096 0
M  V30 7 N 3.740118 -0.300550 1.946702 0
M  V30 8 C 3.158232 0.285183 0.776513 0
M  V30 9 C 3.484465 0.111664 -0.548943 0
M  V30 10 C 2.785105 0.787562 -1.527153 0
M  V30 11 C 1.747126 1.653098 -1.246864 0
M  V30 12 C 1.400444 1.844464 0.077037 0
M  V30 13 C 0.290341 2.768705 0.394761 0
M  V30 14 C -1.007848 2.074157 0.431515 0
M  V30 15 O -1.011292 0.837895 0.199265 0
M  V30 16 N -2.209848 2.726579 0.709405 0
M  V30 17 C -3.489799 1.985062 0.735017 0
M  V30 18 N -3.832376 0.837727 0.563592 0
M  V30 19 C -5.058533 0.396397 0.638674 0
M  V30 20 C -5.453699 -0.988793 0.429558 0
M  V30 21 C -6.706509 -1.550837 0.485687 0
M  V30 22 N -6.676797 -2.862267 0.235723 0
M  V30 23 C -5.396779 -3.216299 0.004173 0
M  V30 24 N -4.804550 -4.383672 -0.291296 0
M  V30 25 C -3.467802 -4.502897 -0.486092 0
M  V30 26 C -2.684301 -3.362467 -0.373155 0
M  V30 27 C -3.301802 -2.186031 -0.072731 0
M  V30 28 C -4.662463 -2.062983 0.125901 0
M  V30 29 C -6.058767 1.405631 0.957173 0
M  V30 30 S -4.962977 2.935065 1.103327 0
M  V30 31 C 2.102943 1.166652 1.044219 0
M  V30 32 H 3.891294 -4.191251 0.781210 0
M  V30 33 H 3.505830 -2.545642 1.253010 0
M  V30 34 H 4.209084 -2.941165 -0.426000 0
M  V30 35 H 6.325748 -2.723192 0.414090 0
M  V30 36 H 5.978334 -4.080709 1.478484 0
M  V30 37 H 5.236670 -2.721529 3.284498 0
M  V30 38 H 6.891985 -2.311141 2.737045 0
M  V30 39 H 3.074800 -0.653073 2.698460 0
M  V30 40 H 4.305028 -0.574500 -0.698052 0
M  V30 41 H 3.119421 0.583217 -2.554688 0
M  V30 42 H 1.234908 2.155904 -2.060733 0
M  V30 43 H 0.270458 3.583691 -0.344234 0
M  V30 44 H 0.422660 3.217869 1.416800 0
M  V30 45 H -2.148181 3.727487 0.889811 0
M  V30 46 H -7.625697 -0.987059 0.710025 0
M  V30 47 H -7.469314 -3.540726 0.210596 0
M  V30 48 H -2.961405 -5.416992 -0.722868 0
M  V30 49 H -1.613386 -3.405114 -0.519312 0
M  V30 50 H -2.692642 -1.309612 0.013109 0
M  V30 51 H -7.228084 1.154309 1.060622 0
M  V30 52 H 1.770067 1.371389 2.051822 0
M  V30 END ATOM
M  V30 BEGIN BOND
M  V30 1 1 1 2
M  V30 2 1 2 3
M  V30 3 1 3 4
M  V30 4 2 4 5
M  V30 5 2 4 6
M  V30 6 1 4 7
M  V30 7 1 7 8
M  V30 8 2 8 9
M  V30 9 1 9 10
M  V30 10 2 10 11
M  V30 11 1 11 12
M  V30 12 1 12 13
M  V30 13 1 13 14
M  V30 14 2 14 15
M  V30 15 1 14 16
M  V30 16 1 16 17
M  V30 17 2 17 18
M  V30 18 1 18 19
M  V30 19 1 19 20
M  V30 20 2 20 21
M  V30 21 1 21 22
M  V30 22 1 22 23
M  V30 23 2 23 24
M  V30 24 1 24 25
M  V30 25 2 25 26
M  V30 26 1 26 27
M  V30 27 2 27 28
M  V30 28 2 19 29
M  V30 29 1 29 30
M  V30 30 2 12 31
M  V30 31 1 31 8
M  V30 32 1 30 17
M  V30 33 1 28 20
M  V30 34 1 28 23
M  V30 35 1 1 32
M  V30 36 1 1 33
M  V30 37 1 1 34
M  V30 38 1 2 35
M  V30 39 1 2 36
M  V30 40 1 3 37
M  V30 41 1 3 38
M  V30 42 1 7 39
M  V30 43 1 9 40
M  V30 44 1 10 41
M  V30 45 1 11 42
M  V30 46 1 13 43
M  V30 47 1 13 44
M  V30 48 1 16 45
M  V30 49 1 21 46
M  V30 50 1 22 47
M  V30 51 1 25 48
M  V30 52 1 26 49
M  V30 53 1 27 50
M  V30 54 1 29 51
M  V30 55 1 31 52
M  V30 END BOND
M  V30 END CTAB
M  END
>  <Dataset>  (810) 
ChEMBL_Kinases

>  <Ligand_Instance>  (810) 
nan

>  <PDB_ID>  (810) 
nan

>  <Standardized_SMILES>  (810) 
CCCS(=O)(=O)Nc1cccc(CC(=O)Nc2nc(-c3c[nH]c4ncccc34)cs2)c1

>  <Name>  (810) 
nan

>  <Pocket>  (810) 
nan

>  <ATP_Site>  (810) 
nan

>  <Peripheral>  (810) 
nan

>  <Num_H_Atoms_ProtBoundConf>  (810) 
nan

>  <Num_Resolved_Atoms>  (810) 
nan

>  <Num_Not_Resolved_Atoms>  (810) 
nan

$$$$
CHEMBL4241299
     RDKit          3D

  0  0  0  0  0  0  0  0  0  0999 V3000
M  V30 BEGIN CTAB
M  V30 COUNTS 57 60 0 0 0
M  V30 BEGIN ATOM
M  V30 1 O -0.305214 -3.739904 1.412042 0
M  V30 2 C -1.218066 -3.321200 2.179473 0
M  V30 3 C -1.284340 -1.985084 2.783851 0
M  V30 4 C -0.147652 -1.104435 2.417931 0
M  V30 5 C 0.936486 -1.171814 3.301631 0
M  V30 6 C 2.045188 -0.397886 3.063642 0
M  V30 7 C 2.065949 0.424239 1.965360 0
M  V30 8 C 1.051618 0.553250 1.050556 0
M  V30 9 O 0.767291 1.241209 -0.082181 0
M  V30 10 C 1.601647 2.171083 -0.680442 0
M  V30 11 C 1.888930 3.385084 0.132572 0
M  V30 12 C 0.624507 4.155915 0.480104 0
M  V30 13 N -0.032665 4.573563 -0.721070 0
M  V30 14 C -1.257122 5.314752 -0.438189 0
M  V30 15 C -2.004602 5.452617 -1.732601 0
M  V30 16 O -1.105156 5.532828 -2.808121 0
M  V30 17 C 0.003768 6.307732 -2.430643 0
M  V30 18 C 0.820464 5.477927 -1.465847 0
M  V30 19 C -0.067397 -0.246130 1.314513 0
M  V30 20 N -2.296876 -4.170832 2.521891 0
M  V30 21 C -2.222376 -5.505735 1.911310 0
M  V30 22 N -1.482858 -6.073479 1.190804 0
M  V30 23 C -1.632704 -7.327306 0.758937 0
M  V30 24 C -0.652279 -7.933256 -0.134265 0
M  V30 25 C -0.775648 -9.219265 -0.598202 0
M  V30 26 C 0.089797 -9.881645 -1.440795 0
M  V30 27 N 1.174241 -9.208530 -1.860319 0
M  V30 28 C 1.366114 -7.943011 -1.449428 0
M  V30 29 C 0.486131 -7.317243 -0.612927 0
M  V30 30 C -2.760067 -8.018407 1.200648 0
M  V30 31 S -3.568350 -6.697384 2.284531 0
M  V30 32 H -2.197016 -1.469978 2.360609 0
M  V30 33 H -1.373012 -2.057697 3.882576 0
M  V30 34 H 0.978643 -1.788325 4.167259 0
M  V30 35 H 2.940277 -0.355613 3.661221 0
M  V30 36 H 2.906862 1.042384 1.710550 0
M  V30 37 H 1.240925 2.466930 -1.709280 0
M  V30 38 H 2.607667 1.688540 -0.903692 0
M  V30 39 H 2.428261 3.158735 1.046901 0
M  V30 40 H 2.549775 4.111264 -0.428110 0
M  V30 41 H 0.935322 5.012467 1.105229 0
M  V30 42 H -0.039545 3.510423 1.091207 0
M  V30 43 H -1.908106 4.737145 0.263825 0
M  V30 44 H -1.072665 6.301268 0.001377 0
M  V30 45 H -2.698089 6.316771 -1.732613 0
M  V30 46 H -2.588100 4.522293 -1.877005 0
M  V30 47 H -0.406883 7.232888 -1.971016 0
M  V30 48 H 0.587555 6.502737 -3.340969 0
M  V30 49 H 1.500852 4.836110 -2.071441 0
M  V30 50 H 1.473212 6.081121 -0.803740 0
M  V30 51 H -1.002736 -0.352800 0.775223 0
M  V30 52 H -3.071300 -3.906853 3.135151 0
M  V30 53 H -1.629801 -9.828818 -0.301862 0
M  V30 54 H -0.067019 -10.896964 -1.769370 0
M  V30 55 H 2.222879 -7.365708 -1.761778 0
M  V30 56 H 0.667212 -6.278150 -0.291315 0
M  V30 57 H -3.031914 -9.061580 0.937389 0
M  V30 END ATOM
M  V30 BEGIN BOND
M  V30 1 2 1 2
M  V30 2 1 2 3
M  V30 3 1 3 4
M  V30 4 2 4 5
M  V30 5 1 5 6
M  V30 6 2 6 7
M  V30 7 1 7 8
M  V30 8 1 8 9
M  V30 9 1 9 10
M  V30 10 1 10 11
M  V30 11 1 11 12
M  V30 12 1 12 13
M  V30 13 1 13 14
M  V30 14 1 14 15
M  V30 15 1 15 16
M  V30 16 1 16 17
M  V30 17 1 17 18
M  V30 18 2 8 19
M  V30 19 1 2 20
M  V30 20 1 20 21
M  V30 21 2 21 22
M  V30 22 1 22 23
M  V30 23 1 23 24
M  V30 24 2 24 25
M  V30 25 1 25 26
M  V30 26 2 26 27
M  V30 27 1 27 28
M  V30 28 2 28 29
M  V30 29 2 23 30
M  V30 30 1 30 31
M  V30 31 1 19 4
M  V30 32 1 31 21
M  V30 33 1 18 13
M  V30 34 1 29 24
M  V30 35 1 3 32
M  V30 36 1 3 33
M  V30 37 1 5 34
M  V30 38 1 6 35
M  V30 39 1 7 36
M  V30 40 1 10 37
M  V30 41 1 10 38
M  V30 42 1 11 39
M  V30 43 1 11 40
M  V30 44 1 12 41
M  V30 45 1 12 42
M  V30 46 1 14 43
M  V30 47 1 14 44
M  V30 48 1 15 45
M  V30 49 1 15 46
M  V30 50 1 17 47
M  V30 51 1 17 48
M  V30 52 1 18 49
M  V30 53 1 18 50
M  V30 54 1 19 51
M  V30 55 1 20 52
M  V30 56 1 25 53
M  V30 57 1 26 54
M  V30 58 1 28 55
M  V30 59 1 29 56
M  V30 60 1 30 57
M  V30 END BOND
M  V30 END CTAB
M  END
>  <Dataset>  (811) 
ChEMBL_Kinases

>  <Ligand_Instance>  (811) 
nan

>  <PDB_ID>  (811) 
nan

>  <Standardized_SMILES>  (811) 
O=C(Cc1cccc(OCCCN2CCOCC2)c1)Nc1nc(-c2ccncc2)cs1

>  <Name>  (811) 
nan

>  <Pocket>  (811) 
nan

>  <ATP_Site>  (811) 
nan

>  <Peripheral>  (811) 
nan

>  <Num_H_Atoms_ProtBoundConf>  (811) 
nan

>  <Num_Resolved_Atoms>  (811) 
nan

>  <Num_Not_Resolved_Atoms>  (811) 
nan

$$$$
CHEMBL4241204
     RDKit          3D

  0  0  0  0  0  0  0  0  0  0999 V3000
M  V30 BEGIN CTAB
M  V30 COUNTS 61 64 0 0 0
M  V30 BEGIN ATOM
M  V30 1 C 1.373476 -0.570643 5.279167 0
M  V30 2 N 2.484153 -0.369093 4.376252 0
M  V30 3 C 2.878984 -1.594752 3.706947 0
M  V30 4 C 4.121940 -1.327190 2.880085 0
M  V30 5 N 3.910040 -0.243991 1.939201 0
M  V30 6 C 3.347020 -0.704511 0.718364 0
M  V30 7 C 3.039952 0.371058 -0.281649 0
M  V30 8 C 2.460046 -0.284821 -1.524834 0
M  V30 9 O 2.059934 0.633489 -2.511762 0
M  V30 10 C 1.006451 1.508858 -2.330711 0
M  V30 11 C 0.651126 2.445433 -3.279225 0
M  V30 12 C -0.397813 3.321876 -3.115265 0
M  V30 13 C -1.156935 3.305927 -1.975486 0
M  V30 14 C -0.907740 2.406191 -0.934197 0
M  V30 15 C -1.519544 2.133051 0.389744 0
M  V30 16 C -2.533507 1.048116 0.204025 0
M  V30 17 O -3.692568 1.309432 -0.266157 0
M  V30 18 N -2.187426 -0.258964 0.550682 0
M  V30 19 C -2.785946 -1.570252 0.567239 0
M  V30 20 N -3.261187 -2.572892 0.668053 0
M  V30 21 C -3.672352 -3.481078 -0.193220 0
M  V30 22 C -4.139270 -4.510749 -1.114788 0
M  V30 23 C -4.709679 -5.732485 -0.842489 0
M  V30 24 C -5.044129 -6.483926 -1.932716 0
M  V30 25 N -4.839815 -6.081207 -3.188749 0
M  V30 26 C -4.296600 -4.921497 -3.496818 0
M  V30 27 C -3.937666 -4.115891 -2.445007 0
M  V30 28 C -3.915702 -3.931333 1.195863 0
M  V30 29 S -3.239918 -2.454698 2.187625 0
M  V30 30 C 0.183040 1.565514 -1.216256 0
M  V30 31 C 3.308747 0.891507 2.550632 0
M  V30 32 C 2.051180 0.550087 3.322563 0
M  V30 33 H 0.465574 -0.941755 4.718514 0
M  V30 34 H 1.600372 -1.256285 6.102594 0
M  V30 35 H 1.059099 0.409437 5.679690 0
M  V30 36 H 2.007388 -1.879888 3.078915 0
M  V30 37 H 3.131146 -2.397754 4.424740 0
M  V30 38 H 4.922014 -1.018600 3.582571 0
M  V30 39 H 4.415444 -2.246500 2.384172 0
M  V30 40 H 4.104117 -1.386818 0.244124 0
M  V30 41 H 2.450339 -1.374797 0.869602 0
M  V30 42 H 4.035962 0.808721 -0.675881 0
M  V30 43 H 2.511261 1.238449 0.061120 0
M  V30 44 H 3.273448 -0.960136 -1.911327 0
M  V30 45 H 1.617702 -0.929401 -1.180687 0
M  V30 46 H 1.212534 2.519343 -4.218765 0
M  V30 47 H -0.721278 4.076670 -3.825618 0
M  V30 48 H -2.019835 3.926824 -1.683227 0
M  V30 49 H -0.754386 1.762698 1.091037 0
M  V30 50 H -2.010790 3.051960 0.800215 0
M  V30 51 H -1.202154 -0.418583 0.925380 0
M  V30 52 H -4.848805 -6.000634 0.189337 0
M  V30 53 H -5.495949 -7.451511 -1.721241 0
M  V30 54 H -4.159290 -4.660925 -4.541164 0
M  V30 55 H -3.492496 -3.167352 -2.767989 0
M  V30 56 H -4.380450 -4.885167 1.806587 0
M  V30 57 H 0.431436 0.790468 -0.471599 0
M  V30 58 H 4.035648 1.255979 3.333949 0
M  V30 59 H 3.102414 1.717708 1.896771 0
M  V30 60 H 1.392167 -0.017392 2.660360 0
M  V30 61 H 1.651257 1.494055 3.696138 0
M  V30 END ATOM
M  V30 BEGIN BOND
M  V30 1 1 1 2
M  V30 2 1 2 3
M  V30 3 1 3 4
M  V30 4 1 4 5
M  V30 5 1 5 6
M  V30 6 1 6 7
M  V30 7 1 7 8
M  V30 8 1 8 9
M  V30 9 1 9 10
M  V30 10 2 10 11
M  V30 11 1 11 12
M  V30 12 2 12 13
M  V30 13 1 13 14
M  V30 14 1 14 15
M  V30 15 1 15 16
M  V30 16 2 16 17
M  V30 17 1 16 18
M  V30 18 1 18 19
M  V30 19 2 19 20
M  V30 20 1 20 21
M  V30 21 1 21 22
M  V30 22 2 22 23
M  V30 23 1 23 24
M  V30 24 2 24 25
M  V30 25 1 25 26
M  V30 26 2 26 27
M  V30 27 2 21 28
M  V30 28 1 28 29
M  V30 29 2 14 30
M  V30 30 1 5 31
M  V30 31 1 31 32
M  V30 32 1 32 2
M  V30 33 1 30 10
M  V30 34 1 29 19
M  V30 35 1 27 22
M  V30 36 1 1 33
M  V30 37 1 1 34
M  V30 38 1 1 35
M  V30 39 1 3 36
M  V30 40 1 3 37
M  V30 41 1 4 38
M  V30 42 1 4 39
M  V30 43 1 6 40
M  V30 44 1 6 41
M  V30 45 1 7 42
M  V30 46 1 7 43
M  V30 47 1 8 44
M  V30 48 1 8 45
M  V30 49 1 11 46
M  V30 50 1 12 47
M  V30 51 1 13 48
M  V30 52 1 15 49
M  V30 53 1 15 50
M  V30 54 1 18 51
M  V30 55 1 23 52
M  V30 56 1 24 53
M  V30 57 1 26 54
M  V30 58 1 27 55
M  V30 59 1 28 56
M  V30 60 1 30 57
M  V30 61 1 31 58
M  V30 62 1 31 59
M  V30 63 1 32 60
M  V30 64 1 32 61
M  V30 END BOND
M  V30 END CTAB
M  END
>  <Dataset>  (812) 
ChEMBL_Kinases

>  <Ligand_Instance>  (812) 
nan

>  <PDB_ID>  (812) 
nan

>  <Standardized_SMILES>  (812) 
CN1CCN(CCCOc2cccc(CC(=O)Nc3nc(-c4ccncc4)cs3)c2)CC1

>  <Name>  (812) 
nan

>  <Pocket>  (812) 
nan

>  <ATP_Site>  (812) 
nan

>  <Peripheral>  (812) 
nan

>  <Num_H_Atoms_ProtBoundConf>  (812) 
nan

>  <Num_Resolved_Atoms>  (812) 
nan

>  <Num_Not_Resolved_Atoms>  (812) 
nan

$$$$
CHEMBL4241193
     RDKit          3D

  0  0  0  0  0  0  0  0  0  0999 V3000
M  V30 BEGIN CTAB
M  V30 COUNTS 60 63 0 0 0
M  V30 BEGIN ATOM
M  V30 1 C -0.974786 -2.478639 2.634458 0
M  V30 2 O -0.839090 -3.020906 1.334366 0
M  V30 3 C 0.367944 -2.877846 0.674619 0
M  V30 4 C 1.478409 -2.235056 1.172502 0
M  V30 5 C 2.610833 -2.180420 0.376093 0
M  V30 6 N 3.751891 -1.514110 0.899991 0
M  V30 7 C 3.584025 -0.249682 0.231024 0
M  V30 8 N 3.982369 0.131158 -1.020637 0
M  V30 9 C 3.702800 1.370562 -1.457315 0
M  V30 10 C 3.017732 2.292637 -0.670826 0
M  V30 11 C 2.674569 3.619797 -1.062539 0
M  V30 12 N 2.417977 4.691688 -1.380988 0
M  V30 13 C 2.624283 1.914094 0.575778 0
M  V30 14 N 1.892558 2.647142 1.583957 0
M  V30 15 C 0.519438 2.351958 1.805143 0
M  V30 16 C 0.014367 1.377975 0.943196 0
M  V30 17 C -1.312285 1.008340 1.161655 0
M  V30 18 C -2.065603 1.588514 2.182841 0
M  V30 19 C -1.443417 2.530189 2.951564 0
M  V30 20 C -0.154381 2.973582 2.834569 0
M  V30 21 C 0.443567 4.025817 3.701110 0
M  V30 22 N -0.316229 4.322771 4.885851 0
M  V30 23 O 1.495460 4.386741 3.141597 0
M  V30 24 N 2.912458 0.666891 0.990706 0
M  V30 25 C 2.685847 -2.748191 -0.909558 0
M  V30 26 C 1.568237 -3.394191 -1.409188 0
M  V30 27 C 0.441888 -3.442103 -0.606990 0
M  V30 28 N -0.707710 -4.077249 -1.153380 0
M  V30 29 C -1.645629 -5.123024 -0.826869 0
M  V30 30 C -3.021229 -4.494723 -0.918133 0
M  V30 31 N -2.944634 -3.049820 -1.022098 0
M  V30 32 C -4.328886 -2.577562 -1.176590 0
M  V30 33 C -2.211263 -2.552487 -2.141655 0
M  V30 34 C -1.096453 -3.530201 -2.444216 0
M  V30 35 H -0.533040 -1.473859 2.676350 0
M  V30 36 H -0.418320 -3.200641 3.294062 0
M  V30 37 H -2.047402 -2.397643 2.929421 0
M  V30 38 H 1.421257 -1.803082 2.158750 0
M  V30 39 H 4.533792 -1.779298 1.573912 0
M  V30 40 H 4.009961 1.682922 -2.436752 0
M  V30 41 H 2.732547 3.182347 1.806343 0
M  V30 42 H 0.564492 0.923827 0.163201 0
M  V30 43 H -1.700550 0.249556 0.487611 0
M  V30 44 H -3.073449 1.271121 2.309770 0
M  V30 45 H -2.090190 2.947253 3.725561 0
M  V30 46 H -1.273267 4.732974 4.697345 0
M  V30 47 H 0.224651 4.082159 5.733805 0
M  V30 48 H 3.601367 -2.668055 -1.477975 0
M  V30 49 H 1.567020 -3.851771 -2.400616 0
M  V30 50 H -1.596378 -5.909720 -1.620696 0
M  V30 51 H -1.542149 -5.564620 0.150320 0
M  V30 52 H -3.631554 -4.948360 -1.723622 0
M  V30 53 H -3.553882 -4.691139 0.029421 0
M  V30 54 H -4.762759 -2.283927 -0.201682 0
M  V30 55 H -4.370983 -1.663734 -1.830036 0
M  V30 56 H -4.932783 -3.347160 -1.704535 0
M  V30 57 H -1.728633 -1.578986 -1.817662 0
M  V30 58 H -2.851051 -2.323948 -3.026365 0
M  V30 59 H -0.267124 -2.976541 -2.949073 0
M  V30 60 H -1.449958 -4.308282 -3.162027 0
M  V30 END ATOM
M  V30 BEGIN BOND
M  V30 1 1 1 2
M  V30 2 1 2 3
M  V30 3 2 3 4
M  V30 4 1 4 5
M  V30 5 1 5 6
M  V30 6 1 6 7
M  V30 7 2 7 8
M  V30 8 1 8 9
M  V30 9 2 9 10
M  V30 10 1 10 11
M  V30 11 3 11 12
M  V30 12 1 10 13
M  V30 13 1 13 14
M  V30 14 1 14 15
M  V30 15 2 15 16
M  V30 16 1 16 17
M  V30 17 2 17 18
M  V30 18 1 18 19
M  V30 19 2 19 20
M  V30 20 1 20 21
M  V30 21 1 21 22
M  V30 22 2 21 23
M  V30 23 2 13 24
M  V30 24 2 5 25
M  V30 25 1 25 26
M  V30 26 2 26 27
M  V30 27 1 27 28
M  V30 28 1 28 29
M  V30 29 1 29 30
M  V30 30 1 30 31
M  V30 31 1 31 32
M  V30 32 1 31 33
M  V30 33 1 33 34
M  V30 34 1 27 3
M  V30 35 1 34 28
M  V30 36 1 24 7
M  V30 37 1 20 15
M  V30 38 1 1 35
M  V30 39 1 1 36
M  V30 40 1 1 37
M  V30 41 1 4 38
M  V30 42 1 6 39
M  V30 43 1 9 40
M  V30 44 1 14 41
M  V30 45 1 16 42
M  V30 46 1 17 43
M  V30 47 1 18 44
M  V30 48 1 19 45
M  V30 49 1 22 46
M  V30 50 1 22 47
M  V30 51 1 25 48
M  V30 52 1 26 49
M  V30 53 1 29 50
M  V30 54 1 29 51
M  V30 55 1 30 52
M  V30 56 1 30 53
M  V30 57 1 32 54
M  V30 58 1 32 55
M  V30 59 1 32 56
M  V30 60 1 33 57
M  V30 61 1 33 58
M  V30 62 1 34 59
M  V30 63 1 34 60
M  V30 END BOND
M  V30 END CTAB
M  END
>  <Dataset>  (813) 
ChEMBL_Kinases

>  <Ligand_Instance>  (813) 
nan

>  <PDB_ID>  (813) 
nan

>  <Standardized_SMILES>  (813) 
COc1cc(Nc2ncc(C#N)c(Nc3ccccc3C(N)=O)n2)ccc1N1CCN(C)CC1

>  <Name>  (813) 
nan

>  <Pocket>  (813) 
nan

>  <ATP_Site>  (813) 
nan

>  <Peripheral>  (813) 
nan

>  <Num_H_Atoms_ProtBoundConf>  (813) 
nan

>  <Num_Resolved_Atoms>  (813) 
nan

>  <Num_Not_Resolved_Atoms>  (813) 
nan

$$$$
CHEMBL4764558
     RDKit          3D

  0  0  0  0  0  0  0  0  0  0999 V3000
M  V30 BEGIN CTAB
M  V30 COUNTS 67 71 0 0 0
M  V30 BEGIN ATOM
M  V30 1 N 3.985528 -4.188933 5.918081 0
M  V30 2 C 3.059017 -4.255251 4.851676 0
M  V30 3 O 2.550992 -5.366638 4.659672 0
M  V30 4 C 2.789203 -3.097155 4.110542 0
M  V30 5 S 3.547628 -1.462711 4.415264 0
M  V30 6 C 2.607249 -0.630248 2.995805 0
M  V30 7 C 2.846249 0.842608 2.749406 0
M  V30 8 C 3.734789 1.537621 3.538986 0
M  V30 9 C 3.841088 2.878648 3.203268 0
M  V30 10 N 3.114884 3.414732 2.180637 0
M  V30 11 C 2.268524 2.653446 1.462310 0
M  V30 12 N 1.547707 3.303155 0.417112 0
M  V30 13 C 0.314499 3.790346 0.926253 0
M  V30 14 O -0.621780 4.048116 1.724945 0
M  V30 15 C -0.742664 4.522452 0.209846 0
M  V30 16 C -1.127319 4.068375 -1.176442 0
M  V30 17 C -0.503399 5.395575 -0.947596 0
M  V30 18 C 2.087613 1.286220 1.720255 0
M  V30 19 N 1.913794 -1.562425 2.511780 0
M  V30 20 C 1.972801 -2.771943 3.022651 0
M  V30 21 O 1.271392 -3.892812 2.600074 0
M  V30 22 C 0.396708 -3.742368 1.500253 0
M  V30 23 C -0.316031 -4.980770 1.126891 0
M  V30 24 C -1.251679 -4.943748 -0.025798 0
M  V30 25 C -2.354443 -3.967712 0.180573 0
M  V30 26 C -2.692938 -3.124593 -1.022240 0
M  V30 27 N -1.535399 -2.611779 -1.624951 0
M  V30 28 C -1.174260 -1.261895 -1.409013 0
M  V30 29 C -2.139217 -0.243435 -1.857551 0
M  V30 30 C -3.167007 0.340837 -1.151767 0
M  V30 31 C -3.993128 1.285724 -1.717964 0
M  V30 32 C -3.838280 1.701737 -3.026496 0
M  V30 33 F -4.624291 2.624537 -3.621156 0
M  V30 34 C -2.824069 1.124326 -3.720452 0
M  V30 35 C -1.994619 0.187904 -3.181280 0
M  V30 36 C -0.484221 -3.497568 -1.949171 0
M  V30 37 C -0.598069 -4.873504 -1.369868 0
M  V30 38 H 3.944072 -3.860370 6.892636 0
M  V30 39 H 4.673397 -4.144781 6.694169 0
M  V30 40 H 4.282528 1.064847 4.333493 0
M  V30 41 H 4.524804 3.514879 3.775934 0
M  V30 42 H 1.699617 3.504149 -0.594290 0
M  V30 43 H -1.603254 4.773342 0.896063 0
M  V30 44 H -2.208103 3.960011 -1.379076 0
M  V30 45 H -0.514227 3.337118 -1.731871 0
M  V30 46 H -1.206455 6.270855 -1.048992 0
M  V30 47 H 0.491223 5.617486 -1.355634 0
M  V30 48 H 1.413126 0.707960 1.137898 0
M  V30 49 H 0.931914 -3.244277 0.669036 0
M  V30 50 H -0.342260 -2.979208 1.840313 0
M  V30 51 H 0.470241 -5.780447 1.026824 0
M  V30 52 H -0.882375 -5.318065 2.043773 0
M  V30 53 H -1.739677 -5.969337 -0.012029 0
M  V30 54 H -3.335461 -4.462490 0.457560 0
M  V30 55 H -2.164153 -3.298414 1.042151 0
M  V30 56 H -3.357386 -2.327113 -0.698364 0
M  V30 57 H -3.240715 -3.752484 -1.759083 0
M  V30 58 H -0.190909 -1.106295 -1.941000 0
M  V30 59 H -0.886214 -1.106634 -0.327292 0
M  V30 60 H -3.261257 -0.004163 -0.131746 0
M  V30 61 H -4.784850 1.713128 -1.119316 0
M  V30 62 H -2.670843 1.429727 -4.761791 0
M  V30 63 H -1.204050 -0.221965 -3.819107 0
M  V30 64 H 0.484957 -2.995085 -1.722108 0
M  V30 65 H -0.462132 -3.558373 -3.074690 0
M  V30 66 H -1.143360 -5.486427 -2.119855 0
M  V30 67 H 0.425710 -5.308661 -1.333369 0
M  V30 END ATOM
M  V30 BEGIN BOND
M  V30 1 1 1 2
M  V30 2 2 2 3
M  V30 3 1 2 4
M  V30 4 1 4 5
M  V30 5 1 5 6
M  V30 6 1 6 7
M  V30 7 2 7 8
M  V30 8 1 8 9
M  V30 9 2 9 10
M  V30 10 1 10 11
M  V30 11 1 11 12
M  V30 12 1 12 13
M  V30 13 2 13 14
M  V30 14 1 13 15
M  V30 15 1 15 16
M  V30 16 1 16 17
M  V30 17 2 11 18
M  V30 18 2 6 19
M  V30 19 1 19 20
M  V30 20 1 20 21
M  V30 21 1 21 22
M  V30 22 1 22 23
M  V30 23 1 23 24
M  V30 24 1 24 25
M  V30 25 1 25 26
M  V30 26 1 26 27
M  V30 27 1 27 28
M  V30 28 1 28 29
M  V30 29 2 29 30
M  V30 30 1 30 31
M  V30 31 2 31 32
M  V30 32 1 32 33
M  V30 33 1 32 34
M  V30 34 2 34 35
M  V30 35 1 27 36
M  V30 36 1 36 37
M  V30 37 2 20 4
M  V30 38 1 37 24
M  V30 39 1 18 7
M  V30 40 1 35 29
M  V30 41 1 17 15
M  V30 42 1 1 38
M  V30 43 1 1 39
M  V30 44 1 8 40
M  V30 45 1 9 41
M  V30 46 1 12 42
M  V30 47 1 15 43
M  V30 48 1 16 44
M  V30 49 1 16 45
M  V30 50 1 17 46
M  V30 51 1 17 47
M  V30 52 1 18 48
M  V30 53 1 22 49
M  V30 54 1 22 50
M  V30 55 1 23 51
M  V30 56 1 23 52
M  V30 57 1 24 53
M  V30 58 1 25 54
M  V30 59 1 25 55
M  V30 60 1 26 56
M  V30 61 1 26 57
M  V30 62 1 28 58
M  V30 63 1 28 59
M  V30 64 1 30 60
M  V30 65 1 31 61
M  V30 66 1 34 62
M  V30 67 1 35 63
M  V30 68 1 36 64
M  V30 69 1 36 65
M  V30 70 1 37 66
M  V30 71 1 37 67
M  V30 END BOND
M  V30 END CTAB
M  END
>  <Dataset>  (814) 
ChEMBL_Kinases

>  <Ligand_Instance>  (814) 
nan

>  <PDB_ID>  (814) 
nan

>  <Standardized_SMILES>  (814) 
NC(=O)c1sc(-c2ccnc(NC(=O)C3CC3)c2)nc1OCCC1CCN(Cc2ccc(F)cc2)CC1

>  <Name>  (814) 
nan

>  <Pocket>  (814) 
nan

>  <ATP_Site>  (814) 
nan

>  <Peripheral>  (814) 
nan

>  <Num_H_Atoms_ProtBoundConf>  (814) 
nan

>  <Num_Resolved_Atoms>  (814) 
nan

>  <Num_Not_Resolved_Atoms>  (814) 
nan

$$$$
CHEMBL4240458
     RDKit          3D

  0  0  0  0  0  0  0  0  0  0999 V3000
M  V30 BEGIN CTAB
M  V30 COUNTS 49 52 0 0 0
M  V30 BEGIN ATOM
M  V30 1 C 3.600992 -4.234320 -1.421330 0
M  V30 2 N 4.963277 -4.104744 -0.993386 0
M  V30 3 C 5.225698 -4.708871 0.286744 0
M  V30 4 S 5.626634 -2.556310 -1.187007 0
M  V30 5 O 5.596935 -2.224767 -2.663404 0
M  V30 6 O 7.081155 -2.621451 -0.801867 0
M  V30 7 C 4.838307 -1.307997 -0.294129 0
M  V30 8 C 5.315934 -1.067722 0.992587 0
M  V30 9 C 4.755151 -0.092785 1.787015 0
M  V30 10 C 3.712376 0.658436 1.317339 0
M  V30 11 C 3.204272 0.447474 0.030394 0
M  V30 12 C 2.069576 1.269519 -0.471146 0
M  V30 13 C 0.826496 0.511970 -0.083580 0
M  V30 14 O 0.453408 -0.531222 0.492756 0
M  V30 15 N -0.310709 1.230783 -0.525072 0
M  V30 16 C -1.654293 0.754538 -0.299656 0
M  V30 17 N -2.445752 0.897293 0.570569 0
M  V30 18 C -3.651735 0.447415 0.729044 0
M  V30 19 C -4.408527 0.751563 1.929815 0
M  V30 20 C -3.894007 1.258012 3.131116 0
M  V30 21 N -4.833857 1.472558 4.063464 0
M  V30 22 C -6.020025 1.124224 3.538628 0
M  V30 23 N -7.271104 1.148647 4.025962 0
M  V30 24 C -8.332126 0.758358 3.296771 0
M  V30 25 C -8.101804 0.315553 1.987488 0
M  V30 26 C -6.810188 0.299952 1.512543 0
M  V30 27 C -5.735667 0.698026 2.263450 0
M  V30 28 C -4.028128 -0.343122 -0.355481 0
M  V30 29 S -2.649681 -0.348928 -1.448096 0
M  V30 30 C 3.786393 -0.526916 -0.725217 0
M  V30 31 H 3.120234 -5.118723 -0.949897 0
M  V30 32 H 3.006305 -3.313576 -1.234248 0
M  V30 33 H 3.548401 -4.420014 -2.517014 0
M  V30 34 H 5.666449 -5.713164 0.096659 0
M  V30 35 H 4.274707 -4.910307 0.858482 0
M  V30 36 H 5.935699 -4.126164 0.889282 0
M  V30 37 H 6.128605 -1.626069 1.408213 0
M  V30 38 H 5.122474 0.088417 2.770013 0
M  V30 39 H 3.291323 1.427553 1.981990 0
M  V30 40 H 2.109671 1.402072 -1.571076 0
M  V30 41 H 2.054239 2.247026 0.012520 0
M  V30 42 H -0.367413 2.153473 -1.047091 0
M  V30 43 H -2.830344 1.474152 3.335421 0
M  V30 44 H -4.684420 1.839164 5.016717 0
M  V30 45 H -9.279694 0.829552 3.813499 0
M  V30 46 H -8.987495 0.014762 1.445769 0
M  V30 47 H -6.767620 -0.037200 0.510802 0
M  V30 48 H -5.099262 -0.948518 -0.525275 0
M  V30 49 H 3.442041 -0.745054 -1.735478 0
M  V30 END ATOM
M  V30 BEGIN BOND
M  V30 1 1 1 2
M  V30 2 1 2 3
M  V30 3 1 2 4
M  V30 4 2 4 5
M  V30 5 2 4 6
M  V30 6 1 4 7
M  V30 7 2 7 8
M  V30 8 1 8 9
M  V30 9 2 9 10
M  V30 10 1 10 11
M  V30 11 1 11 12
M  V30 12 1 12 13
M  V30 13 2 13 14
M  V30 14 1 13 15
M  V30 15 1 15 16
M  V30 16 2 16 17
M  V30 17 1 17 18
M  V30 18 1 18 19
M  V30 19 2 19 20
M  V30 20 1 20 21
M  V30 21 1 21 22
M  V30 22 2 22 23
M  V30 23 1 23 24
M  V30 24 2 24 25
M  V30 25 1 25 26
M  V30 26 2 26 27
M  V30 27 2 18 28
M  V30 28 1 28 29
M  V30 29 2 11 30
M  V30 30 1 30 7
M  V30 31 1 29 16
M  V30 32 1 27 19
M  V30 33 1 27 22
M  V30 34 1 1 31
M  V30 35 1 1 32
M  V30 36 1 1 33
M  V30 37 1 3 34
M  V30 38 1 3 35
M  V30 39 1 3 36
M  V30 40 1 8 37
M  V30 41 1 9 38
M  V30 42 1 10 39
M  V30 43 1 12 40
M  V30 44 1 12 41
M  V30 45 1 15 42
M  V30 46 1 20 43
M  V30 47 1 21 44
M  V30 48 1 24 45
M  V30 49 1 25 46
M  V30 50 1 26 47
M  V30 51 1 28 48
M  V30 52 1 30 49
M  V30 END BOND
M  V30 END CTAB
M  END
>  <Dataset>  (815) 
ChEMBL_Kinases

>  <Ligand_Instance>  (815) 
nan

>  <PDB_ID>  (815) 
nan

>  <Standardized_SMILES>  (815) 
CN(C)S(=O)(=O)c1cccc(CC(=O)Nc2nc(-c3c[nH]c4ncccc34)cs2)c1

>  <Name>  (815) 
nan

>  <Pocket>  (815) 
nan

>  <ATP_Site>  (815) 
nan

>  <Peripheral>  (815) 
nan

>  <Num_H_Atoms_ProtBoundConf>  (815) 
nan

>  <Num_Resolved_Atoms>  (815) 
nan

>  <Num_Not_Resolved_Atoms>  (815) 
nan

$$$$
CHEMBL4764685
     RDKit          3D

  0  0  0  0  0  0  0  0  0  0999 V3000
M  V30 BEGIN CTAB
M  V30 COUNTS 75 79 0 0 0
M  V30 BEGIN ATOM
M  V30 1 C 5.390462 -4.078824 2.112735 0
M  V30 2 N 6.729298 -3.836599 2.543864 0
M  V30 3 C 7.719427 -4.154615 1.531607 0
M  V30 4 C 7.821856 -2.944509 0.598415 0
M  V30 5 N 6.602231 -2.230579 0.678166 0
M  V30 6 C 6.294994 -1.319054 -0.412892 0
M  V30 7 C 6.017556 -2.057606 -1.664041 0
M  V30 8 C 5.763749 -1.370663 -2.935282 0
M  V30 9 C 4.658214 -0.397680 -3.098440 0
M  V30 10 C 4.780820 0.876668 -2.366111 0
M  V30 11 O 3.689198 1.773488 -2.512387 0
M  V30 12 C 2.398502 1.593049 -2.122039 0
M  V30 13 C 1.632258 2.711792 -2.473449 0
M  V30 14 C 0.288182 2.825723 -2.207925 0
M  V30 15 C -0.371080 1.799008 -1.561739 0
M  V30 16 N -1.733682 1.629259 -1.149918 0
M  V30 17 C -2.701138 1.035187 -2.011763 0
M  V30 18 O -2.454471 0.384268 -3.057272 0
M  V30 19 S -4.306423 1.428847 -1.268366 0
M  V30 20 C -3.619457 1.761136 0.374843 0
M  V30 21 C -4.221897 1.763627 1.536154 0
M  V30 22 C -5.650458 1.469771 1.634872 0
M  V30 23 C -5.975016 0.713480 2.766160 0
M  V30 24 C -7.297493 0.350862 3.005661 0
M  V30 25 C -8.318557 0.726573 2.137116 0
M  V30 26 O -9.657717 0.377365 2.352510 0
M  V30 27 C -10.217445 -0.778383 1.871531 0
M  V30 28 C -10.868093 -1.003296 0.649083 0
M  V30 29 C -11.356727 -2.281852 0.391228 0
M  V30 30 C -11.224088 -3.320943 1.283756 0
M  V30 31 Cl -11.899933 -4.884268 0.810350 0
M  V30 32 C -10.587088 -3.120337 2.490924 0
M  V30 33 C -10.104021 -1.856786 2.747113 0
M  V30 34 C -7.948242 1.477683 1.025484 0
M  V30 35 C -6.649413 1.849247 0.765335 0
M  V30 36 C -2.217712 2.022551 0.134067 0
M  V30 37 O -1.479891 2.565302 1.012457 0
M  V30 38 C 0.362859 0.664256 -1.195290 0
M  V30 39 C 1.712594 0.589599 -1.479957 0
M  V30 40 C 6.595364 -1.511121 1.946761 0
M  V30 41 C 6.925108 -2.493288 3.056900 0
M  V30 42 H 4.903359 -4.961353 2.569100 0
M  V30 43 H 4.825191 -3.133044 2.212231 0
M  V30 44 H 5.442744 -4.298820 1.006493 0
M  V30 45 H 7.380017 -5.048080 0.999262 0
M  V30 46 H 8.730484 -4.341847 1.936937 0
M  V30 47 H 8.640227 -2.257780 0.980227 0
M  V30 48 H 8.174468 -3.248914 -0.396897 0
M  V30 49 H 7.014525 -0.516476 -0.432019 0
M  V30 50 H 5.269699 -0.911416 -0.071739 0
M  V30 51 H 6.882716 -2.794284 -1.785224 0
M  V30 52 H 5.155516 -2.786416 -1.475264 0
M  V30 53 H 6.735493 -0.878571 -3.279884 0
M  V30 54 H 5.672489 -2.198645 -3.731785 0
M  V30 55 H 3.692497 -0.951939 -2.919785 0
M  V30 56 H 4.624219 -0.166199 -4.230682 0
M  V30 57 H 5.076796 0.755351 -1.329650 0
M  V30 58 H 5.645969 1.431451 -2.857116 0
M  V30 59 H 1.974812 3.608710 -2.982946 0
M  V30 60 H -0.396983 3.629361 -2.424789 0
M  V30 61 H -3.644188 1.989850 2.428005 0
M  V30 62 H -5.252575 0.376525 3.496881 0
M  V30 63 H -7.645392 -0.228240 3.847634 0
M  V30 64 H -10.910026 -0.119292 0.043737 0
M  V30 65 H -11.839688 -2.358344 -0.568436 0
M  V30 66 H -10.491203 -3.950559 3.184059 0
M  V30 67 H -9.614791 -1.780272 3.723424 0
M  V30 68 H -8.708488 1.804395 0.304385 0
M  V30 69 H -6.318701 2.431399 -0.081855 0
M  V30 70 H -0.007422 -0.235194 -0.679453 0
M  V30 71 H 2.327897 -0.248567 -1.209375 0
M  V30 72 H 5.660821 -0.963203 2.110667 0
M  V30 73 H 7.465116 -0.801927 1.874282 0
M  V30 74 H 6.203633 -2.324062 3.875651 0
M  V30 75 H 7.964254 -2.353050 3.424549 0
M  V30 END ATOM
M  V30 BEGIN BOND
M  V30 1 1 1 2
M  V30 2 1 2 3
M  V30 3 1 3 4
M  V30 4 1 4 5
M  V30 5 1 5 6
M  V30 6 1 6 7
M  V30 7 1 7 8
M  V30 8 1 8 9
M  V30 9 1 9 10
M  V30 10 1 10 11
M  V30 11 1 11 12
M  V30 12 2 12 13
M  V30 13 1 13 14
M  V30 14 2 14 15
M  V30 15 1 15 16
M  V30 16 1 16 17
M  V30 17 2 17 18
M  V30 18 1 17 19
M  V30 19 1 19 20
M  V30 20 2 20 21
M  V30 21 1 21 22
M  V30 22 2 22 23
M  V30 23 1 23 24
M  V30 24 2 24 25
M  V30 25 1 25 26
M  V30 26 1 26 27
M  V30 27 2 27 28
M  V30 28 1 28 29
M  V30 29 2 29 30
M  V30 30 1 30 31
M  V30 31 1 30 32
M  V30 32 2 32 33
M  V30 33 1 25 34
M  V30 34 2 34 35
M  V30 35 1 20 36
M  V30 36 2 36 37
M  V30 37 1 15 38
M  V30 38 2 38 39
M  V30 39 1 5 40
M  V30 40 1 40 41
M  V30 41 1 41 2
M  V30 42 1 39 12
M  V30 43 1 36 16
M  V30 44 1 35 22
M  V30 45 1 33 27
M  V30 46 1 1 42
M  V30 47 1 1 43
M  V30 48 1 1 44
M  V30 49 1 3 45
M  V30 50 1 3 46
M  V30 51 1 4 47
M  V30 52 1 4 48
M  V30 53 1 6 49
M  V30 54 1 6 50
M  V30 55 1 7 51
M  V30 56 1 7 52
M  V30 57 1 8 53
M  V30 58 1 8 54
M  V30 59 1 9 55
M  V30 60 1 9 56
M  V30 61 1 10 57
M  V30 62 1 10 58
M  V30 63 1 13 59
M  V30 64 1 14 60
M  V30 65 1 21 61
M  V30 66 1 23 62
M  V30 67 1 24 63
M  V30 68 1 28 64
M  V30 69 1 29 65
M  V30 70 1 32 66
M  V30 71 1 33 67
M  V30 72 1 34 68
M  V30 73 1 35 69
M  V30 74 1 38 70
M  V30 75 1 39 71
M  V30 76 1 40 72
M  V30 77 1 40 73
M  V30 78 1 41 74
M  V30 79 1 41 75
M  V30 END BOND
M  V30 END CTAB
M  END
>  <Dataset>  (816) 
ChEMBL_Kinases

>  <Ligand_Instance>  (816) 
nan

>  <PDB_ID>  (816) 
nan

>  <Standardized_SMILES>  (816) 
CN1CCN(CCCCCOc2ccc(N3C(=O)S/C(=C\c4ccc(Oc5ccc(Cl)cc5)cc4)C3=O)cc2)CC1

>  <Name>  (816) 
nan

>  <Pocket>  (816) 
nan

>  <ATP_Site>  (816) 
nan

>  <Peripheral>  (816) 
nan

>  <Num_H_Atoms_ProtBoundConf>  (816) 
nan

>  <Num_Resolved_Atoms>  (816) 
nan

>  <Num_Not_Resolved_Atoms>  (816) 
nan

$$$$
CHEMBL4764691
     RDKit          3D

  0  0  0  0  0  0  0  0  0  0999 V3000
M  V30 BEGIN CTAB
M  V30 COUNTS 59 65 0 0 0
M  V30 BEGIN ATOM
M  V30 1 C 0.627970 -4.994674 3.480156 0
M  V30 2 C 1.567098 -5.247720 2.310772 0
M  V30 3 N 1.849214 -4.037940 1.626464 0
M  V30 4 C 2.408652 -2.998480 2.457712 0
M  V30 5 C 2.688642 -1.772743 1.625591 0
M  V30 6 C 1.954934 -1.788722 0.281474 0
M  V30 7 C 2.059598 -0.456235 -0.268987 0
M  V30 8 C 1.022436 0.487947 -0.217921 0
M  V30 9 C 1.192651 1.737697 -0.781371 0
M  V30 10 C 2.349208 2.101410 -1.398676 0
M  V30 11 C 2.133391 3.404868 -1.829593 0
M  V30 12 N 0.878060 3.760502 -1.458401 0
M  V30 13 N 0.298319 2.747333 -0.818178 0
M  V30 14 C -1.034439 2.889682 -0.330944 0
M  V30 15 C -1.383565 3.418423 0.914447 0
M  V30 16 N -2.718336 3.373687 0.974725 0
M  V30 17 N -3.242190 2.853611 -0.144630 0
M  V30 18 C -4.554438 2.683861 -0.367538 0
M  V30 19 C -5.427422 3.352628 -1.371413 0
M  V30 20 C -6.348880 2.457095 -0.627332 0
M  V30 21 C -5.649235 2.882760 0.621721 0
M  V30 22 C -5.256272 1.422996 -0.730461 0
M  V30 23 C -2.226958 2.546102 -0.967906 0
M  V30 24 C 3.387620 1.189936 -1.463169 0
M  V30 25 C 3.226185 -0.076349 -0.896291 0
M  V30 26 Cl 4.633734 -1.070631 -1.060863 0
M  V30 27 C 2.338451 -2.989841 -0.420622 0
M  V30 28 C 2.747169 -4.153053 0.489381 0
M  V30 29 C 1.039763 -6.387755 1.494283 0
M  V30 30 O 1.703042 -7.249867 2.396566 0
M  V30 31 C 2.646714 -6.217311 2.596796 0
M  V30 32 H -0.203257 -4.370506 3.094617 0
M  V30 33 H 0.146343 -5.921870 3.857231 0
M  V30 34 H 1.100301 -4.410901 4.295747 0
M  V30 35 H 3.331060 -3.298281 2.961492 0
M  V30 36 H 1.700027 -2.693927 3.264491 0
M  V30 37 H 3.770490 -1.684946 1.494546 0
M  V30 38 H 2.338072 -0.838539 2.149747 0
M  V30 39 H 0.871173 -1.898613 0.616248 0
M  V30 40 H 0.093818 0.198787 0.276867 0
M  V30 41 H 2.878734 3.980598 -2.363206 0
M  V30 42 H -0.730127 3.792083 1.691987 0
M  V30 43 H -5.164316 3.037216 -2.403605 0
M  V30 44 H -5.550309 4.425920 -1.197571 0
M  V30 45 H -7.341169 2.319813 -0.785780 0
M  V30 46 H -5.719655 2.126372 1.440113 0
M  V30 47 H -5.894567 3.907229 0.909667 0
M  V30 48 H -5.093683 1.074353 -1.767637 0
M  V30 49 H -5.370938 0.646925 0.024327 0
M  V30 50 H -2.282264 2.102486 -1.967404 0
M  V30 51 H 4.269252 1.550323 -1.964932 0
M  V30 52 H 2.971567 -2.937548 -1.319737 0
M  V30 53 H 1.385723 -3.395867 -0.895443 0
M  V30 54 H 2.630533 -5.063895 -0.101811 0
M  V30 55 H 3.770796 -4.009593 0.888394 0
M  V30 56 H 1.465177 -6.569287 0.502935 0
M  V30 57 H -0.068016 -6.448866 1.562091 0
M  V30 58 H 3.516685 -6.244836 1.948765 0
M  V30 59 H 2.936302 -6.258783 3.681612 0
M  V30 END ATOM
M  V30 BEGIN BOND
M  V30 1 1 1 2
M  V30 2 1 2 3
M  V30 3 1 3 4
M  V30 4 1 4 5
M  V30 5 1 5 6
M  V30 6 1 6 7
M  V30 7 2 7 8
M  V30 8 1 8 9
M  V30 9 2 9 10
M  V30 10 1 10 11
M  V30 11 2 11 12
M  V30 12 1 12 13
M  V30 13 1 13 14
M  V30 14 1 14 15
M  V30 15 2 15 16
M  V30 16 1 16 17
M  V30 17 1 17 18
M  V30 18 1 18 19
M  V30 19 1 19 20
M  V30 20 1 20 21
M  V30 21 1 20 22
M  V30 22 1 17 23
M  V30 23 1 10 24
M  V30 24 2 24 25
M  V30 25 1 25 26
M  V30 26 1 6 27
M  V30 27 1 27 28
M  V30 28 1 2 29
M  V30 29 1 29 30
M  V30 30 1 30 31
M  V30 31 1 31 2
M  V30 32 1 28 3
M  V30 33 1 25 7
M  V30 34 1 13 9
M  V30 35 2 23 14
M  V30 36 1 21 18
M  V30 37 1 22 18
M  V30 38 1 1 32
M  V30 39 1 1 33
M  V30 40 1 1 34
M  V30 41 1 4 35
M  V30 42 1 4 36
M  V30 43 1 5 37
M  V30 44 1 5 38
M  V30 45 1 6 39
M  V30 46 1 8 40
M  V30 47 1 11 41
M  V30 48 1 15 42
M  V30 49 1 19 43
M  V30 50 1 19 44
M  V30 51 1 20 45
M  V30 52 1 21 46
M  V30 53 1 21 47
M  V30 54 1 22 48
M  V30 55 1 22 49
M  V30 56 1 23 50
M  V30 57 1 24 51
M  V30 58 1 27 52
M  V30 59 1 27 53
M  V30 60 1 28 54
M  V30 61 1 28 55
M  V30 62 1 29 56
M  V30 63 1 29 57
M  V30 64 1 31 58
M  V30 65 1 31 59
M  V30 END BOND
M  V30 END CTAB
M  END
>  <Dataset>  (817) 
ChEMBL_Kinases

>  <Ligand_Instance>  (817) 
nan

>  <PDB_ID>  (817) 
nan

>  <Standardized_SMILES>  (817) 
CC1(N2CCC(c3cc4c(cnn4-c4cnn(C56CC(C5)C6)c4)cc3Cl)CC2)COC1

>  <Name>  (817) 
nan

>  <Pocket>  (817) 
nan

>  <ATP_Site>  (817) 
nan

>  <Peripheral>  (817) 
nan

>  <Num_H_Atoms_ProtBoundConf>  (817) 
nan

>  <Num_Resolved_Atoms>  (817) 
nan

>  <Num_Not_Resolved_Atoms>  (817) 
nan

$$$$
CHEMBL4240949
     RDKit          3D

  0  0  0  0  0  0  0  0  0  0999 V3000
M  V30 BEGIN CTAB
M  V30 COUNTS 55 58 0 0 0
M  V30 BEGIN ATOM
M  V30 1 O -0.237719 -2.292827 -0.482047 0
M  V30 2 C -0.301431 -1.434979 -1.427091 0
M  V30 3 C 0.856276 -0.550266 -1.783175 0
M  V30 4 C 1.968553 -0.892242 -0.860151 0
M  V30 5 C 2.947449 -1.832312 -1.094050 0
M  V30 6 C 3.936663 -2.073969 -0.167711 0
M  V30 7 C 3.929062 -1.342245 1.022795 0
M  V30 8 C 2.946614 -0.373283 1.299234 0
M  V30 9 O 3.224072 0.143496 2.519929 0
M  V30 10 C 2.616573 1.112365 3.281519 0
M  V30 11 C 2.561186 2.494662 2.687849 0
M  V30 12 N 1.897355 3.392906 3.614544 0
M  V30 13 C 1.821451 4.749243 3.115166 0
M  V30 14 C 0.696895 4.936479 2.137134 0
M  V30 15 N -0.583414 4.615734 2.685882 0
M  V30 16 C -0.448137 3.982982 3.975211 0
M  V30 17 C 0.582938 2.863548 3.930204 0
M  V30 18 C 1.994351 -0.192481 0.323116 0
M  V30 19 N -1.520727 -1.323684 -2.161724 0
M  V30 20 C -2.511212 -2.294294 -1.627003 0
M  V30 21 N -2.683167 -3.430370 -1.984082 0
M  V30 22 C -3.574224 -4.257151 -1.482743 0
M  V30 23 C -3.717838 -5.621389 -1.972909 0
M  V30 24 C -4.642023 -6.511156 -1.468741 0
M  V30 25 C -4.827137 -7.803246 -1.882907 0
M  V30 26 N -4.056800 -8.274667 -2.864406 0
M  V30 27 C -3.134754 -7.484795 -3.412794 0
M  V30 28 C -2.959243 -6.176032 -2.981281 0
M  V30 29 C -4.376933 -3.764197 -0.455774 0
M  V30 30 S -3.703512 -1.999189 -0.304771 0
M  V30 31 H 0.565815 0.513943 -1.667514 0
M  V30 32 H 1.144723 -0.784330 -2.845942 0
M  V30 33 H 2.891879 -2.362193 -2.036228 0
M  V30 34 H 4.643069 -2.827422 -0.458317 0
M  V30 35 H 4.787363 -1.669368 1.634014 0
M  V30 36 H 3.109512 1.185624 4.293754 0
M  V30 37 H 1.573099 0.735953 3.516063 0
M  V30 38 H 1.935776 2.460780 1.779679 0
M  V30 39 H 3.578068 2.823395 2.436526 0
M  V30 40 H 2.776645 4.988962 2.593937 0
M  V30 41 H 1.709166 5.442942 3.972828 0
M  V30 42 H 0.691615 5.974130 1.745326 0
M  V30 43 H 0.857442 4.287339 1.234176 0
M  V30 44 H -1.162187 5.470957 2.809874 0
M  V30 45 H -0.131247 4.768242 4.723401 0
M  V30 46 H -1.439019 3.602056 4.282996 0
M  V30 47 H 0.532221 2.278872 4.845730 0
M  V30 48 H 0.279964 2.233531 3.068406 0
M  V30 49 H 1.286201 0.548987 0.608733 0
M  V30 50 H -1.610252 -0.624887 -2.953309 0
M  V30 51 H -5.309789 -6.185204 -0.655927 0
M  V30 52 H -5.585342 -8.436934 -1.424418 0
M  V30 53 H -2.512409 -7.884355 -4.214187 0
M  V30 54 H -2.188446 -5.545428 -3.453416 0
M  V30 55 H -5.179953 -4.303167 0.091838 0
M  V30 END ATOM
M  V30 BEGIN BOND
M  V30 1 2 1 2
M  V30 2 1 2 3
M  V30 3 1 3 4
M  V30 4 2 4 5
M  V30 5 1 5 6
M  V30 6 2 6 7
M  V30 7 1 7 8
M  V30 8 1 8 9
M  V30 9 1 9 10
M  V30 10 1 10 11
M  V30 11 1 11 12
M  V30 12 1 12 13
M  V30 13 1 13 14
M  V30 14 1 14 15
M  V30 15 1 15 16
M  V30 16 1 16 17
M  V30 17 2 8 18
M  V30 18 1 2 19
M  V30 19 1 19 20
M  V30 20 2 20 21
M  V30 21 1 21 22
M  V30 22 1 22 23
M  V30 23 2 23 24
M  V30 24 1 24 25
M  V30 25 2 25 26
M  V30 26 1 26 27
M  V30 27 2 27 28
M  V30 28 2 22 29
M  V30 29 1 29 30
M  V30 30 1 18 4
M  V30 31 1 30 20
M  V30 32 1 17 12
M  V30 33 1 28 23
M  V30 34 1 3 31
M  V30 35 1 3 32
M  V30 36 1 5 33
M  V30 37 1 6 34
M  V30 38 1 7 35
M  V30 39 1 10 36
M  V30 40 1 10 37
M  V30 41 1 11 38
M  V30 42 1 11 39
M  V30 43 1 13 40
M  V30 44 1 13 41
M  V30 45 1 14 42
M  V30 46 1 14 43
M  V30 47 1 15 44
M  V30 48 1 16 45
M  V30 49 1 16 46
M  V30 50 1 17 47
M  V30 51 1 17 48
M  V30 52 1 18 49
M  V30 53 1 19 50
M  V30 54 1 24 51
M  V30 55 1 25 52
M  V30 56 1 27 53
M  V30 57 1 28 54
M  V30 58 1 29 55
M  V30 END BOND
M  V30 END CTAB
M  END
>  <Dataset>  (818) 
ChEMBL_Kinases

>  <Ligand_Instance>  (818) 
nan

>  <PDB_ID>  (818) 
nan

>  <Standardized_SMILES>  (818) 
O=C(Cc1cccc(OCCN2CCNCC2)c1)Nc1nc(-c2ccncc2)cs1

>  <Name>  (818) 
nan

>  <Pocket>  (818) 
nan

>  <ATP_Site>  (818) 
nan

>  <Peripheral>  (818) 
nan

>  <Num_H_Atoms_ProtBoundConf>  (818) 
nan

>  <Num_Resolved_Atoms>  (818) 
nan

>  <Num_Not_Resolved_Atoms>  (818) 
nan

$$$$
CHEMBL4764705
     RDKit          3D

  0  0  0  0  0  0  0  0  0  0999 V3000
M  V30 BEGIN CTAB
M  V30 COUNTS 49 52 0 0 0
M  V30 BEGIN ATOM
M  V30 1 C 4.043035 -3.210752 3.560313 0
M  V30 2 C 5.166471 -2.207502 3.310875 0
M  V30 3 C 4.609296 -1.095829 2.506812 0
M  V30 4 O 3.397153 -1.346244 2.301572 0
M  V30 5 N 5.231310 0.068464 2.012101 0
M  V30 6 C 4.639504 1.096401 1.246083 0
M  V30 7 C 5.464691 2.135436 0.884215 0
M  V30 8 C 4.999892 3.193765 0.137906 0
M  V30 9 C 3.673258 3.243885 -0.275234 0
M  V30 10 C 2.824257 2.214451 0.074016 0
M  V30 11 C 1.401177 2.238496 -0.355606 0
M  V30 12 S 0.835027 3.574537 -1.301188 0
M  V30 13 N -0.915630 2.920941 -1.432332 0
M  V30 14 C -0.792121 1.747427 -0.711270 0
M  V30 15 C -1.916105 0.960551 -0.581863 0
M  V30 16 C -1.843854 -0.219024 0.127058 0
M  V30 17 C -2.936462 -1.179438 0.367098 0
M  V30 18 C -3.050883 -1.970531 1.500965 0
M  V30 19 C -4.061027 -2.848048 1.705389 0
M  V30 20 C -5.039812 -2.989207 0.765111 0
M  V30 21 N -6.116195 -3.903340 0.950072 0
M  V30 22 C -5.005878 -2.241906 -0.394074 0
M  V30 23 O -5.889697 -2.311008 -1.335102 0
M  V30 24 C -6.770727 -2.377586 -2.276859 0
M  V30 25 C -3.948014 -1.342805 -0.576657 0
M  V30 26 C -0.639390 -0.585525 0.693763 0
M  V30 27 N 0.410630 0.229436 0.526295 0
M  V30 28 C 0.409248 1.384276 -0.147424 0
M  V30 29 C 3.346384 1.183609 0.821275 0
M  V30 30 H 4.458261 -4.189097 3.843921 0
M  V30 31 H 3.451351 -3.373917 2.620402 0
M  V30 32 H 3.330409 -2.879259 4.321263 0
M  V30 33 H 5.464166 -1.812972 4.320413 0
M  V30 34 H 5.981377 -2.738937 2.824807 0
M  V30 35 H 6.215335 0.085794 2.286125 0
M  V30 36 H 6.524145 2.149453 1.182448 0
M  V30 37 H 5.683394 3.978274 -0.117600 0
M  V30 38 H 3.360588 4.096319 -0.858232 0
M  V30 39 H -2.894923 1.131123 -0.968210 0
M  V30 40 H -2.273002 -1.852716 2.240091 0
M  V30 41 H -4.105885 -3.447628 2.614670 0
M  V30 42 H -6.707090 -4.071899 1.816864 0
M  V30 43 H -6.410054 -4.522175 0.153079 0
M  V30 44 H -6.437449 -1.946792 -3.288294 0
M  V30 45 H -7.117095 -3.429231 -2.584849 0
M  V30 46 H -7.762277 -1.842812 -2.134794 0
M  V30 47 H -3.847767 -0.717086 -1.462794 0
M  V30 48 H -0.519894 -1.494530 1.258099 0
M  V30 49 H 2.673770 0.407707 1.074878 0
M  V30 END ATOM
M  V30 BEGIN BOND
M  V30 1 1 1 2
M  V30 2 1 2 3
M  V30 3 2 3 4
M  V30 4 1 3 5
M  V30 5 1 5 6
M  V30 6 2 6 7
M  V30 7 1 7 8
M  V30 8 2 8 9
M  V30 9 1 9 10
M  V30 10 1 10 11
M  V30 11 1 11 12
M  V30 12 1 12 13
M  V30 13 2 13 14
M  V30 14 1 14 15
M  V30 15 2 15 16
M  V30 16 1 16 17
M  V30 17 2 17 18
M  V30 18 1 18 19
M  V30 19 2 19 20
M  V30 20 1 20 21
M  V30 21 1 20 22
M  V30 22 1 22 23
M  V30 23 1 23 24
M  V30 24 2 22 25
M  V30 25 1 16 26
M  V30 26 2 26 27
M  V30 27 1 27 28
M  V30 28 2 10 29
M  V30 29 1 29 6
M  V30 30 2 28 11
M  V30 31 1 28 14
M  V30 32 1 25 17
M  V30 33 1 1 30
M  V30 34 1 1 31
M  V30 35 1 1 32
M  V30 36 1 2 33
M  V30 37 1 2 34
M  V30 38 1 5 35
M  V30 39 1 7 36
M  V30 40 1 8 37
M  V30 41 1 9 38
M  V30 42 1 15 39
M  V30 43 1 18 40
M  V30 44 1 19 41
M  V30 45 1 21 42
M  V30 46 1 21 43
M  V30 47 1 24 44
M  V30 48 1 24 45
M  V30 49 1 24 46
M  V30 50 1 25 47
M  V30 51 1 26 48
M  V30 52 1 29 49
M  V30 END BOND
M  V30 END CTAB
M  END
>  <Dataset>  (819) 
ChEMBL_Kinases

>  <Ligand_Instance>  (819) 
nan

>  <PDB_ID>  (819) 
nan

>  <Standardized_SMILES>  (819) 
CCC(=O)Nc1cccc(-c2snc3cc(-c4ccc(N)c(OC)c4)cnc23)c1

>  <Name>  (819) 
nan

>  <Pocket>  (819) 
nan

>  <ATP_Site>  (819) 
nan

>  <Peripheral>  (819) 
nan

>  <Num_H_Atoms_ProtBoundConf>  (819) 
nan

>  <Num_Resolved_Atoms>  (819) 
nan

>  <Num_Not_Resolved_Atoms>  (819) 
nan

$$$$
CHEMBL4240883
     RDKit          3D

  0  0  0  0  0  0  0  0  0  0999 V3000
M  V30 BEGIN CTAB
M  V30 COUNTS 38 41 0 0 0
M  V30 BEGIN ATOM
M  V30 1 O 0.557889 -1.571042 0.306593 0
M  V30 2 C 0.435702 -2.203796 -0.773143 0
M  V30 3 C 0.987232 -3.575107 -0.913687 0
M  V30 4 C 1.647883 -4.057779 0.293738 0
M  V30 5 C 0.908375 -4.748595 1.254527 0
M  V30 6 C 1.495672 -5.224732 2.416264 0
M  V30 7 C 2.844137 -4.993030 2.595102 0
M  V30 8 C 3.598950 -4.312614 1.660818 0
M  V30 9 C 2.998073 -3.848774 0.515995 0
M  V30 10 N -0.236512 -1.589217 -1.855332 0
M  V30 11 C -0.783650 -0.204652 -1.687197 0
M  V30 12 N -0.832178 0.607688 -0.854274 0
M  V30 13 C -1.414090 1.802888 -1.004496 0
M  V30 14 C -1.443586 2.785180 0.081342 0
M  V30 15 C -2.006673 4.048596 0.062979 0
M  V30 16 N -1.863916 4.705603 1.227018 0
M  V30 17 C -1.195860 3.892433 2.062329 0
M  V30 18 N -0.792082 4.050124 3.337306 0
M  V30 19 C -0.119061 3.038844 3.950970 0
M  V30 20 C 0.177650 1.836504 3.324077 0
M  V30 21 C -0.255585 1.722871 2.021994 0
M  V30 22 C -0.941637 2.729258 1.367423 0
M  V30 23 C -1.997783 2.083064 -2.245024 0
M  V30 24 S -1.617049 0.456838 -3.148267 0
M  V30 25 H 1.673404 -3.676931 -1.784017 0
M  V30 26 H 0.120500 -4.248549 -1.126890 0
M  V30 27 H -0.143917 -4.900083 1.059900 0
M  V30 28 H 0.894739 -5.756356 3.141145 0
M  V30 29 H 3.303257 -5.363206 3.499454 0
M  V30 30 H 4.656063 -4.132107 1.803147 0
M  V30 31 H 3.521234 -3.309908 -0.257909 0
M  V30 32 H -0.315381 -2.134113 -2.714156 0
M  V30 33 H -2.518816 4.482292 -0.802426 0
M  V30 34 H -2.187818 5.650219 1.474918 0
M  V30 35 H 0.169609 3.243204 4.971170 0
M  V30 36 H 0.708743 1.070523 3.846333 0
M  V30 37 H -0.047351 0.810363 1.500545 0
M  V30 38 H -2.511448 3.012965 -2.526086 0
M  V30 END ATOM
M  V30 BEGIN BOND
M  V30 1 2 1 2
M  V30 2 1 2 3
M  V30 3 1 3 4
M  V30 4 2 4 5
M  V30 5 1 5 6
M  V30 6 2 6 7
M  V30 7 1 7 8
M  V30 8 2 8 9
M  V30 9 1 2 10
M  V30 10 1 10 11
M  V30 11 2 11 12
M  V30 12 1 12 13
M  V30 13 1 13 14
M  V30 14 2 14 15
M  V30 15 1 15 16
M  V30 16 1 16 17
M  V30 17 2 17 18
M  V30 18 1 18 19
M  V30 19 2 19 20
M  V30 20 1 20 21
M  V30 21 2 21 22
M  V30 22 2 13 23
M  V30 23 1 23 24
M  V30 24 1 9 4
M  V30 25 1 24 11
M  V30 26 1 22 14
M  V30 27 1 22 17
M  V30 28 1 3 25
M  V30 29 1 3 26
M  V30 30 1 5 27
M  V30 31 1 6 28
M  V30 32 1 7 29
M  V30 33 1 8 30
M  V30 34 1 9 31
M  V30 35 1 10 32
M  V30 36 1 15 33
M  V30 37 1 16 34
M  V30 38 1 19 35
M  V30 39 1 20 36
M  V30 40 1 21 37
M  V30 41 1 23 38
M  V30 END BOND
M  V30 END CTAB
M  END
>  <Dataset>  (820) 
ChEMBL_Kinases

>  <Ligand_Instance>  (820) 
nan

>  <PDB_ID>  (820) 
nan

>  <Standardized_SMILES>  (820) 
O=C(Cc1ccccc1)Nc1nc(-c2c[nH]c3ncccc23)cs1

>  <Name>  (820) 
nan

>  <Pocket>  (820) 
nan

>  <ATP_Site>  (820) 
nan

>  <Peripheral>  (820) 
nan

>  <Num_H_Atoms_ProtBoundConf>  (820) 
nan

>  <Num_Resolved_Atoms>  (820) 
nan

>  <Num_Not_Resolved_Atoms>  (820) 
nan

$$$$
CHEMBL4240779
     RDKit          3D

  0  0  0  0  0  0  0  0  0  0999 V3000
M  V30 BEGIN CTAB
M  V30 COUNTS 60 64 0 0 0
M  V30 BEGIN ATOM
M  V30 1 C 0.873443 -1.852200 5.155046 0
M  V30 2 N 0.332715 -2.077615 3.840894 0
M  V30 3 C 0.851372 -2.921907 2.938583 0
M  V30 4 C 0.150228 -2.957438 1.751768 0
M  V30 5 C 0.465182 -3.802155 0.597549 0
M  V30 6 C 0.583414 -3.597285 -0.699907 0
M  V30 7 C 0.431857 -2.371035 -1.459475 0
M  V30 8 C 1.040348 -1.208430 -0.967741 0
M  V30 9 N 0.818379 -0.138378 -1.790662 0
M  V30 10 C 1.314210 1.200335 -1.596274 0
M  V30 11 C 0.413187 2.107620 -0.831271 0
M  V30 12 C 0.101013 1.623895 0.563458 0
M  V30 13 C -0.812323 2.561280 1.306904 0
M  V30 14 C -0.213688 3.937319 1.471251 0
M  V30 15 C 1.064146 3.845009 2.237374 0
M  V30 16 O 2.194518 3.444243 1.900789 0
M  V30 17 O 1.260441 4.216120 3.579273 0
M  V30 18 C 0.058617 -0.631276 -2.813614 0
M  V30 19 C -0.462006 -0.009441 -3.927354 0
M  V30 20 C -1.207095 -0.788464 -4.802678 0
M  V30 21 C -1.429118 -2.125265 -4.587760 0
M  V30 22 C -0.912976 -2.771539 -3.471366 0
M  V30 23 C -0.179417 -1.974497 -2.622934 0
M  V30 24 C 0.928578 -4.890584 -1.330181 0
M  V30 25 O 1.141974 -5.193268 -2.541130 0
M  V30 26 N 1.018233 -5.920089 -0.338312 0
M  V30 27 O 1.309244 -7.229967 -0.497695 0
M  V30 28 C 0.725904 -5.231062 0.874514 0
M  V30 29 O 0.720659 -5.870350 1.984107 0
M  V30 30 C -0.877660 -2.035194 2.005298 0
M  V30 31 C -1.902933 -1.683680 1.121795 0
M  V30 32 C -2.831229 -0.744931 1.590134 0
M  V30 33 C -2.697190 -0.225131 2.861002 0
M  V30 34 C -1.676316 -0.599416 3.692922 0
M  V30 35 C -0.746328 -1.522754 3.261749 0
M  V30 36 H 1.974067 -1.997404 5.148526 0
M  V30 37 H 0.393452 -2.560168 5.885041 0
M  V30 38 H 0.646081 -0.802415 5.435317 0
M  V30 39 H 1.748689 -3.534449 3.111552 0
M  V30 40 H 1.636169 -1.076180 -0.050316 0
M  V30 41 H 1.555162 1.691635 -2.573045 0
M  V30 42 H 2.311772 1.126804 -1.075083 0
M  V30 43 H 0.890704 3.118054 -0.720646 0
M  V30 44 H -0.548917 2.236010 -1.376379 0
M  V30 45 H 1.033456 1.437200 1.134711 0
M  V30 46 H -0.429249 0.657435 0.481454 0
M  V30 47 H -1.728753 2.687801 0.684971 0
M  V30 48 H -1.025990 2.160499 2.309738 0
M  V30 49 H -0.029672 4.450053 0.505149 0
M  V30 50 H -0.909493 4.551775 2.062974 0
M  V30 51 H 1.570359 3.546117 4.285312 0
M  V30 52 H -0.279325 1.041713 -4.086600 0
M  V30 53 H -1.598271 -0.249690 -5.673435 0
M  V30 54 H -2.018779 -2.670578 -5.309930 0
M  V30 55 H -1.075364 -3.817338 -3.275207 0
M  V30 56 H 0.614844 -7.656570 -1.044782 0
M  V30 57 H -1.995938 -2.097621 0.127218 0
M  V30 58 H -3.643824 -0.454053 0.916643 0
M  V30 59 H -3.424622 0.496256 3.197110 0
M  V30 60 H -1.559267 -0.192319 4.708523 0
M  V30 END ATOM
M  V30 BEGIN BOND
M  V30 1 1 1 2
M  V30 2 1 2 3
M  V30 3 2 3 4
M  V30 4 1 4 5
M  V30 5 2 5 6
M  V30 6 1 6 7
M  V30 7 2 7 8
M  V30 8 1 8 9
M  V30 9 1 9 10
M  V30 10 1 10 11
M  V30 11 1 11 12
M  V30 12 1 12 13
M  V30 13 1 13 14
M  V30 14 1 14 15
M  V30 15 2 15 16
M  V30 16 1 15 17
M  V30 17 1 9 18
M  V30 18 2 18 19
M  V30 19 1 19 20
M  V30 20 2 20 21
M  V30 21 1 21 22
M  V30 22 2 22 23
M  V30 23 1 6 24
M  V30 24 2 24 25
M  V30 25 1 24 26
M  V30 26 1 26 27
M  V30 27 1 26 28
M  V30 28 2 28 29
M  V30 29 1 4 30
M  V30 30 2 30 31
M  V30 31 1 31 32
M  V30 32 2 32 33
M  V30 33 1 33 34
M  V30 34 2 34 35
M  V30 35 1 35 2
M  V30 36 1 28 5
M  V30 37 1 35 30
M  V30 38 1 23 7
M  V30 39 1 23 18
M  V30 40 1 1 36
M  V30 41 1 1 37
M  V30 42 1 1 38
M  V30 43 1 3 39
M  V30 44 1 8 40
M  V30 45 1 10 41
M  V30 46 1 10 42
M  V30 47 1 11 43
M  V30 48 1 11 44
M  V30 49 1 12 45
M  V30 50 1 12 46
M  V30 51 1 13 47
M  V30 52 1 13 48
M  V30 53 1 14 49
M  V30 54 1 14 50
M  V30 55 1 17 51
M  V30 56 1 19 52
M  V30 57 1 20 53
M  V30 58 1 21 54
M  V30 59 1 22 55
M  V30 60 1 27 56
M  V30 61 1 31 57
M  V30 62 1 32 58
M  V30 63 1 33 59
M  V30 64 1 34 60
M  V30 END BOND
M  V30 END CTAB
M  END
>  <Dataset>  (821) 
ChEMBL_Kinases

>  <Ligand_Instance>  (821) 
nan

>  <PDB_ID>  (821) 
nan

>  <Standardized_SMILES>  (821) 
Cn1cc(C2=C(c3cn(CCCCCC(=O)O)c4ccccc34)C(=O)N(O)C2=O)c2ccccc21

>  <Name>  (821) 
nan

>  <Pocket>  (821) 
nan

>  <ATP_Site>  (821) 
nan

>  <Peripheral>  (821) 
nan

>  <Num_H_Atoms_ProtBoundConf>  (821) 
nan

>  <Num_Resolved_Atoms>  (821) 
nan

>  <Num_Not_Resolved_Atoms>  (821) 
nan

$$$$
CHEMBL424069
     RDKit          3D

  0  0  0  0  0  0  0  0  0  0999 V3000
M  V30 BEGIN CTAB
M  V30 COUNTS 54 57 0 0 0
M  V30 BEGIN ATOM
M  V30 1 C 1.488962 1.166036 -6.187591 0
M  V30 2 C 2.813384 0.611050 -5.762392 0
M  V30 3 O 3.582120 0.186393 -6.663313 0
M  V30 4 C 3.174749 0.575416 -4.349939 0
M  V30 5 C 2.337784 1.039805 -3.355984 0
M  V30 6 C 2.669434 1.012172 -2.003834 0
M  V30 7 C 3.905495 0.487696 -1.671134 0
M  V30 8 N 4.310853 0.430697 -0.296206 0
M  V30 9 C 3.364879 0.941762 0.637716 0
M  V30 10 N 3.436845 2.257534 0.931630 0
M  V30 11 C 2.577663 2.836825 1.811410 0
M  V30 12 C 1.635530 2.016181 2.383866 0
M  V30 13 C 1.533371 0.669255 2.107053 0
M  V30 14 C 0.539947 -0.213193 2.707631 0
M  V30 15 C 0.560703 -1.540891 2.334373 0
M  V30 16 C -0.365956 -2.415125 2.880809 0
M  V30 17 C -1.338827 -2.022024 3.805781 0
M  V30 18 S -2.485073 -3.164383 4.468302 0
M  V30 19 O -2.812600 -2.722741 5.865077 0
M  V30 20 O -1.799392 -4.481866 4.554216 0
M  V30 21 N -3.857807 -3.230674 3.462628 0
M  V30 22 C -4.575774 -2.009540 3.329866 0
M  V30 23 C -4.617371 -1.582816 1.861514 0
M  V30 24 N -5.328250 -2.596557 1.110546 0
M  V30 25 C -4.793370 -3.911388 1.296032 0
M  V30 26 C -3.692899 -4.014188 2.290983 0
M  V30 27 C -1.317547 -0.684775 4.146227 0
M  V30 28 C -0.396095 0.210519 3.609814 0
M  V30 29 N 2.412153 0.173263 1.233160 0
M  V30 30 C 4.749071 0.020796 -2.659170 0
M  V30 31 C 4.412177 0.050170 -4.017319 0
M  V30 32 H 1.280141 2.052965 -5.550087 0
M  V30 33 H 0.696481 0.414917 -5.945454 0
M  V30 34 H 1.489756 1.458367 -7.248137 0
M  V30 35 H 1.370547 1.451837 -3.604000 0
M  V30 36 H 1.993717 1.382989 -1.247644 0
M  V30 37 H 5.227267 0.040292 -0.052760 0
M  V30 38 H 2.615702 3.890966 2.063199 0
M  V30 39 H 0.961796 2.463132 3.071939 0
M  V30 40 H 1.256336 -1.983656 1.629918 0
M  V30 41 H -0.402438 -3.477783 2.626900 0
M  V30 42 H -4.023434 -1.205656 3.857837 0
M  V30 43 H -5.603708 -2.022732 3.764819 0
M  V30 44 H -5.160918 -0.635220 1.783148 0
M  V30 45 H -3.576995 -1.511272 1.531258 0
M  V30 46 H -6.355147 -2.511865 1.193250 0
M  V30 47 H -5.625743 -4.645079 1.502202 0
M  V30 48 H -4.383438 -4.232982 0.299266 0
M  V30 49 H -3.570854 -5.095792 2.553317 0
M  V30 50 H -2.739973 -3.677283 1.788199 0
M  V30 51 H -2.038773 -0.309142 4.855439 0
M  V30 52 H -0.431841 1.243715 3.916698 0
M  V30 53 H 5.720881 -0.397016 -2.454459 0
M  V30 54 H 5.067438 -0.312566 -4.787902 0
M  V30 END ATOM
M  V30 BEGIN BOND
M  V30 1 1 1 2
M  V30 2 2 2 3
M  V30 3 1 2 4
M  V30 4 2 4 5
M  V30 5 1 5 6
M  V30 6 2 6 7
M  V30 7 1 7 8
M  V30 8 1 8 9
M  V30 9 2 9 10
M  V30 10 1 10 11
M  V30 11 2 11 12
M  V30 12 1 12 13
M  V30 13 1 13 14
M  V30 14 2 14 15
M  V30 15 1 15 16
M  V30 16 2 16 17
M  V30 17 1 17 18
M  V30 18 2 18 19
M  V30 19 2 18 20
M  V30 20 1 18 21
M  V30 21 1 21 22
M  V30 22 1 22 23
M  V30 23 1 23 24
M  V30 24 1 24 25
M  V30 25 1 25 26
M  V30 26 1 17 27
M  V30 27 2 27 28
M  V30 28 2 13 29
M  V30 29 1 7 30
M  V30 30 2 30 31
M  V30 31 1 31 4
M  V30 32 1 29 9
M  V30 33 1 28 14
M  V30 34 1 26 21
M  V30 35 1 1 32
M  V30 36 1 1 33
M  V30 37 1 1 34
M  V30 38 1 5 35
M  V30 39 1 6 36
M  V30 40 1 8 37
M  V30 41 1 11 38
M  V30 42 1 12 39
M  V30 43 1 15 40
M  V30 44 1 16 41
M  V30 45 1 22 42
M  V30 46 1 22 43
M  V30 47 1 23 44
M  V30 48 1 23 45
M  V30 49 1 24 46
M  V30 50 1 25 47
M  V30 51 1 25 48
M  V30 52 1 26 49
M  V30 53 1 26 50
M  V30 54 1 27 51
M  V30 55 1 28 52
M  V30 56 1 30 53
M  V30 57 1 31 54
M  V30 END BOND
M  V30 END CTAB
M  END
>  <Dataset>  (822) 
ChEMBL_Kinases

>  <Ligand_Instance>  (822) 
nan

>  <PDB_ID>  (822) 
nan

>  <Standardized_SMILES>  (822) 
CC(=O)c1ccc(Nc2nccc(-c3ccc(S(=O)(=O)N4CCNCC4)cc3)n2)cc1

>  <Name>  (822) 
nan

>  <Pocket>  (822) 
nan

>  <ATP_Site>  (822) 
nan

>  <Peripheral>  (822) 
nan

>  <Num_H_Atoms_ProtBoundConf>  (822) 
nan

>  <Num_Resolved_Atoms>  (822) 
nan

>  <Num_Not_Resolved_Atoms>  (822) 
nan

$$$$
CHEMBL4240605
     RDKit          3D

  0  0  0  0  0  0  0  0  0  0999 V3000
M  V30 BEGIN CTAB
M  V30 COUNTS 52 55 0 0 0
M  V30 BEGIN ATOM
M  V30 1 C 2.399782 -0.590387 5.297984 0
M  V30 2 C 0.934309 -0.655544 4.891052 0
M  V30 3 C 0.409024 0.721315 4.537748 0
M  V30 4 N -0.962599 0.717534 4.148763 0
M  V30 5 S -1.611184 2.244703 3.738105 0
M  V30 6 O -1.554529 3.225659 4.867521 0
M  V30 7 O -3.052124 2.048207 3.361247 0
M  V30 8 C -0.794651 2.960824 2.370843 0
M  V30 9 C 0.315539 3.789198 2.451670 0
M  V30 10 C 0.905361 4.317412 1.318726 0
M  V30 11 C 0.392935 4.025463 0.075147 0
M  V30 12 C -0.708381 3.208919 -0.074563 0
M  V30 13 C -1.261306 2.892845 -1.402449 0
M  V30 14 C -0.556033 1.650991 -1.871421 0
M  V30 15 O 0.261309 1.304685 -0.977998 0
M  V30 16 N -0.819468 1.022081 -3.132982 0
M  V30 17 C -0.017877 -0.166987 -3.373531 0
M  V30 18 N -0.061727 -1.325901 -3.196073 0
M  V30 19 C 0.819346 -2.234593 -3.513981 0
M  V30 20 C 0.680420 -3.657404 -3.253610 0
M  V30 21 C 1.527708 -4.705815 -3.536100 0
M  V30 22 N 1.074765 -5.888812 -3.151032 0
M  V30 23 C -0.107008 -5.664175 -2.590871 0
M  V30 24 N -0.995697 -6.520906 -2.031936 0
M  V30 25 C -2.140563 -6.012716 -1.528269 0
M  V30 26 C -2.486115 -4.675918 -1.535114 0
M  V30 27 C -1.563033 -3.811246 -2.112294 0
M  V30 28 C -0.367696 -4.311315 -2.642259 0
M  V30 29 C 1.990132 -1.688469 -4.171804 0
M  V30 30 S 1.561340 0.157247 -4.205468 0
M  V30 31 C -1.260771 2.706538 1.089080 0
M  V30 32 H 2.678432 0.324701 5.818609 0
M  V30 33 H 2.642711 -1.432211 6.009490 0
M  V30 34 H 3.030690 -0.791445 4.394827 0
M  V30 35 H 0.373853 -0.979589 5.790924 0
M  V30 36 H 0.875969 -1.354512 4.051118 0
M  V30 37 H 0.617337 1.463068 5.315446 0
M  V30 38 H 1.014268 1.038848 3.644221 0
M  V30 39 H -1.599030 0.110964 4.669508 0
M  V30 40 H 0.692931 3.998316 3.446188 0
M  V30 41 H 1.780587 4.963236 1.478927 0
M  V30 42 H 0.862398 4.444625 -0.809791 0
M  V30 43 H -2.338156 2.614926 -1.250685 0
M  V30 44 H -1.179364 3.712374 -2.132777 0
M  V30 45 H -1.538028 1.458019 -3.745602 0
M  V30 46 H 2.499917 -4.572243 -4.039684 0
M  V30 47 H 1.514981 -6.820823 -3.245812 0
M  V30 48 H -2.793345 -6.784142 -1.098605 0
M  V30 49 H -3.424084 -4.346519 -1.110803 0
M  V30 50 H -1.783842 -2.741456 -2.145619 0
M  V30 51 H 2.906045 -2.465796 -4.524733 0
M  V30 52 H -2.121061 2.067154 0.992791 0
M  V30 END ATOM
M  V30 BEGIN BOND
M  V30 1 1 1 2
M  V30 2 1 2 3
M  V30 3 1 3 4
M  V30 4 1 4 5
M  V30 5 2 5 6
M  V30 6 2 5 7
M  V30 7 1 5 8
M  V30 8 2 8 9
M  V30 9 1 9 10
M  V30 10 2 10 11
M  V30 11 1 11 12
M  V30 12 1 12 13
M  V30 13 1 13 14
M  V30 14 2 14 15
M  V30 15 1 14 16
M  V30 16 1 16 17
M  V30 17 2 17 18
M  V30 18 1 18 19
M  V30 19 1 19 20
M  V30 20 2 20 21
M  V30 21 1 21 22
M  V30 22 1 22 23
M  V30 23 2 23 24
M  V30 24 1 24 25
M  V30 25 2 25 26
M  V30 26 1 26 27
M  V30 27 2 27 28
M  V30 28 2 19 29
M  V30 29 1 29 30
M  V30 30 2 12 31
M  V30 31 1 31 8
M  V30 32 1 30 17
M  V30 33 1 28 20
M  V30 34 1 28 23
M  V30 35 1 1 32
M  V30 36 1 1 33
M  V30 37 1 1 34
M  V30 38 1 2 35
M  V30 39 1 2 36
M  V30 40 1 3 37
M  V30 41 1 3 38
M  V30 42 1 4 39
M  V30 43 1 9 40
M  V30 44 1 10 41
M  V30 45 1 11 42
M  V30 46 1 13 43
M  V30 47 1 13 44
M  V30 48 1 16 45
M  V30 49 1 21 46
M  V30 50 1 22 47
M  V30 51 1 25 48
M  V30 52 1 26 49
M  V30 53 1 27 50
M  V30 54 1 29 51
M  V30 55 1 31 52
M  V30 END BOND
M  V30 END CTAB
M  END
>  <Dataset>  (823) 
ChEMBL_Kinases

>  <Ligand_Instance>  (823) 
nan

>  <PDB_ID>  (823) 
nan

>  <Standardized_SMILES>  (823) 
CCCNS(=O)(=O)c1cccc(CC(=O)Nc2nc(-c3c[nH]c4ncccc34)cs2)c1

>  <Name>  (823) 
nan

>  <Pocket>  (823) 
nan

>  <ATP_Site>  (823) 
nan

>  <Peripheral>  (823) 
nan

>  <Num_H_Atoms_ProtBoundConf>  (823) 
nan

>  <Num_Resolved_Atoms>  (823) 
nan

>  <Num_Not_Resolved_Atoms>  (823) 
nan

$$$$
CHEMBL4764942
     RDKit          3D

  0  0  0  0  0  0  0  0  0  0999 V3000
M  V30 BEGIN CTAB
M  V30 COUNTS 44 49 0 0 0
M  V30 BEGIN ATOM
M  V30 1 F 3.661834 -4.691177 -1.463747 0
M  V30 2 C 2.892387 -3.577140 -1.475819 0
M  V30 3 C 1.533565 -3.720683 -1.644656 0
M  V30 4 C 0.739444 -2.598261 -1.659025 0
M  V30 5 C 1.263786 -1.322103 -1.508560 0
M  V30 6 C 2.627882 -1.167901 -1.338363 0
M  V30 7 C 3.255641 0.160197 -1.172178 0
M  V30 8 C 4.394838 0.590419 -1.805295 0
M  V30 9 N 4.840484 1.841012 -1.542013 0
M  V30 10 C 4.176755 2.651826 -0.672013 0
M  V30 11 C 3.032700 2.238394 -0.027400 0
M  V30 12 N 2.255436 2.909263 0.859863 0
M  V30 13 C 1.279498 2.034962 1.163483 0
M  V30 14 C 0.186041 2.307567 2.094833 0
M  V30 15 N -0.018400 3.446668 2.782677 0
M  V30 16 N -1.111162 3.330391 3.529902 0
M  V30 17 C -1.656323 2.109970 3.353898 0
M  V30 18 C -2.752143 1.413872 3.829638 0
M  V30 19 C -3.037776 0.113631 3.425459 0
M  V30 20 C -2.186869 -0.484522 2.518478 0
M  V30 21 C -2.443682 -1.846185 2.064165 0
M  V30 22 C -1.594714 -2.443371 1.159045 0
M  V30 23 N -1.801099 -3.708455 0.713318 0
M  V30 24 C -2.882732 -4.343165 1.207669 0
M  V30 25 C -3.752596 -3.777355 2.113315 0
M  V30 26 N -3.511031 -2.519402 2.529852 0
M  V30 27 N -1.119064 0.189081 2.052684 0
M  V30 28 C -0.840527 1.452769 2.444814 0
M  V30 29 N 1.446183 0.878303 0.495064 0
M  V30 30 C 2.558979 0.958003 -0.284145 0
M  V30 31 C 3.425000 -2.308354 -1.324904 0
M  V30 32 H 1.027793 -4.667864 -1.769949 0
M  V30 33 H -0.348842 -2.679844 -1.791903 0
M  V30 34 H 0.621239 -0.454842 -1.523039 0
M  V30 35 H 4.841616 -0.121387 -2.469278 0
M  V30 36 H 4.612412 3.633313 -0.528446 0
M  V30 37 H 2.436684 3.881688 1.185889 0
M  V30 38 H -1.544176 4.026749 4.176498 0
M  V30 39 H -3.394306 1.922693 4.541220 0
M  V30 40 H -3.917049 -0.401411 3.827728 0
M  V30 41 H -0.735942 -1.899418 0.785450 0
M  V30 42 H -3.004017 -5.353074 0.819930 0
M  V30 43 H -4.562231 -4.433639 2.397817 0
M  V30 44 H 4.502366 -2.242038 -1.194368 0
M  V30 END ATOM
M  V30 BEGIN BOND
M  V30 1 1 1 2
M  V30 2 2 2 3
M  V30 3 1 3 4
M  V30 4 2 4 5
M  V30 5 1 5 6
M  V30 6 1 6 7
M  V30 7 2 7 8
M  V30 8 1 8 9
M  V30 9 2 9 10
M  V30 10 1 10 11
M  V30 11 1 11 12
M  V30 12 1 12 13
M  V30 13 1 13 14
M  V30 14 2 14 15
M  V30 15 1 15 16
M  V30 16 1 16 17
M  V30 17 2 17 18
M  V30 18 1 18 19
M  V30 19 2 19 20
M  V30 20 1 20 21
M  V30 21 2 21 22
M  V30 22 1 22 23
M  V30 23 2 23 24
M  V30 24 1 24 25
M  V30 25 2 25 26
M  V30 26 1 20 27
M  V30 27 2 27 28
M  V30 28 2 13 29
M  V30 29 1 29 30
M  V30 30 2 6 31
M  V30 31 1 31 2
M  V30 32 1 30 7
M  V30 33 2 30 11
M  V30 34 1 28 14
M  V30 35 1 28 17
M  V30 36 1 26 21
M  V30 37 1 3 32
M  V30 38 1 4 33
M  V30 39 1 5 34
M  V30 40 1 8 35
M  V30 41 1 10 36
M  V30 42 1 12 37
M  V30 43 1 16 38
M  V30 44 1 18 39
M  V30 45 1 19 40
M  V30 46 1 22 41
M  V30 47 1 24 42
M  V30 48 1 25 43
M  V30 49 1 31 44
M  V30 END BOND
M  V30 END CTAB
M  END
>  <Dataset>  (824) 
ChEMBL_Kinases

>  <Ligand_Instance>  (824) 
nan

>  <PDB_ID>  (824) 
nan

>  <Standardized_SMILES>  (824) 
Fc1cccc(-c2cncc3[nH]c(-c4n[nH]c5ccc(-c6cnccn6)nc45)nc23)c1

>  <Name>  (824) 
nan

>  <Pocket>  (824) 
nan

>  <ATP_Site>  (824) 
nan

>  <Peripheral>  (824) 
nan

>  <Num_H_Atoms_ProtBoundConf>  (824) 
nan

>  <Num_Resolved_Atoms>  (824) 
nan

>  <Num_Not_Resolved_Atoms>  (824) 
nan

$$$$
CHEMBL4764965
     RDKit          3D

  0  0  0  0  0  0  0  0  0  0999 V3000
M  V30 BEGIN CTAB
M  V30 COUNTS 42 44 0 0 0
M  V30 BEGIN ATOM
M  V30 1 C 4.056825 -5.412785 3.680576 0
M  V30 2 C 4.224761 -4.410225 3.034293 0
M  V30 3 C 4.412634 -3.199050 2.239244 0
M  V30 4 N 3.120719 -2.695469 1.782858 0
M  V30 5 C 3.176914 -1.515126 0.996479 0
M  V30 6 O 4.332386 -1.057167 0.795524 0
M  V30 7 C 2.019836 -0.828578 0.429780 0
M  V30 8 C 2.301040 0.307460 -0.305878 0
M  V30 9 C 1.234091 1.006917 -0.872914 0
M  V30 10 N 1.458522 2.201649 -1.653108 0
M  V30 11 C 1.449284 3.401974 -0.889478 0
M  V30 12 O 1.272977 3.531609 0.348771 0
M  V30 13 C 1.669382 4.645547 -1.612497 0
M  V30 14 C 1.880615 4.861505 -2.878628 0
M  V30 15 C -0.039025 0.518605 -0.662713 0
M  V30 16 C -0.331013 -0.609021 0.066319 0
M  V30 17 C -1.724862 -1.021494 0.214599 0
M  V30 18 N -2.658742 -1.083163 -0.722184 0
M  V30 19 N -3.800873 -1.503348 -0.204077 0
M  V30 20 C -3.652267 -1.738333 1.126327 0
M  V30 21 C -4.479907 -2.171642 2.123416 0
M  V30 22 C -4.048425 -2.326747 3.442212 0
M  V30 23 C -2.727584 -2.018191 3.699025 0
M  V30 24 C -1.864071 -1.574169 2.697664 0
M  V30 25 C -2.323424 -1.432469 1.406717 0
M  V30 26 C 0.748646 -1.275460 0.612392 0
M  V30 27 H 3.908759 -6.288434 4.253467 0
M  V30 28 H 5.036837 -3.375180 1.356192 0
M  V30 29 H 4.879134 -2.367470 2.808092 0
M  V30 30 H 2.180366 -3.107398 1.972706 0
M  V30 31 H 3.270748 0.744712 -0.509763 0
M  V30 32 H 1.617821 2.236364 -2.682931 0
M  V30 33 H 1.691504 5.632336 -1.180676 0
M  V30 34 H 2.029665 4.712067 -3.948714 0
M  V30 35 H 2.026278 4.690516 -3.938991 0
M  V30 36 H -0.858636 1.069723 -1.107561 0
M  V30 37 H -4.689623 -1.633946 -0.748535 0
M  V30 38 H -5.492666 -2.385597 1.817361 0
M  V30 39 H -4.755402 -2.672797 4.177667 0
M  V30 40 H -2.379139 -2.133810 4.717503 0
M  V30 41 H -0.854797 -1.352469 2.961849 0
M  V30 42 H 0.545606 -2.163992 1.189326 0
M  V30 END ATOM
M  V30 BEGIN BOND
M  V30 1 3 1 2
M  V30 2 1 2 3
M  V30 3 1 3 4
M  V30 4 1 4 5
M  V30 5 2 5 6
M  V30 6 1 5 7
M  V30 7 2 7 8
M  V30 8 1 8 9
M  V30 9 1 9 10
M  V30 10 1 10 11
M  V30 11 2 11 12
M  V30 12 1 11 13
M  V30 13 2 13 14
M  V30 14 2 9 15
M  V30 15 1 15 16
M  V30 16 1 16 17
M  V30 17 2 17 18
M  V30 18 1 18 19
M  V30 19 1 19 20
M  V30 20 2 20 21
M  V30 21 1 21 22
M  V30 22 2 22 23
M  V30 23 1 23 24
M  V30 24 2 24 25
M  V30 25 2 16 26
M  V30 26 1 26 7
M  V30 27 1 25 17
M  V30 28 1 25 20
M  V30 29 1 1 27
M  V30 30 1 3 28
M  V30 31 1 3 29
M  V30 32 1 4 30
M  V30 33 1 8 31
M  V30 34 1 10 32
M  V30 35 1 13 33
M  V30 36 1 14 34
M  V30 37 1 14 35
M  V30 38 1 15 36
M  V30 39 1 19 37
M  V30 40 1 21 38
M  V30 41 1 22 39
M  V30 42 1 23 40
M  V30 43 1 24 41
M  V30 44 1 26 42
M  V30 END BOND
M  V30 END CTAB
M  END
>  <Dataset>  (825) 
ChEMBL_Kinases

>  <Ligand_Instance>  (825) 
nan

>  <PDB_ID>  (825) 
nan

>  <Standardized_SMILES>  (825) 
C#CCNC(=O)c1cc(NC(=O)C=C)cc(-c2n[nH]c3ccccc23)c1

>  <Name>  (825) 
nan

>  <Pocket>  (825) 
nan

>  <ATP_Site>  (825) 
nan

>  <Peripheral>  (825) 
nan

>  <Num_H_Atoms_ProtBoundConf>  (825) 
nan

>  <Num_Resolved_Atoms>  (825) 
nan

>  <Num_Not_Resolved_Atoms>  (825) 
nan

$$$$
CHEMBL476507
     RDKit          3D

  0  0  0  0  0  0  0  0  0  0999 V3000
M  V30 BEGIN CTAB
M  V30 COUNTS 51 54 0 0 0
M  V30 BEGIN ATOM
M  V30 1 C -0.089836 3.702066 2.263707 0
M  V30 2 C 1.130410 2.912875 2.422807 0
M  V30 3 C 2.238973 3.371153 3.106027 0
M  V30 4 C 3.426946 2.652583 3.283706 0
M  V30 5 C 3.477082 1.389424 2.726107 0
M  V30 6 C 4.721917 0.651276 2.919071 0
M  V30 7 O 5.644630 1.175229 3.553043 0
M  V30 8 N 4.960119 -0.658844 2.420244 0
M  V30 9 C 6.172484 -1.396053 2.599797 0
M  V30 10 C 6.212840 -2.868222 2.618490 0
M  V30 11 C 6.674437 -2.180455 1.381436 0
M  V30 12 C 2.395185 0.895789 2.038057 0
M  V30 13 C 1.224750 1.647408 1.883012 0
M  V30 14 C 0.145120 1.027872 1.138186 0
M  V30 15 C -0.593356 1.664826 0.165937 0
M  V30 16 C -1.625357 1.035705 -0.529960 0
M  V30 17 C -1.937962 -0.296225 -0.242811 0
M  V30 18 C -3.026655 -0.907536 -0.999861 0
M  V30 19 O -3.603074 -0.203586 -1.849721 0
M  V30 20 N -3.430869 -2.242503 -0.796799 0
M  V30 21 C -4.475508 -2.923742 -1.481917 0
M  V30 22 C -5.745041 -2.846579 -0.921726 0
M  V30 23 C -6.833123 -3.465529 -1.495834 0
M  V30 24 C -6.724095 -4.186914 -2.643848 0
M  V30 25 C -5.459292 -4.268534 -3.209245 0
M  V30 26 C -5.300146 -5.025630 -4.429606 0
M  V30 27 N -5.172630 -5.619200 -5.410712 0
M  V30 28 C -4.374352 -3.659211 -2.648853 0
M  V30 29 C -1.207331 -0.949510 0.729180 0
M  V30 30 C -0.194667 -0.287314 1.392460 0
M  V30 31 H -1.015531 3.133302 2.197034 0
M  V30 32 H 0.043278 4.477005 1.458092 0
M  V30 33 H -0.209704 4.336748 3.191074 0
M  V30 34 H 2.163990 4.371050 3.532317 0
M  V30 35 H 4.215905 3.130144 3.839363 0
M  V30 36 H 4.188194 -1.134146 1.872967 0
M  V30 37 H 6.961959 -0.859759 3.182161 0
M  V30 38 H 5.303508 -3.493523 2.511912 0
M  V30 39 H 6.953199 -3.345021 3.302736 0
M  V30 40 H 7.772263 -2.119003 1.187799 0
M  V30 41 H 6.059042 -2.169978 0.478166 0
M  V30 42 H 2.452705 -0.095608 1.608178 0
M  V30 43 H -0.377039 2.676534 -0.072038 0
M  V30 44 H -2.156388 1.606620 -1.278303 0
M  V30 45 H -2.964246 -2.852109 -0.091421 0
M  V30 46 H -5.894848 -2.287122 -0.008758 0
M  V30 47 H -7.840182 -3.415913 -1.069253 0
M  V30 48 H -7.555852 -4.686371 -3.123180 0
M  V30 49 H -3.365242 -3.699720 -3.062035 0
M  V30 50 H -1.446982 -1.978474 0.952771 0
M  V30 51 H 0.328072 -0.861982 2.134704 0
M  V30 END ATOM
M  V30 BEGIN BOND
M  V30 1 1 1 2
M  V30 2 2 2 3
M  V30 3 1 3 4
M  V30 4 2 4 5
M  V30 5 1 5 6
M  V30 6 2 6 7
M  V30 7 1 6 8
M  V30 8 1 8 9
M  V30 9 1 9 10
M  V30 10 1 10 11
M  V30 11 1 5 12
M  V30 12 2 12 13
M  V30 13 1 13 14
M  V30 14 2 14 15
M  V30 15 1 15 16
M  V30 16 2 16 17
M  V30 17 1 17 18
M  V30 18 2 18 19
M  V30 19 1 18 20
M  V30 20 1 20 21
M  V30 21 2 21 22
M  V30 22 1 22 23
M  V30 23 2 23 24
M  V30 24 1 24 25
M  V30 25 1 25 26
M  V30 26 3 26 27
M  V30 27 2 25 28
M  V30 28 1 17 29
M  V30 29 2 29 30
M  V30 30 1 13 2
M  V30 31 1 30 14
M  V30 32 1 11 9
M  V30 33 1 28 21
M  V30 34 1 1 31
M  V30 35 1 1 32
M  V30 36 1 1 33
M  V30 37 1 3 34
M  V30 38 1 4 35
M  V30 39 1 8 36
M  V30 40 1 9 37
M  V30 41 1 10 38
M  V30 42 1 10 39
M  V30 43 1 11 40
M  V30 44 1 11 41
M  V30 45 1 12 42
M  V30 46 1 15 43
M  V30 47 1 16 44
M  V30 48 1 20 45
M  V30 49 1 22 46
M  V30 50 1 23 47
M  V30 51 1 24 48
M  V30 52 1 28 49
M  V30 53 1 29 50
M  V30 54 1 30 51
M  V30 END BOND
M  V30 END CTAB
M  END
>  <Dataset>  (826) 
ChEMBL_Kinases

>  <Ligand_Instance>  (826) 
nan

>  <PDB_ID>  (826) 
nan

>  <Standardized_SMILES>  (826) 
Cc1ccc(C(=O)NC2CC2)cc1-c1ccc(C(=O)Nc2cccc(C#N)c2)cc1

>  <Name>  (826) 
nan

>  <Pocket>  (826) 
nan

>  <ATP_Site>  (826) 
nan

>  <Peripheral>  (826) 
nan

>  <Num_H_Atoms_ProtBoundConf>  (826) 
nan

>  <Num_Resolved_Atoms>  (826) 
nan

>  <Num_Not_Resolved_Atoms>  (826) 
nan

$$$$
CHEMBL4240502
     RDKit          3D

  0  0  0  0  0  0  0  0  0  0999 V3000
M  V30 BEGIN CTAB
M  V30 COUNTS 77 80 0 0 0
M  V30 BEGIN ATOM
M  V30 1 C 2.219021 0.976839 5.577041 0
M  V30 2 C 0.782510 0.522450 5.698141 0
M  V30 3 O 0.429604 -0.499937 4.809833 0
M  V30 4 C 0.483084 -0.383096 3.432313 0
M  V30 5 C 0.894946 0.779362 2.823769 0
M  V30 6 C 0.960064 0.930448 1.460385 0
M  V30 7 C 1.399691 2.166748 0.815627 0
M  V30 8 N 2.624482 2.732775 0.908522 0
M  V30 9 N 2.643860 3.839950 0.187941 0
M  V30 10 C 1.457508 4.041825 -0.395371 0
M  V30 11 C 0.896992 5.081817 -1.293887 0
M  V30 12 C 0.265683 6.203162 -0.498946 0
M  V30 13 N 1.306213 6.790157 0.331185 0
M  V30 14 C 0.767671 7.875303 1.142308 0
M  V30 15 C 2.416463 7.262451 -0.476998 0
M  V30 16 N 0.682689 2.990567 0.001744 0
M  V30 17 C -0.707740 2.673801 -0.318108 0
M  V30 18 C 0.592119 -0.142077 0.661590 0
M  V30 19 C 0.183310 -1.294090 1.295211 0
M  V30 20 C 0.104290 -1.485692 2.657209 0
M  V30 21 N -0.320090 -2.690767 3.271594 0
M  V30 22 C -0.746693 -3.902985 2.672356 0
M  V30 23 N -1.094544 -4.931079 3.464931 0
M  V30 24 C -1.515269 -6.125739 3.041329 0
M  V30 25 C -1.595702 -6.308150 1.680377 0
M  V30 26 C -2.017933 -7.501510 1.138325 0
M  V30 27 C -2.111991 -7.722396 -0.221087 0
M  V30 28 C -2.571983 -9.019654 -0.801180 0
M  V30 29 N -1.762273 -6.688506 -1.035960 0
M  V30 30 C -1.345634 -5.509454 -0.542237 0
M  V30 31 N -0.998218 -4.481717 -1.462080 0
M  V30 32 C -1.083372 -4.672675 -2.884541 0
M  V30 33 C -0.666933 -3.487883 -3.709959 0
M  V30 34 C -0.821325 -3.867132 -5.164548 0
M  V30 35 C -1.422456 -2.232838 -3.448829 0
M  V30 36 C 0.823891 -3.199202 -3.515631 0
M  V30 37 C -1.254440 -5.296252 0.813776 0
M  V30 38 N -0.845966 -4.141249 1.356642 0
M  V30 39 H 2.756171 0.639857 6.493481 0
M  V30 40 H 2.735234 0.435867 4.729075 0
M  V30 41 H 2.302718 2.086085 5.447501 0
M  V30 42 H 0.602407 0.247327 6.753518 0
M  V30 43 H 0.100406 1.390339 5.442190 0
M  V30 44 H 1.190304 1.646929 3.375906 0
M  V30 45 H 1.716178 5.475172 -1.930051 0
M  V30 46 H 0.125731 4.673317 -1.962483 0
M  V30 47 H -0.240247 6.938479 -1.122438 0
M  V30 48 H -0.515262 5.742908 0.140133 0
M  V30 49 H 1.391375 8.770493 0.950278 0
M  V30 50 H -0.301187 8.057306 0.933680 0
M  V30 51 H 0.966496 7.591428 2.209592 0
M  V30 52 H 2.088649 7.700068 -1.435991 0
M  V30 53 H 3.172851 6.482431 -0.535965 0
M  V30 54 H 2.835913 8.134405 0.101564 0
M  V30 55 H -1.145682 3.606238 -0.749242 0
M  V30 56 H -1.189915 2.361440 0.608551 0
M  V30 57 H -0.644336 1.872739 -1.084784 0
M  V30 58 H 0.638549 -0.038114 -0.411463 0
M  V30 59 H -0.085604 -2.081028 0.610821 0
M  V30 60 H -0.313792 -2.671196 4.329513 0
M  V30 61 H -1.772754 -6.892787 3.739709 0
M  V30 62 H -2.292327 -8.315250 1.802058 0
M  V30 63 H -2.103664 -9.167266 -1.779782 0
M  V30 64 H -3.685528 -8.931391 -0.929875 0
M  V30 65 H -2.388147 -9.836364 -0.087987 0
M  V30 66 H -0.663848 -3.534979 -1.186966 0
M  V30 67 H -0.417861 -5.514742 -3.160239 0
M  V30 68 H -2.112174 -5.003970 -3.120209 0
M  V30 69 H -1.676748 -3.308609 -5.572241 0
M  V30 70 H 0.105696 -3.731599 -5.758199 0
M  V30 71 H -1.079131 -4.947015 -5.286753 0
M  V30 72 H -1.201190 -1.543036 -4.304093 0
M  V30 73 H -1.120349 -1.691620 -2.533907 0
M  V30 74 H -2.514027 -2.404827 -3.503521 0
M  V30 75 H 1.044960 -2.775759 -2.533065 0
M  V30 76 H 1.113359 -2.512514 -4.344095 0
M  V30 77 H 1.386988 -4.147326 -3.701331 0
M  V30 END ATOM
M  V30 BEGIN BOND
M  V30 1 1 1 2
M  V30 2 1 2 3
M  V30 3 1 3 4
M  V30 4 2 4 5
M  V30 5 1 5 6
M  V30 6 1 6 7
M  V30 7 2 7 8
M  V30 8 1 8 9
M  V30 9 2 9 10
M  V30 10 1 10 11
M  V30 11 1 11 12
M  V30 12 1 12 13
M  V30 13 1 13 14
M  V30 14 1 13 15
M  V30 15 1 10 16
M  V30 16 1 16 17
M  V30 17 2 6 18
M  V30 18 1 18 19
M  V30 19 2 19 20
M  V30 20 1 20 21
M  V30 21 1 21 22
M  V30 22 2 22 23
M  V30 23 1 23 24
M  V30 24 2 24 25
M  V30 25 1 25 26
M  V30 26 2 26 27
M  V30 27 1 27 28
M  V30 28 1 27 29
M  V30 29 2 29 30
M  V30 30 1 30 31
M  V30 31 1 31 32
M  V30 32 1 32 33
M  V30 33 1 33 34
M  V30 34 1 33 35
M  V30 35 1 33 36
M  V30 36 1 30 37
M  V30 37 2 37 38
M  V30 38 1 20 4
M  V30 39 1 38 22
M  V30 40 1 16 7
M  V30 41 1 37 25
M  V30 42 1 1 39
M  V30 43 1 1 40
M  V30 44 1 1 41
M  V30 45 1 2 42
M  V30 46 1 2 43
M  V30 47 1 5 44
M  V30 48 1 11 45
M  V30 49 1 11 46
M  V30 50 1 12 47
M  V30 51 1 12 48
M  V30 52 1 14 49
M  V30 53 1 14 50
M  V30 54 1 14 51
M  V30 55 1 15 52
M  V30 56 1 15 53
M  V30 57 1 15 54
M  V30 58 1 17 55
M  V30 59 1 17 56
M  V30 60 1 17 57
M  V30 61 1 18 58
M  V30 62 1 19 59
M  V30 63 1 21 60
M  V30 64 1 24 61
M  V30 65 1 26 62
M  V30 66 1 28 63
M  V30 67 1 28 64
M  V30 68 1 28 65
M  V30 69 1 31 66
M  V30 70 1 32 67
M  V30 71 1 32 68
M  V30 72 1 34 69
M  V30 73 1 34 70
M  V30 74 1 34 71
M  V30 75 1 35 72
M  V30 76 1 35 73
M  V30 77 1 35 74
M  V30 78 1 36 75
M  V30 79 1 36 76
M  V30 80 1 36 77
M  V30 END BOND
M  V30 END CTAB
M  END
>  <Dataset>  (827) 
ChEMBL_Kinases

>  <Ligand_Instance>  (827) 
nan

>  <PDB_ID>  (827) 
nan

>  <Standardized_SMILES>  (827) 
CCOc1cc(-c2nnc(CCN(C)C)n2C)ccc1Nc1ncc2cc(C)nc(NCC(C)(C)C)c2n1

>  <Name>  (827) 
nan

>  <Pocket>  (827) 
nan

>  <ATP_Site>  (827) 
nan

>  <Peripheral>  (827) 
nan

>  <Num_H_Atoms_ProtBoundConf>  (827) 
nan

>  <Num_Resolved_Atoms>  (827) 
nan

>  <Num_Not_Resolved_Atoms>  (827) 
nan

$$$$
CHEMBL4764647
     RDKit          3D

  0  0  0  0  0  0  0  0  0  0999 V3000
M  V30 BEGIN CTAB
M  V30 COUNTS 37 41 0 0 0
M  V30 BEGIN ATOM
M  V30 1 F 0.683761 -0.922870 0.427027 0
M  V30 2 C 0.850478 0.396702 0.196204 0
M  V30 3 C 2.108573 0.851938 -0.118386 0
M  V30 4 C 3.216664 -0.094819 -0.193040 0
M  V30 5 C 4.186748 -0.153459 -1.191507 0
M  V30 6 C 5.180584 -1.113562 -1.124026 0
M  V30 7 N 5.233287 -1.988282 -0.122400 0
M  V30 8 C 4.324714 -1.995400 0.887917 0
M  V30 9 C 3.331652 -1.029465 0.812520 0
M  V30 10 C 2.219950 2.209577 -0.344102 0
M  V30 11 C 1.144373 3.068374 -0.262599 0
M  V30 12 C -0.111470 2.548974 0.061189 0
M  V30 13 N -1.334934 3.086753 0.219850 0
M  V30 14 C -2.227334 2.108457 0.541437 0
M  V30 15 N -1.574282 0.926813 0.591117 0
M  V30 16 C -2.074264 -0.370293 0.883800 0
M  V30 17 C -3.040239 -0.908690 0.058595 0
M  V30 18 C -3.518909 -2.166147 0.349881 0
M  V30 19 C -3.097644 -2.932473 1.417345 0
M  V30 20 C -2.121861 -2.340788 2.217129 0
M  V30 21 C -1.605434 -1.080395 1.970897 0
M  V30 22 O -1.878949 -3.311773 3.206629 0
M  V30 23 C -2.267378 -4.585645 2.676138 0
M  V30 24 O -3.413741 -4.195530 1.915514 0
M  V30 25 C -0.280517 1.184521 0.299214 0
M  V30 26 H 4.087199 0.587144 -1.979018 0
M  V30 27 H 5.921943 -1.139893 -1.909466 0
M  V30 28 H 4.378243 -2.710774 1.695583 0
M  V30 29 H 2.625836 -1.070898 1.640883 0
M  V30 30 H 3.207693 2.603899 -0.596626 0
M  V30 31 H 1.260878 4.138635 -0.446155 0
M  V30 32 H -3.291446 2.232994 0.730977 0
M  V30 33 H -3.386565 -0.337303 -0.777545 0
M  V30 34 H -4.286126 -2.561371 -0.328432 0
M  V30 35 H -0.838993 -0.678361 2.643416 0
M  V30 36 H -1.514723 -4.909439 1.932454 0
M  V30 37 H -2.500118 -5.303576 3.460558 0
M  V30 END ATOM
M  V30 BEGIN BOND
M  V30 1 1 1 2
M  V30 2 2 2 3
M  V30 3 1 3 4
M  V30 4 2 4 5
M  V30 5 1 5 6
M  V30 6 2 6 7
M  V30 7 1 7 8
M  V30 8 2 8 9
M  V30 9 1 3 10
M  V30 10 2 10 11
M  V30 11 1 11 12
M  V30 12 1 12 13
M  V30 13 2 13 14
M  V30 14 1 14 15
M  V30 15 1 15 16
M  V30 16 2 16 17
M  V30 17 1 17 18
M  V30 18 2 18 19
M  V30 19 1 19 20
M  V30 20 2 20 21
M  V30 21 1 20 22
M  V30 22 1 22 23
M  V30 23 1 23 24
M  V30 24 1 15 25
M  V30 25 1 25 2
M  V30 26 1 9 4
M  V30 27 2 25 12
M  V30 28 1 21 16
M  V30 29 1 24 19
M  V30 30 1 5 26
M  V30 31 1 6 27
M  V30 32 1 8 28
M  V30 33 1 9 29
M  V30 34 1 10 30
M  V30 35 1 11 31
M  V30 36 1 14 32
M  V30 37 1 17 33
M  V30 38 1 18 34
M  V30 39 1 21 35
M  V30 40 1 23 36
M  V30 41 1 23 37
M  V30 END BOND
M  V30 END CTAB
M  END
>  <Dataset>  (828) 
ChEMBL_Kinases

>  <Ligand_Instance>  (828) 
nan

>  <PDB_ID>  (828) 
nan

>  <Standardized_SMILES>  (828) 
Fc1c(-c2ccncc2)ccc2ncn(-c3ccc4c(c3)OCO4)c12

>  <Name>  (828) 
nan

>  <Pocket>  (828) 
nan

>  <ATP_Site>  (828) 
nan

>  <Peripheral>  (828) 
nan

>  <Num_H_Atoms_ProtBoundConf>  (828) 
nan

>  <Num_Resolved_Atoms>  (828) 
nan

>  <Num_Not_Resolved_Atoms>  (828) 
nan

$$$$
CHEMBL426831
     RDKit          3D

  0  0  0  0  0  0  0  0  0  0999 V3000
M  V30 BEGIN CTAB
M  V30 COUNTS 60 64 0 0 0
M  V30 BEGIN ATOM
M  V30 1 O 2.396444 -1.416597 5.504591 0
M  V30 2 C 2.611624 -0.974564 4.183422 0 CFG=1
M  V30 3 C 4.017571 -1.273185 3.724429 0
M  V30 4 N 3.934432 -1.850575 2.403844 0
M  V30 5 C 2.579340 -1.641173 1.924274 0
M  V30 6 C 2.378634 -0.286967 1.332587 0
M  V30 7 N 3.217932 -0.002817 0.198666 0
M  V30 8 C 3.073121 1.371771 -0.248038 0
M  V30 9 C 1.684816 1.588463 -0.739386 0
M  V30 10 C 1.326576 0.614763 -1.851021 0
M  V30 11 C -0.012436 0.030510 -1.497410 0
M  V30 12 C -1.019692 0.901162 -1.096855 0
M  V30 13 C -2.131580 0.093010 -0.843084 0
M  V30 14 C -3.385750 0.669014 -0.392787 0
M  V30 15 C -3.320785 1.098037 0.931927 0
M  V30 16 C -4.364028 1.682322 1.568900 0
M  V30 17 N -5.502830 1.859586 0.912461 0
M  V30 18 C -5.660919 1.479908 -0.363520 0
M  V30 19 C -4.576737 0.872578 -1.022494 0
M  V30 20 C -1.745728 -1.198782 -1.099084 0
M  V30 21 C -2.593962 -2.372864 -0.951849 0
M  V30 22 C -2.029060 -3.334870 -0.106876 0
M  V30 23 C -2.617559 -4.527317 0.197933 0
M  V30 24 C -3.850159 -4.827727 -0.349932 0
M  V30 25 F -4.478147 -5.997367 -0.079953 0
M  V30 26 C -4.424115 -3.891597 -1.186273 0
M  V30 27 C -3.826768 -2.687255 -1.492057 0
M  V30 28 N -0.439065 -1.260205 -1.503618 0
M  V30 29 C 2.378731 -0.393855 -2.099350 0
M  V30 30 C 3.089469 -0.926619 -0.893108 0
M  V30 31 C 1.774591 -1.771489 3.213479 0
M  V30 32 H 1.538300 -1.935467 5.502644 0
M  V30 33 H 2.403733 0.124442 4.122594 0
M  V30 34 H 4.645438 -0.357892 3.777035 0
M  V30 35 H 4.416285 -2.036437 4.446240 0
M  V30 36 H 4.654437 -1.504335 1.736695 0
M  V30 37 H 2.324604 -2.478229 1.259592 0
M  V30 38 H 2.534271 0.476172 2.128822 0
M  V30 39 H 1.287658 -0.224415 1.065235 0
M  V30 40 H 3.294459 2.019013 0.601519 0
M  V30 41 H 3.798317 1.488210 -1.081519 0
M  V30 42 H 0.979028 1.524616 0.112061 0
M  V30 43 H 1.655184 2.645465 -1.131009 0
M  V30 44 H 1.138074 1.200876 -2.773589 0
M  V30 45 H -0.985927 1.979650 -0.993148 0
M  V30 46 H -2.427490 0.997053 1.571633 0
M  V30 47 H -4.378401 2.040850 2.594438 0
M  V30 48 H -6.558435 1.594145 -0.948730 0
M  V30 49 H -4.563825 0.515718 -2.051819 0
M  V30 50 H -1.068104 -3.209450 0.381382 0
M  V30 51 H -2.162622 -5.272813 0.862560 0
M  V30 52 H -5.386497 -4.075102 -1.639580 0
M  V30 53 H -4.197331 -1.903345 -2.126555 0
M  V30 54 H 0.150131 -2.062543 -1.770798 0
M  V30 55 H 1.899803 -1.278251 -2.609390 0
M  V30 56 H 3.117172 0.029403 -2.842517 0
M  V30 57 H 2.691137 -1.906458 -0.599884 0
M  V30 58 H 4.145580 -1.137517 -1.231659 0
M  V30 59 H 0.749602 -1.396878 3.084780 0
M  V30 60 H 1.778132 -2.826744 3.538021 0
M  V30 END ATOM
M  V30 BEGIN BOND
M  V30 1 1 1 2
M  V30 2 1 2 3
M  V30 3 1 3 4
M  V30 4 1 4 5
M  V30 5 1 5 6
M  V30 6 1 6 7
M  V30 7 1 7 8
M  V30 8 1 8 9
M  V30 9 1 9 10
M  V30 10 1 10 11
M  V30 11 2 11 12
M  V30 12 1 12 13
M  V30 13 1 13 14
M  V30 14 2 14 15
M  V30 15 1 15 16
M  V30 16 2 16 17
M  V30 17 1 17 18
M  V30 18 2 18 19
M  V30 19 2 13 20
M  V30 20 1 20 21
M  V30 21 2 21 22
M  V30 22 1 22 23
M  V30 23 2 23 24
M  V30 24 1 24 25
M  V30 25 1 24 26
M  V30 26 2 26 27
M  V30 27 1 20 28
M  V30 28 1 10 29
M  V30 29 1 29 30
M  V30 30 1 5 31
M  V30 31 1 31 2
M  V30 32 1 30 7
M  V30 33 1 28 11
M  V30 34 1 19 14
M  V30 35 1 27 21
M  V30 36 1 1 32
M  V30 37 1 2 33 CFG=1
M  V30 38 1 3 34
M  V30 39 1 3 35
M  V30 40 1 4 36
M  V30 41 1 5 37
M  V30 42 1 6 38
M  V30 43 1 6 39
M  V30 44 1 8 40
M  V30 45 1 8 41
M  V30 46 1 9 42
M  V30 47 1 9 43
M  V30 48 1 10 44
M  V30 49 1 12 45
M  V30 50 1 15 46
M  V30 51 1 16 47
M  V30 52 1 18 48
M  V30 53 1 19 49
M  V30 54 1 22 50
M  V30 55 1 23 51
M  V30 56 1 26 52
M  V30 57 1 27 53
M  V30 58 1 28 54
M  V30 59 1 29 55
M  V30 60 1 29 56
M  V30 61 1 30 57
M  V30 62 1 30 58
M  V30 63 1 31 59
M  V30 64 1 31 60
M  V30 END BOND
M  V30 END CTAB
M  END
>  <Dataset>  (829) 
ChEMBL_Kinases

>  <Ligand_Instance>  (829) 
nan

>  <PDB_ID>  (829) 
nan

>  <Standardized_SMILES>  (829) 
O[C@H]1CNC(CN2CCC(c3cc(-c4ccncc4)c(-c4ccc(F)cc4)[nH]3)CC2)C1

>  <Name>  (829) 
nan

>  <Pocket>  (829) 
nan

>  <ATP_Site>  (829) 
nan

>  <Peripheral>  (829) 
nan

>  <Num_H_Atoms_ProtBoundConf>  (829) 
nan

>  <Num_Resolved_Atoms>  (829) 
nan

>  <Num_Not_Resolved_Atoms>  (829) 
nan

$$$$
CHEMBL426800
     RDKit          3D

  0  0  0  0  0  0  0  0  0  0999 V3000
M  V30 BEGIN CTAB
M  V30 COUNTS 28 30 0 0 0
M  V30 BEGIN ATOM
M  V30 1 C -1.524154 -1.478903 2.859630 0
M  V30 2 C -0.125752 -0.902563 2.813368 0
M  V30 3 N 0.275558 -0.535161 1.470326 0
M  V30 4 C 0.899789 -1.256538 0.521364 0
M  V30 5 C 1.318313 -2.645489 0.683466 0
M  V30 6 N 1.162506 -3.426773 1.768095 0
M  V30 7 O 1.658606 -4.608274 1.550268 0
M  V30 8 N 2.137702 -4.630991 0.353737 0
M  V30 9 C 1.959441 -3.442834 -0.241401 0
M  V30 10 N 2.350046 -3.092323 -1.542360 0
M  V30 11 N 1.088735 -0.532345 -0.597064 0
M  V30 12 C 0.581172 0.715266 -0.408418 0
M  V30 13 C 0.486291 1.852068 -1.169983 0
M  V30 14 C -0.115778 2.987053 -0.642037 0
M  V30 15 C -0.635521 3.011846 0.655886 0
M  V30 16 F -1.221062 4.097056 1.185765 0
M  V30 17 C -0.509417 1.836995 1.371721 0
M  V30 18 C 0.084795 0.666572 0.894979 0
M  V30 19 H -2.288608 -0.731846 3.121098 0
M  V30 20 H -1.569595 -2.267385 3.646808 0
M  V30 21 H -1.801954 -1.941011 1.888406 0
M  V30 22 H -0.171218 0.032437 3.436508 0
M  V30 23 H 0.559797 -1.643896 3.242662 0
M  V30 24 H 1.770840 -3.595062 -2.267065 0
M  V30 25 H 2.082610 -3.320356 -2.514406 0
M  V30 26 H 0.872733 1.872025 -2.168894 0
M  V30 27 H -0.222892 3.922615 -1.195067 0
M  V30 28 H -0.897376 1.804830 2.385219 0
M  V30 END ATOM
M  V30 BEGIN BOND
M  V30 1 1 1 2
M  V30 2 1 2 3
M  V30 3 1 3 4
M  V30 4 1 4 5
M  V30 5 2 5 6
M  V30 6 1 6 7
M  V30 7 1 7 8
M  V30 8 2 8 9
M  V30 9 1 9 10
M  V30 10 2 4 11
M  V30 11 1 11 12
M  V30 12 2 12 13
M  V30 13 1 13 14
M  V30 14 2 14 15
M  V30 15 1 15 16
M  V30 16 1 15 17
M  V30 17 2 17 18
M  V30 18 1 18 3
M  V30 19 1 9 5
M  V30 20 1 18 12
M  V30 21 1 1 19
M  V30 22 1 1 20
M  V30 23 1 1 21
M  V30 24 1 2 22
M  V30 25 1 2 23
M  V30 26 1 10 24
M  V30 27 1 10 25
M  V30 28 1 13 26
M  V30 29 1 14 27
M  V30 30 1 17 28
M  V30 END BOND
M  V30 END CTAB
M  END
>  <Dataset>  (830) 
ChEMBL_Kinases

>  <Ligand_Instance>  (830) 
nan

>  <PDB_ID>  (830) 
nan

>  <Standardized_SMILES>  (830) 
CCn1c(-c2nonc2N)nc2ccc(F)cc21

>  <Name>  (830) 
GW785404X

>  <Pocket>  (830) 
nan

>  <ATP_Site>  (830) 
nan

>  <Peripheral>  (830) 
nan

>  <Num_H_Atoms_ProtBoundConf>  (830) 
nan

>  <Num_Resolved_Atoms>  (830) 
nan

>  <Num_Not_Resolved_Atoms>  (830) 
nan

$$$$
CHEMBL426719
     RDKit          3D

  0  0  0  0  0  0  0  0  0  0999 V3000
M  V30 BEGIN CTAB
M  V30 COUNTS 36 41 0 0 0
M  V30 BEGIN ATOM
M  V30 1 O 0.348113 -1.414041 4.318754 0
M  V30 2 C 0.244368 -1.705792 3.125211 0
M  V30 3 N 0.070930 -3.076838 2.854294 0
M  V30 4 C -0.039074 -3.294512 1.421475 0
M  V30 5 C 0.090715 -1.911847 0.916900 0
M  V30 6 C 0.257270 -0.964939 1.898149 0
M  V30 7 C 0.388913 0.344865 1.573248 0
M  V30 8 C 0.560923 1.433009 2.370715 0
M  V30 9 C 0.676920 1.771242 3.684138 0
M  V30 10 C 0.852506 3.037542 4.193234 0
M  V30 11 C 0.920994 4.097989 3.281023 0
M  V30 12 C 0.809120 3.812561 1.934282 0
M  V30 13 C 0.632346 2.497399 1.500758 0
M  V30 14 N 0.507073 2.066233 0.211553 0
M  V30 15 C 0.356180 0.732714 0.255033 0
M  V30 16 C 0.189988 -0.201295 -0.745530 0
M  V30 17 O 0.131669 -0.042645 -2.050401 0
M  V30 18 C -0.037323 -1.215733 -2.629836 0
M  V30 19 C -0.161196 -1.623005 -3.942071 0
M  V30 20 C -0.335279 -2.972979 -4.261428 0
M  V30 21 C -0.380521 -3.896959 -3.220590 0
M  V30 22 C -0.257277 -3.507608 -1.883919 0
M  V30 23 C -0.087813 -2.164428 -1.629936 0
M  V30 24 C 0.056412 -1.531877 -0.412638 0
M  V30 25 H 0.006872 -3.937637 3.437835 0
M  V30 26 H -1.036419 -3.730649 1.241794 0
M  V30 27 H 0.811324 -3.939064 1.131705 0
M  V30 28 H 0.634517 1.020799 4.433245 0
M  V30 29 H 0.940287 3.268745 5.235758 0
M  V30 30 H 1.055729 5.134553 3.544386 0
M  V30 31 H 0.858646 4.612408 1.209689 0
M  V30 32 H 0.521271 2.631411 -0.654824 0
M  V30 33 H -0.128417 -0.923664 -4.754809 0
M  V30 34 H -0.438530 -3.356343 -5.269200 0
M  V30 35 H -0.515710 -4.959327 -3.441015 0
M  V30 36 H -0.291859 -4.217160 -1.081999 0
M  V30 END ATOM
M  V30 BEGIN BOND
M  V30 1 2 1 2
M  V30 2 1 2 3
M  V30 3 1 3 4
M  V30 4 1 4 5
M  V30 5 2 5 6
M  V30 6 1 6 7
M  V30 7 1 7 8
M  V30 8 2 8 9
M  V30 9 1 9 10
M  V30 10 2 10 11
M  V30 11 1 11 12
M  V30 12 2 12 13
M  V30 13 1 13 14
M  V30 14 1 14 15
M  V30 15 1 15 16
M  V30 16 1 16 17
M  V30 17 1 17 18
M  V30 18 2 18 19
M  V30 19 1 19 20
M  V30 20 2 20 21
M  V30 21 1 21 22
M  V30 22 2 22 23
M  V30 23 1 23 24
M  V30 24 1 6 2
M  V30 25 2 15 7
M  V30 26 2 24 16
M  V30 27 1 24 5
M  V30 28 1 13 8
M  V30 29 1 23 18
M  V30 30 1 3 25
M  V30 31 1 4 26
M  V30 32 1 4 27
M  V30 33 1 9 28
M  V30 34 1 10 29
M  V30 35 1 11 30
M  V30 36 1 12 31
M  V30 37 1 14 32
M  V30 38 1 19 33
M  V30 39 1 20 34
M  V30 40 1 21 35
M  V30 41 1 22 36
M  V30 END BOND
M  V30 END CTAB
M  END
>  <Dataset>  (831) 
ChEMBL_Kinases

>  <Ligand_Instance>  (831) 
nan

>  <PDB_ID>  (831) 
nan

>  <Standardized_SMILES>  (831) 
O=C1NCc2c1c1c3ccccc3[nH]c1c1oc3ccccc3c21

>  <Name>  (831) 
nan

>  <Pocket>  (831) 
nan

>  <ATP_Site>  (831) 
nan

>  <Peripheral>  (831) 
nan

>  <Num_H_Atoms_ProtBoundConf>  (831) 
nan

>  <Num_Resolved_Atoms>  (831) 
nan

>  <Num_Not_Resolved_Atoms>  (831) 
nan

$$$$
CHEMBL426549
     RDKit          3D

  0  0  0  0  0  0  0  0  0  0999 V3000
M  V30 BEGIN CTAB
M  V30 COUNTS 62 66 0 0 0
M  V30 BEGIN ATOM
M  V30 1 C 3.265395 -1.409093 6.368459 0
M  V30 2 N 3.604226 -0.017704 6.401800 0
M  V30 3 C 4.660474 0.281069 5.457685 0
M  V30 4 C 2.444057 0.839361 6.204050 0
M  V30 5 C 1.793014 0.587291 4.891321 0
M  V30 6 C 2.139944 1.271882 3.730536 0
M  V30 7 C 1.521141 1.018697 2.524984 0
M  V30 8 N 0.558416 0.080179 2.494770 0
M  V30 9 C -0.201130 -0.367454 1.478393 0
M  V30 10 C -0.187876 0.056964 0.077745 0
M  V30 11 C -0.560854 1.377175 -0.196756 0
M  V30 12 C -0.543188 1.759584 -1.515664 0
M  V30 13 N -0.190728 0.928417 -2.511907 0
M  V30 14 C 0.164308 -0.336607 -2.219592 0
M  V30 15 N 0.543893 -1.248958 -3.269503 0
M  V30 16 C 1.943659 -1.196374 -3.624812 0
M  V30 17 C -0.431590 -2.106914 -3.856750 0
M  V30 18 C -1.512974 -1.271644 -4.438801 0
M  V30 19 C -1.610198 -0.753319 -5.712879 0
M  V30 20 C -2.732900 0.010888 -6.039694 0
M  V30 21 C -3.730038 0.257384 -5.137848 0
M  V30 22 C -3.652515 -0.250598 -3.860059 0
M  V30 23 C -2.551360 -0.999313 -3.542691 0
M  V30 24 N 0.159775 -0.748215 -0.939529 0
M  V30 25 C -1.073331 -1.360618 1.934769 0
M  V30 26 C -2.087315 -2.151266 1.249187 0
M  V30 27 C -1.944696 -3.065604 0.224352 0
M  V30 28 C -3.039363 -3.714050 -0.298245 0
M  V30 29 C -4.303768 -3.428671 0.230527 0
M  V30 30 F -5.308689 -4.119048 -0.353838 0
M  V30 31 C -4.466824 -2.528126 1.243716 0
M  V30 32 C -3.356785 -1.871448 1.772711 0
M  V30 33 N -0.802010 -1.486864 3.266982 0
M  V30 34 C 0.180841 -0.614268 3.588102 0
M  V30 35 C 0.799581 -0.361909 4.794609 0
M  V30 36 H 2.722965 -1.747581 7.275568 0
M  V30 37 H 2.794431 -1.741726 5.429560 0
M  V30 38 H 4.250815 -1.962308 6.427362 0
M  V30 39 H 5.617609 -0.119714 5.848447 0
M  V30 40 H 4.448606 -0.321801 4.538421 0
M  V30 41 H 4.734090 1.342861 5.184103 0
M  V30 42 H 1.710406 0.553363 6.988486 0
M  V30 43 H 2.689021 1.892456 6.330659 0
M  V30 44 H 2.905468 2.014127 3.766964 0
M  V30 45 H 1.806277 1.560475 1.641543 0
M  V30 46 H -0.852084 2.089327 0.549618 0
M  V30 47 H -0.825864 2.784305 -1.786006 0
M  V30 48 H 2.573370 -0.925377 -2.751441 0
M  V30 49 H 2.342546 -2.140675 -4.039652 0
M  V30 50 H 2.041835 -0.389555 -4.401200 0
M  V30 51 H -0.850264 -2.853986 -3.150150 0
M  V30 52 H 0.039922 -2.645365 -4.712884 0
M  V30 53 H -0.773026 -1.002422 -6.350493 0
M  V30 54 H -2.747469 0.387638 -7.058669 0
M  V30 55 H -4.579615 0.847700 -5.413932 0
M  V30 56 H -4.449060 -0.049512 -3.148904 0
M  V30 57 H -2.556079 -1.371564 -2.509174 0
M  V30 58 H -0.907886 -3.189703 -0.086851 0
M  V30 59 H -2.863746 -4.423965 -1.105219 0
M  V30 60 H -5.498464 -2.403723 1.556577 0
M  V30 61 H -3.598323 -1.181984 2.568410 0
M  V30 62 H 0.532747 -0.884361 5.676431 0
M  V30 END ATOM
M  V30 BEGIN BOND
M  V30 1 1 1 2
M  V30 2 1 2 3
M  V30 3 1 2 4
M  V30 4 1 4 5
M  V30 5 1 5 6
M  V30 6 2 6 7
M  V30 7 1 7 8
M  V30 8 1 8 9
M  V30 9 1 9 10
M  V30 10 2 10 11
M  V30 11 1 11 12
M  V30 12 2 12 13
M  V30 13 1 13 14
M  V30 14 1 14 15
M  V30 15 1 15 16
M  V30 16 1 15 17
M  V30 17 1 17 18
M  V30 18 2 18 19
M  V30 19 1 19 20
M  V30 20 2 20 21
M  V30 21 1 21 22
M  V30 22 2 22 23
M  V30 23 2 14 24
M  V30 24 2 9 25
M  V30 25 1 25 26
M  V30 26 2 26 27
M  V30 27 1 27 28
M  V30 28 2 28 29
M  V30 29 1 29 30
M  V30 30 1 29 31
M  V30 31 2 31 32
M  V30 32 1 25 33
M  V30 33 2 33 34
M  V30 34 1 34 35
M  V30 35 2 35 5
M  V30 36 1 34 8
M  V30 37 1 24 10
M  V30 38 1 32 26
M  V30 39 1 23 18
M  V30 40 1 1 36
M  V30 41 1 1 37
M  V30 42 1 1 38
M  V30 43 1 3 39
M  V30 44 1 3 40
M  V30 45 1 3 41
M  V30 46 1 4 42
M  V30 47 1 4 43
M  V30 48 1 6 44
M  V30 49 1 7 45
M  V30 50 1 11 46
M  V30 51 1 12 47
M  V30 52 1 16 48
M  V30 53 1 16 49
M  V30 54 1 16 50
M  V30 55 1 17 51
M  V30 56 1 17 52
M  V30 57 1 19 53
M  V30 58 1 20 54
M  V30 59 1 21 55
M  V30 60 1 22 56
M  V30 61 1 23 57
M  V30 62 1 27 58
M  V30 63 1 28 59
M  V30 64 1 31 60
M  V30 65 1 32 61
M  V30 66 1 35 62
M  V30 END BOND
M  V30 END CTAB
M  END
>  <Dataset>  (832) 
ChEMBL_Kinases

>  <Ligand_Instance>  (832) 
nan

>  <PDB_ID>  (832) 
nan

>  <Standardized_SMILES>  (832) 
CN(C)Cc1ccn2c(-c3ccnc(N(C)Cc4ccccc4)n3)c(-c3ccc(F)cc3)nc2c1

>  <Name>  (832) 
nan

>  <Pocket>  (832) 
nan

>  <ATP_Site>  (832) 
nan

>  <Peripheral>  (832) 
nan

>  <Num_H_Atoms_ProtBoundConf>  (832) 
nan

>  <Num_Resolved_Atoms>  (832) 
nan

>  <Num_Not_Resolved_Atoms>  (832) 
nan

$$$$
CHEMBL4763122
     RDKit          3D

  0  0  0  0  0  0  0  0  0  0999 V3000
M  V30 BEGIN CTAB
M  V30 COUNTS 37 39 0 0 0
M  V30 BEGIN ATOM
M  V30 1 C -0.497431 -4.422862 2.497138 0
M  V30 2 C -0.825771 -3.802994 1.176544 0
M  V30 3 C -1.157486 -2.360125 1.248869 0
M  V30 4 N -0.219793 -1.452558 0.848055 0
M  V30 5 C -0.507999 -0.145063 0.908921 0
M  V30 6 C 0.312869 0.900381 0.547959 0
M  V30 7 C 1.679583 0.923843 0.016057 0
M  V30 8 C 2.607804 0.094929 0.625245 0
M  V30 9 C 3.884222 0.137200 0.105100 0
M  V30 10 N 4.303401 0.906163 -0.933203 0
M  V30 11 C 3.384229 1.707056 -1.513857 0
M  V30 12 O 3.532038 2.591199 -2.584716 0
M  V30 13 C 4.826289 2.705688 -3.195302 0
M  V30 14 C 2.077947 1.729177 -1.056481 0
M  V30 15 C -0.399586 2.054921 0.780172 0
M  V30 16 N -1.624589 1.706313 1.271202 0
M  V30 17 N -1.687245 0.388105 1.347494 0
M  V30 18 C -2.637126 -0.498544 1.752331 0
M  V30 19 C -2.379616 -1.852775 1.704915 0
M  V30 20 O -3.241069 -2.862354 2.080217 0
M  V30 21 C -4.541639 -2.660301 2.578006 0
M  V30 22 H -0.884782 -3.889136 3.378777 0
M  V30 23 H -0.789091 -5.506547 2.537071 0
M  V30 24 H 0.618301 -4.425003 2.618508 0
M  V30 25 H 0.010021 -3.932625 0.459666 0
M  V30 26 H -1.687932 -4.331398 0.708798 0
M  V30 27 H 2.410309 -0.571980 1.463955 0
M  V30 28 H 4.631038 -0.492711 0.554019 0
M  V30 29 H 4.777804 3.422637 -4.031931 0
M  V30 30 H 5.594795 2.961603 -2.435716 0
M  V30 31 H 5.099262 1.709307 -3.603452 0
M  V30 32 H 1.253666 2.318214 -1.430824 0
M  V30 33 H -0.081794 3.081388 0.615863 0
M  V30 34 H -3.583825 -0.165968 2.108963 0
M  V30 35 H -4.498231 -2.904351 3.674855 0
M  V30 36 H -4.903452 -1.631877 2.513669 0
M  V30 37 H -5.257475 -3.385378 2.106083 0
M  V30 END ATOM
M  V30 BEGIN BOND
M  V30 1 1 1 2
M  V30 2 1 2 3
M  V30 3 2 3 4
M  V30 4 1 4 5
M  V30 5 2 5 6
M  V30 6 1 6 7
M  V30 7 2 7 8
M  V30 8 1 8 9
M  V30 9 2 9 10
M  V30 10 1 10 11
M  V30 11 1 11 12
M  V30 12 1 12 13
M  V30 13 2 11 14
M  V30 14 1 6 15
M  V30 15 2 15 16
M  V30 16 1 16 17
M  V30 17 1 17 18
M  V30 18 2 18 19
M  V30 19 1 19 20
M  V30 20 1 20 21
M  V30 21 1 19 3
M  V30 22 1 17 5
M  V30 23 1 14 7
M  V30 24 1 1 22
M  V30 25 1 1 23
M  V30 26 1 1 24
M  V30 27 1 2 25
M  V30 28 1 2 26
M  V30 29 1 8 27
M  V30 30 1 9 28
M  V30 31 1 13 29
M  V30 32 1 13 30
M  V30 33 1 13 31
M  V30 34 1 14 32
M  V30 35 1 15 33
M  V30 36 1 18 34
M  V30 37 1 21 35
M  V30 38 1 21 36
M  V30 39 1 21 37
M  V30 END BOND
M  V30 END CTAB
M  END
>  <Dataset>  (833) 
ChEMBL_Kinases

>  <Ligand_Instance>  (833) 
nan

>  <PDB_ID>  (833) 
nan

>  <Standardized_SMILES>  (833) 
CCc1nc2c(-c3ccnc(OC)c3)cnn2cc1OC

>  <Name>  (833) 
nan

>  <Pocket>  (833) 
nan

>  <ATP_Site>  (833) 
nan

>  <Peripheral>  (833) 
nan

>  <Num_H_Atoms_ProtBoundConf>  (833) 
nan

>  <Num_Resolved_Atoms>  (833) 
nan

>  <Num_Not_Resolved_Atoms>  (833) 
nan

$$$$
CHEMBL426526
     RDKit          3D

  0  0  0  0  0  0  0  0  0  0999 V3000
M  V30 BEGIN CTAB
M  V30 COUNTS 52 56 0 0 0
M  V30 BEGIN ATOM
M  V30 1 C 2.182308 -0.947402 0.542911 0
M  V30 2 C 2.026055 0.365350 -0.189551 0
M  V30 3 N 2.130778 1.436048 0.738186 0
M  V30 4 C 3.233689 2.059456 1.153966 0
M  V30 5 C 4.654141 1.922211 0.903674 0
M  V30 6 N 5.600796 2.712712 1.425213 0
M  V30 7 O 6.787586 2.407633 1.044480 0
M  V30 8 N 6.747143 1.384144 0.232312 0
M  V30 9 C 5.429349 1.090880 0.151311 0
M  V30 10 N 5.050889 0.019997 -0.635185 0
M  V30 11 N 2.793071 3.011904 1.990717 0
M  V30 12 C 1.471389 3.007480 2.114455 0
M  V30 13 C 0.558773 3.739146 2.812516 0
M  V30 14 N -0.750654 3.494791 2.733518 0
M  V30 15 C -1.245912 2.516023 1.963368 0
M  V30 16 O -2.627436 2.263222 1.883336 0
M  V30 17 C -3.015843 1.227703 1.045964 0
M  V30 18 C -3.229297 1.714327 -0.240368 0
M  V30 19 C -3.628050 0.877482 -1.277106 0
M  V30 20 C -3.813057 -0.461869 -1.013979 0
M  V30 21 C -3.592357 -0.908124 0.271713 0
M  V30 22 N -3.777069 -2.306581 0.569877 0
M  V30 23 C -2.513171 -2.932589 0.352091 0
M  V30 24 O -1.611621 -2.111104 -0.027128 0
M  V30 25 C -2.173909 -4.344353 0.513358 0
M  V30 26 C -0.857549 -4.657841 0.253651 0
M  V30 27 C -0.466534 -5.997589 0.387617 0
M  V30 28 C -1.417506 -6.929241 0.771098 0
M  V30 29 C -2.715887 -6.537579 1.013135 0
M  V30 30 C -3.148672 -5.238390 0.896104 0
M  V30 31 C -3.198023 -0.109115 1.319429 0
M  V30 32 C -0.325561 1.769350 1.252305 0
M  V30 33 C 1.029960 2.001541 1.316942 0
M  V30 34 H 2.753296 -0.817570 1.491742 0
M  V30 35 H 2.775853 -1.704046 -0.049289 0
M  V30 36 H 1.211321 -1.389890 0.832939 0
M  V30 37 H 2.582938 0.443131 -1.124821 0
M  V30 38 H 0.942174 0.349332 -0.566104 0
M  V30 39 H 4.748809 -0.809055 -1.173267 0
M  V30 40 H 5.201019 0.049932 -1.684774 0
M  V30 41 H 0.986256 4.526303 3.428899 0
M  V30 42 H -3.120767 2.742315 -0.586344 0
M  V30 43 H -3.807149 1.199878 -2.292402 0
M  V30 44 H -4.124455 -1.162916 -1.786170 0
M  V30 45 H -4.541018 -2.972851 0.889065 0
M  V30 46 H -0.099639 -3.950003 -0.046132 0
M  V30 47 H 0.542127 -6.274924 0.195541 0
M  V30 48 H -1.062219 -7.930742 0.856189 0
M  V30 49 H -3.370201 -7.345040 1.304845 0
M  V30 50 H -4.174953 -4.966335 1.093293 0
M  V30 51 H -3.009274 -0.375835 2.329597 0
M  V30 52 H -0.657593 0.952151 0.600954 0
M  V30 END ATOM
M  V30 BEGIN BOND
M  V30 1 1 1 2
M  V30 2 1 2 3
M  V30 3 1 3 4
M  V30 4 1 4 5
M  V30 5 2 5 6
M  V30 6 1 6 7
M  V30 7 1 7 8
M  V30 8 2 8 9
M  V30 9 1 9 10
M  V30 10 2 4 11
M  V30 11 1 11 12
M  V30 12 2 12 13
M  V30 13 1 13 14
M  V30 14 2 14 15
M  V30 15 1 15 16
M  V30 16 1 16 17
M  V30 17 2 17 18
M  V30 18 1 18 19
M  V30 19 2 19 20
M  V30 20 1 20 21
M  V30 21 1 21 22
M  V30 22 1 22 23
M  V30 23 2 23 24
M  V30 24 1 23 25
M  V30 25 2 25 26
M  V30 26 1 26 27
M  V30 27 2 27 28
M  V30 28 1 28 29
M  V30 29 2 29 30
M  V30 30 2 21 31
M  V30 31 1 15 32
M  V30 32 2 32 33
M  V30 33 1 33 3
M  V30 34 1 9 5
M  V30 35 1 33 12
M  V30 36 1 31 17
M  V30 37 1 30 25
M  V30 38 1 1 34
M  V30 39 1 1 35
M  V30 40 1 1 36
M  V30 41 1 2 37
M  V30 42 1 2 38
M  V30 43 1 10 39
M  V30 44 1 10 40
M  V30 45 1 13 41
M  V30 46 1 18 42
M  V30 47 1 19 43
M  V30 48 1 20 44
M  V30 49 1 22 45
M  V30 50 1 26 46
M  V30 51 1 27 47
M  V30 52 1 28 48
M  V30 53 1 29 49
M  V30 54 1 30 50
M  V30 55 1 31 51
M  V30 56 1 32 52
M  V30 END BOND
M  V30 END CTAB
M  END
>  <Dataset>  (834) 
ChEMBL_Kinases

>  <Ligand_Instance>  (834) 
nan

>  <PDB_ID>  (834) 
nan

>  <Standardized_SMILES>  (834) 
CCn1c(-c2nonc2N)nc2cnc(Oc3cccc(NC(=O)c4ccccc4)c3)cc21

>  <Name>  (834) 
nan

>  <Pocket>  (834) 
nan

>  <ATP_Site>  (834) 
nan

>  <Peripheral>  (834) 
nan

>  <Num_H_Atoms_ProtBoundConf>  (834) 
nan

>  <Num_Resolved_Atoms>  (834) 
nan

>  <Num_Not_Resolved_Atoms>  (834) 
nan

$$$$
CHEMBL426445
     RDKit          3D

  0  0  0  0  0  0  0  0  0  0999 V3000
M  V30 BEGIN CTAB
M  V30 COUNTS 39 43 0 0 0
M  V30 BEGIN ATOM
M  V30 1 O 3.270661 -7.490665 1.184918 0
M  V30 2 C 2.440614 -6.694383 1.681229 0
M  V30 3 O 1.671722 -7.060573 2.794226 0
M  V30 4 C 2.271206 -5.363588 1.091263 0
M  V30 5 C 3.053492 -5.052348 -0.004105 0
M  V30 6 C 2.894228 -3.783222 -0.569328 0
M  V30 7 C 1.983369 -2.867563 -0.049881 0
M  V30 8 C 1.874924 -1.624936 -0.658177 0
M  V30 9 C 0.972546 -0.712685 -0.146155 0
M  V30 10 N 0.780783 0.514424 -0.647756 0
M  V30 11 C -0.103628 1.388480 -0.133581 0
M  V30 12 C -0.296949 2.699468 -0.687152 0
M  V30 13 C -1.335519 3.331099 -1.323496 0
M  V30 14 C -1.168836 4.630566 -1.728327 0
M  V30 15 C 0.044919 5.261753 -1.480358 0
M  V30 16 S 1.031281 3.903311 -0.601671 0
M  V30 17 C -0.837590 1.018407 0.940584 0
M  V30 18 C -1.866771 1.877755 1.638139 0
M  V30 19 C -1.604105 2.171757 2.908567 0
M  V30 20 C -2.370790 2.916295 3.728463 0
M  V30 21 C -3.556884 3.371963 3.030264 0
M  V30 22 S -3.362999 2.639930 1.286811 0
M  V30 23 N -0.659144 -0.229096 1.469566 0
M  V30 24 C 0.231776 -1.099002 0.945223 0
M  V30 25 C 0.310091 -2.331053 1.582359 0
M  V30 26 C 1.227138 -3.239428 1.051007 0
M  V30 27 C 1.355227 -4.484897 1.638519 0
M  V30 28 H 1.874375 -7.897115 3.327874 0
M  V30 29 H 3.775621 -5.724347 -0.447714 0
M  V30 30 H 3.497892 -3.502193 -1.439051 0
M  V30 31 H 2.457149 -1.340590 -1.504569 0
M  V30 32 H -2.240238 2.764893 -1.476600 0
M  V30 33 H -1.935664 5.199007 -2.235140 0
M  V30 34 H 0.367357 6.223185 -1.701742 0
M  V30 35 H -0.769739 1.918345 3.590143 0
M  V30 36 H -2.598002 3.382103 4.664382 0
M  V30 37 H -4.564381 3.993790 3.100697 0
M  V30 38 H -0.285630 -2.586773 2.427687 0
M  V30 39 H 0.757465 -4.762880 2.498995 0
M  V30 END ATOM
M  V30 BEGIN BOND
M  V30 1 2 1 2
M  V30 2 1 2 3
M  V30 3 1 2 4
M  V30 4 2 4 5
M  V30 5 1 5 6
M  V30 6 2 6 7
M  V30 7 1 7 8
M  V30 8 2 8 9
M  V30 9 1 9 10
M  V30 10 2 10 11
M  V30 11 1 11 12
M  V30 12 2 12 13
M  V30 13 1 13 14
M  V30 14 2 14 15
M  V30 15 1 15 16
M  V30 16 1 11 17
M  V30 17 1 17 18
M  V30 18 2 18 19
M  V30 19 1 19 20
M  V30 20 2 20 21
M  V30 21 1 21 22
M  V30 22 2 17 23
M  V30 23 1 23 24
M  V30 24 2 24 25
M  V30 25 1 25 26
M  V30 26 2 26 27
M  V30 27 1 27 4
M  V30 28 1 26 7
M  V30 29 1 24 9
M  V30 30 1 16 12
M  V30 31 1 22 18
M  V30 32 1 3 28
M  V30 33 1 5 29
M  V30 34 1 6 30
M  V30 35 1 8 31
M  V30 36 1 13 32
M  V30 37 1 14 33
M  V30 38 1 15 34
M  V30 39 1 19 35
M  V30 40 1 20 36
M  V30 41 1 21 37
M  V30 42 1 25 38
M  V30 43 1 27 39
M  V30 END BOND
M  V30 END CTAB
M  END
>  <Dataset>  (835) 
ChEMBL_Kinases

>  <Ligand_Instance>  (835) 
nan

>  <PDB_ID>  (835) 
nan

>  <Standardized_SMILES>  (835) 
O=C(O)c1ccc2cc3nc(-c4cccs4)c(-c4cccs4)nc3cc2c1

>  <Name>  (835) 
nan

>  <Pocket>  (835) 
nan

>  <ATP_Site>  (835) 
nan

>  <Peripheral>  (835) 
nan

>  <Num_H_Atoms_ProtBoundConf>  (835) 
nan

>  <Num_Resolved_Atoms>  (835) 
nan

>  <Num_Not_Resolved_Atoms>  (835) 
nan

$$$$
CHEMBL426440
     RDKit          3D

  0  0  0  0  0  0  0  0  0  0999 V3000
M  V30 BEGIN CTAB
M  V30 COUNTS 47 50 0 0 0
M  V30 BEGIN ATOM
M  V30 1 C 0.951332 -2.817088 0.693964 0
M  V30 2 C 1.980300 -1.698093 0.959350 0
M  V30 3 N 1.810151 -0.720214 -0.054748 0
M  V30 4 C 2.454457 -0.850050 -1.253118 0
M  V30 5 C 3.356522 -1.887740 -1.740116 0
M  V30 6 N 3.826778 -3.019289 -1.186897 0
M  V30 7 O 4.610342 -3.666200 -1.965751 0
M  V30 8 N 4.716450 -3.015309 -3.085142 0
M  V30 9 C 3.944779 -1.891282 -2.986513 0
M  V30 10 N 3.835659 -0.939177 -4.057068 0
M  V30 11 N 2.130634 0.205001 -2.024990 0
M  V30 12 C 1.290696 1.020583 -1.358822 0
M  V30 13 C 0.712446 2.208781 -1.752739 0
M  V30 14 N -0.089727 2.800088 -0.832883 0
M  V30 15 C -0.268034 2.218243 0.362214 0
M  V30 16 C 0.297064 1.010733 0.811324 0
M  V30 17 C 0.047613 0.475009 2.149773 0
M  V30 18 N -0.874304 -0.627081 2.153871 0
M  V30 19 C -1.098423 -1.176099 3.465591 0
M  V30 20 C -2.515060 -1.115166 3.939595 0
M  V30 21 C -3.022601 0.288399 3.687150 0
M  V30 22 N -4.380802 0.450898 4.217531 0
M  V30 23 C -3.066783 0.488746 2.198620 0
M  V30 24 C -2.086713 -0.354431 1.432969 0
M  V30 25 C 1.108500 0.419185 -0.132193 0
M  V30 26 H 0.042423 -2.417135 0.211868 0
M  V30 27 H 1.363868 -3.583575 0.013042 0
M  V30 28 H 0.690774 -3.357260 1.625900 0
M  V30 29 H 2.964093 -2.246642 0.866842 0
M  V30 30 H 1.762760 -1.436442 1.983371 0
M  V30 31 H 4.244185 0.005914 -3.913503 0
M  V30 32 H 3.378748 -1.106839 -4.978958 0
M  V30 33 H 0.911172 2.596471 -2.721128 0
M  V30 34 H -0.936472 2.779510 1.033855 0
M  V30 35 H -0.581658 1.294536 2.653853 0
M  V30 36 H 0.887408 0.426031 2.837294 0
M  V30 37 H -0.814934 -2.260527 3.389884 0
M  V30 38 H -0.450690 -0.712421 4.224022 0
M  V30 39 H -2.502411 -1.371988 5.021640 0
M  V30 40 H -3.185806 -1.814260 3.365696 0
M  V30 41 H -2.374825 1.010923 4.226041 0
M  V30 42 H -4.279817 0.484712 5.263827 0
M  V30 43 H -4.727329 1.394671 3.934014 0
M  V30 44 H -3.009522 1.570085 1.937465 0
M  V30 45 H -4.090689 0.164783 1.858670 0
M  V30 46 H -1.838126 0.162377 0.497825 0
M  V30 47 H -2.534339 -1.335643 1.149104 0
M  V30 END ATOM
M  V30 BEGIN BOND
M  V30 1 1 1 2
M  V30 2 1 2 3
M  V30 3 1 3 4
M  V30 4 1 4 5
M  V30 5 2 5 6
M  V30 6 1 6 7
M  V30 7 1 7 8
M  V30 8 2 8 9
M  V30 9 1 9 10
M  V30 10 2 4 11
M  V30 11 1 11 12
M  V30 12 2 12 13
M  V30 13 1 13 14
M  V30 14 2 14 15
M  V30 15 1 15 16
M  V30 16 1 16 17
M  V30 17 1 17 18
M  V30 18 1 18 19
M  V30 19 1 19 20
M  V30 20 1 20 21
M  V30 21 1 21 22
M  V30 22 1 21 23
M  V30 23 1 23 24
M  V30 24 2 16 25
M  V30 25 1 25 3
M  V30 26 1 9 5
M  V30 27 1 25 12
M  V30 28 1 24 18
M  V30 29 1 1 26
M  V30 30 1 1 27
M  V30 31 1 1 28
M  V30 32 1 2 29
M  V30 33 1 2 30
M  V30 34 1 10 31
M  V30 35 1 10 32
M  V30 36 1 13 33
M  V30 37 1 15 34
M  V30 38 1 17 35
M  V30 39 1 17 36
M  V30 40 1 19 37
M  V30 41 1 19 38
M  V30 42 1 20 39
M  V30 43 1 20 40
M  V30 44 1 21 41
M  V30 45 1 22 42
M  V30 46 1 22 43
M  V30 47 1 23 44
M  V30 48 1 23 45
M  V30 49 1 24 46
M  V30 50 1 24 47
M  V30 END BOND
M  V30 END CTAB
M  END
>  <Dataset>  (836) 
ChEMBL_Kinases

>  <Ligand_Instance>  (836) 
nan

>  <PDB_ID>  (836) 
nan

>  <Standardized_SMILES>  (836) 
CCn1c(-c2nonc2N)nc2cncc(CN3CCC(N)CC3)c21

>  <Name>  (836) 
nan

>  <Pocket>  (836) 
nan

>  <ATP_Site>  (836) 
nan

>  <Peripheral>  (836) 
nan

>  <Num_H_Atoms_ProtBoundConf>  (836) 
nan

>  <Num_Resolved_Atoms>  (836) 
nan

>  <Num_Not_Resolved_Atoms>  (836) 
nan

$$$$
CHEMBL4763132
     RDKit          3D

  0  0  0  0  0  0  0  0  0  0999 V3000
M  V30 BEGIN CTAB
M  V30 COUNTS 34 36 0 0 0
M  V30 BEGIN ATOM
M  V30 1 C 0.490265 -6.373100 4.152856 0
M  V30 2 O -0.024242 -5.061649 4.287307 0
M  V30 3 C 0.178946 -4.059586 3.350231 0
M  V30 4 C 0.908199 -4.262964 2.196607 0
M  V30 5 C 1.100235 -3.252032 1.273335 0
M  V30 6 C 0.555930 -2.025630 1.509444 0
M  V30 7 C 0.656767 -0.825453 0.636519 0
M  V30 8 C 1.331308 -0.740169 -0.594532 0
M  V30 9 C 1.271350 0.476514 -1.196056 0
M  V30 10 N 1.831954 0.819684 -2.377152 0
M  V30 11 C 1.717734 2.043695 -2.888531 0
M  V30 12 N 1.040899 3.080907 -2.305853 0
M  V30 13 C 0.462067 2.773110 -1.113126 0
M  V30 14 S -0.477163 3.949206 -0.149071 0
M  V30 15 C -2.198915 3.857887 -0.665556 0
M  V30 16 C -2.335930 4.327569 -2.052203 0
M  V30 17 O -2.201900 3.463726 -2.956599 0
M  V30 18 O -2.568423 5.395708 -2.893756 0
M  V30 19 C 0.589643 1.518853 -0.607671 0
M  V30 20 S -0.014405 0.769026 0.885435 0
M  V30 21 C -0.172988 -1.824065 2.663725 0
M  V30 22 C -0.376378 -2.818762 3.596985 0
M  V30 23 F -1.096937 -2.587102 4.719899 0
M  V30 24 H 1.505466 -6.416721 3.726949 0
M  V30 25 H -0.210202 -7.022048 3.571033 0
M  V30 26 H 0.568294 -6.803230 5.174887 0
M  V30 27 H 1.350572 -5.220619 1.982743 0
M  V30 28 H 1.655325 -3.327401 0.349334 0
M  V30 29 H 1.833978 -1.623790 -0.960984 0
M  V30 30 H 2.212621 2.220605 -3.858915 0
M  V30 31 H -2.865796 4.495132 -0.027192 0
M  V30 32 H -2.601872 2.817919 -0.586372 0
M  V30 33 H -3.483130 5.548255 -3.292385 0
M  V30 34 H -0.634877 -0.856961 2.906905 0
M  V30 END ATOM
M  V30 BEGIN BOND
M  V30 1 1 1 2
M  V30 2 1 2 3
M  V30 3 2 3 4
M  V30 4 1 4 5
M  V30 5 2 5 6
M  V30 6 1 6 7
M  V30 7 2 7 8
M  V30 8 1 8 9
M  V30 9 2 9 10
M  V30 10 1 10 11
M  V30 11 2 11 12
M  V30 12 1 12 13
M  V30 13 1 13 14
M  V30 14 1 14 15
M  V30 15 1 15 16
M  V30 16 2 16 17
M  V30 17 1 16 18
M  V30 18 2 13 19
M  V30 19 1 19 20
M  V30 20 1 6 21
M  V30 21 2 21 22
M  V30 22 1 22 23
M  V30 23 1 22 3
M  V30 24 1 20 7
M  V30 25 1 19 9
M  V30 26 1 1 24
M  V30 27 1 1 25
M  V30 28 1 1 26
M  V30 29 1 4 27
M  V30 30 1 5 28
M  V30 31 1 8 29
M  V30 32 1 11 30
M  V30 33 1 15 31
M  V30 34 1 15 32
M  V30 35 1 18 33
M  V30 36 1 21 34
M  V30 END BOND
M  V30 END CTAB
M  END
>  <Dataset>  (837) 
ChEMBL_Kinases

>  <Ligand_Instance>  (837) 
nan

>  <PDB_ID>  (837) 
nan

>  <Standardized_SMILES>  (837) 
COc1ccc(-c2cc3ncnc(SCC(=O)O)c3s2)cc1F

>  <Name>  (837) 
nan

>  <Pocket>  (837) 
nan

>  <ATP_Site>  (837) 
nan

>  <Peripheral>  (837) 
nan

>  <Num_H_Atoms_ProtBoundConf>  (837) 
nan

>  <Num_Resolved_Atoms>  (837) 
nan

>  <Num_Not_Resolved_Atoms>  (837) 
nan

$$$$
CHEMBL4763182
     RDKit          3D

  0  0  0  0  0  0  0  0  0  0999 V3000
M  V30 BEGIN CTAB
M  V30 COUNTS 35 37 0 0 0
M  V30 BEGIN ATOM
M  V30 1 C 0.533064 0.179907 4.419027 0
M  V30 2 C 0.560230 -0.378934 3.028344 0
M  V30 3 N 0.713526 -1.652057 2.614620 0
M  V30 4 N 0.675799 -1.700457 1.286027 0
M  V30 5 C 0.803177 -2.878231 0.467580 0
M  V30 6 C 0.115901 -4.002252 0.868238 0
M  V30 7 C 0.252318 -5.135469 0.060454 0
M  V30 8 N 1.019319 -5.127679 -1.056040 0
M  V30 9 C 1.677572 -3.990405 -1.407183 0
M  V30 10 N 1.573016 -2.881184 -0.658832 0
M  V30 11 C 0.496402 -0.451477 0.817533 0
M  V30 12 C 0.417372 0.426153 1.905959 0
M  V30 13 C 0.221540 1.881914 1.760251 0
M  V30 14 O -0.084785 2.579696 2.775790 0
M  V30 15 C 0.425069 2.358855 0.345023 0
M  V30 16 C -0.403307 1.421415 -0.508304 0
M  V30 17 C -1.776875 1.198807 0.109114 0
M  V30 18 C -0.601583 1.903220 -1.907868 0
M  V30 19 C 0.377497 0.105294 -0.565404 0
M  V30 20 Br -0.569934 -1.124084 -1.741083 0
M  V30 21 H 1.221695 1.015242 4.545873 0
M  V30 22 H -0.496769 0.583800 4.645727 0
M  V30 23 H 0.686153 -0.649192 5.117679 0
M  V30 24 H -0.498075 -4.007182 1.762653 0
M  V30 25 H -0.265283 -6.032514 0.335041 0
M  V30 26 H 2.296434 -3.997012 -2.314966 0
M  V30 27 H 0.187997 3.414224 0.210000 0
M  V30 28 H 1.499004 2.152011 0.125065 0
M  V30 29 H -2.056027 2.168247 0.569989 0
M  V30 30 H -1.812013 0.362395 0.816522 0
M  V30 31 H -2.484183 0.954496 -0.707672 0
M  V30 32 H -1.490501 2.590217 -1.890282 0
M  V30 33 H 0.236293 2.447000 -2.336438 0
M  V30 34 H -0.937024 1.038264 -2.517321 0
M  V30 35 H 1.381142 0.355516 -0.945825 0
M  V30 END ATOM
M  V30 BEGIN BOND
M  V30 1 1 1 2
M  V30 2 2 2 3
M  V30 3 1 3 4
M  V30 4 1 4 5
M  V30 5 2 5 6
M  V30 6 1 6 7
M  V30 7 2 7 8
M  V30 8 1 8 9
M  V30 9 2 9 10
M  V30 10 1 4 11
M  V30 11 2 11 12
M  V30 12 1 12 13
M  V30 13 2 13 14
M  V30 14 1 13 15
M  V30 15 1 15 16
M  V30 16 1 16 17
M  V30 17 1 16 18
M  V30 18 1 16 19
M  V30 19 1 19 20
M  V30 20 1 12 2
M  V30 21 1 10 5
M  V30 22 1 19 11
M  V30 23 1 1 21
M  V30 24 1 1 22
M  V30 25 1 1 23
M  V30 26 1 6 24
M  V30 27 1 7 25
M  V30 28 1 9 26
M  V30 29 1 15 27
M  V30 30 1 15 28
M  V30 31 1 17 29
M  V30 32 1 17 30
M  V30 33 1 17 31
M  V30 34 1 18 32
M  V30 35 1 18 33
M  V30 36 1 18 34
M  V30 37 1 19 35
M  V30 END BOND
M  V30 END CTAB
M  END
>  <Dataset>  (838) 
ChEMBL_Kinases

>  <Ligand_Instance>  (838) 
nan

>  <PDB_ID>  (838) 
nan

>  <Standardized_SMILES>  (838) 
Cc1nn(-c2ccncn2)c2c1C(=O)CC(C)(C)C2Br

>  <Name>  (838) 
nan

>  <Pocket>  (838) 
nan

>  <ATP_Site>  (838) 
nan

>  <Peripheral>  (838) 
nan

>  <Num_H_Atoms_ProtBoundConf>  (838) 
nan

>  <Num_Resolved_Atoms>  (838) 
nan

>  <Num_Not_Resolved_Atoms>  (838) 
nan

$$$$
CHEMBL426140
     RDKit          3D

  0  0  0  0  0  0  0  0  0  0999 V3000
M  V30 BEGIN CTAB
M  V30 COUNTS 74 79 0 0 0
M  V30 BEGIN ATOM
M  V30 1 C -1.817723 -1.091587 4.791807 0
M  V30 2 C -2.173446 0.346887 4.524061 0
M  V30 3 C -3.264499 0.908363 3.901999 0
M  V30 4 C -3.041238 2.288243 3.954997 0
M  V30 5 C -1.820462 2.481366 4.610669 0
M  V30 6 C -1.210601 3.738414 4.887439 0
M  V30 7 C -0.321310 4.507872 4.029809 0
M  V30 8 C -1.050679 4.890088 2.698765 0
M  V30 9 C -0.151388 5.883523 4.710534 0
M  V30 10 C 1.023233 4.022231 3.618979 0
M  V30 11 C 1.683689 5.195596 2.850300 0
M  V30 12 O 2.006221 6.263749 3.487360 0
M  V30 13 N 1.894338 5.012012 1.472480 0
M  V30 14 C 1.489192 3.641941 1.306467 0
M  V30 15 C 1.635505 3.044124 0.045715 0
M  V30 16 C 1.331897 1.724611 -0.067702 0
M  V30 17 C 0.906517 1.055362 1.031346 0
M  V30 18 C 0.643933 -0.376500 0.816905 0
M  V30 19 C -0.336219 -1.070071 1.487221 0
M  V30 20 N -0.538691 -2.375366 1.292607 0
M  V30 21 C 0.233031 -3.016557 0.423660 0
M  V30 22 C 1.243893 -2.488511 -0.323034 0
M  V30 23 O 2.126394 -2.928195 -1.237852 0
M  V30 24 C 2.282570 -4.185052 -1.775669 0
M  V30 25 C 1.060802 -4.591444 -2.563336 0 CFG=1
M  V30 26 N 0.896386 -3.608186 -3.620085 0
M  V30 27 C 1.195705 -6.005545 -3.097641 0
M  V30 28 C -0.012120 -6.376193 -3.867651 0
M  V30 29 C -1.022179 -7.148055 -3.286431 0
M  V30 30 N -2.008823 -7.321380 -4.182967 0
M  V30 31 C -1.702782 -6.698208 -5.342543 0
M  V30 32 C -2.360650 -6.579265 -6.547855 0
M  V30 33 C -1.705402 -5.852143 -7.515362 0
M  V30 34 C -0.468805 -5.258713 -7.344879 0
M  V30 35 C 0.135563 -5.412951 -6.121619 0
M  V30 36 C -0.461064 -6.120206 -5.122824 0
M  V30 37 C 1.415260 -1.108542 -0.078104 0
M  V30 38 C 0.786325 1.710668 2.232818 0
M  V30 39 C 1.053848 3.033106 2.497386 0
M  V30 40 O -1.389965 1.302254 4.902009 0
M  V30 41 H -2.582109 -1.766287 4.352068 0
M  V30 42 H -0.849320 -1.366523 4.366073 0
M  V30 43 H -1.811352 -1.211066 5.908944 0
M  V30 44 H -4.074180 0.328732 3.490033 0
M  V30 45 H -3.732111 3.017590 3.542432 0
M  V30 46 H -2.049690 4.474655 5.192114 0
M  V30 47 H -0.673419 3.679621 5.926726 0
M  V30 48 H -1.923214 5.538630 2.917464 0
M  V30 49 H -1.429636 3.989361 2.193004 0
M  V30 50 H -0.360227 5.482339 2.065353 0
M  V30 51 H -1.032389 6.003329 5.378220 0
M  V30 52 H 0.721750 5.896049 5.387193 0
M  V30 53 H -0.185275 6.713223 3.977643 0
M  V30 54 H 1.698199 3.766745 4.434306 0
M  V30 55 H 2.252684 5.756874 0.854369 0
M  V30 56 H 1.971949 3.553186 -0.848966 0
M  V30 57 H 1.431740 1.256998 -1.022753 0
M  V30 58 H -0.899321 -0.445057 2.153692 0
M  V30 59 H 0.065971 -4.062837 0.298181 0
M  V30 60 H 2.433113 -4.891260 -0.900073 0
M  V30 61 H 3.200037 -4.213789 -2.423592 0
M  V30 62 H 0.193183 -4.612220 -1.890828 0
M  V30 63 H 0.214568 -2.865909 -3.408348 0
M  V30 64 H 1.809777 -3.290223 -4.004602 0
M  V30 65 H 1.376786 -6.670470 -2.246348 0
M  V30 66 H 2.092266 -5.992824 -3.758350 0
M  V30 67 H -1.074445 -7.570564 -2.291409 0
M  V30 68 H -2.905941 -7.851730 -4.058321 0
M  V30 69 H -3.312118 -7.043858 -6.658697 0
M  V30 70 H -2.201325 -5.739259 -8.482905 0
M  V30 71 H -0.052678 -4.710490 -8.182957 0
M  V30 72 H 1.092468 -4.961732 -5.996103 0
M  V30 73 H 2.190233 -0.527238 -0.589303 0
M  V30 74 H 0.453983 1.083061 3.037421 0
M  V30 END ATOM
M  V30 BEGIN BOND
M  V30 1 1 1 2
M  V30 2 2 2 3
M  V30 3 1 3 4
M  V30 4 2 4 5
M  V30 5 1 5 6
M  V30 6 1 6 7
M  V30 7 1 7 8
M  V30 8 1 7 9
M  V30 9 1 7 10
M  V30 10 1 10 11
M  V30 11 2 11 12
M  V30 12 1 11 13
M  V30 13 1 13 14
M  V30 14 2 14 15
M  V30 15 1 15 16
M  V30 16 2 16 17
M  V30 17 1 17 18
M  V30 18 2 18 19
M  V30 19 1 19 20
M  V30 20 2 20 21
M  V30 21 1 21 22
M  V30 22 1 22 23
M  V30 23 1 23 24
M  V30 24 1 24 25
M  V30 25 1 25 26
M  V30 26 1 25 27
M  V30 27 1 27 28
M  V30 28 2 28 29
M  V30 29 1 29 30
M  V30 30 1 30 31
M  V30 31 2 31 32
M  V30 32 1 32 33
M  V30 33 2 33 34
M  V30 34 1 34 35
M  V30 35 2 35 36
M  V30 36 2 22 37
M  V30 37 1 17 38
M  V30 38 2 38 39
M  V30 39 1 5 40
M  V30 40 1 40 2
M  V30 41 1 39 10
M  V30 42 1 39 14
M  V30 43 1 37 18
M  V30 44 1 36 28
M  V30 45 1 36 31
M  V30 46 1 1 41
M  V30 47 1 1 42
M  V30 48 1 1 43
M  V30 49 1 3 44
M  V30 50 1 4 45
M  V30 51 1 6 46
M  V30 52 1 6 47
M  V30 53 1 8 48
M  V30 54 1 8 49
M  V30 55 1 8 50
M  V30 56 1 9 51
M  V30 57 1 9 52
M  V30 58 1 9 53
M  V30 59 1 10 54
M  V30 60 1 13 55
M  V30 61 1 15 56
M  V30 62 1 16 57
M  V30 63 1 19 58
M  V30 64 1 21 59
M  V30 65 1 24 60
M  V30 66 1 24 61
M  V30 67 1 25 62 CFG=1
M  V30 68 1 26 63
M  V30 69 1 26 64
M  V30 70 1 27 65
M  V30 71 1 27 66
M  V30 72 1 29 67
M  V30 73 1 30 68
M  V30 74 1 32 69
M  V30 75 1 33 70
M  V30 76 1 34 71
M  V30 77 1 35 72
M  V30 78 1 37 73
M  V30 79 1 38 74
M  V30 END BOND
M  V30 END CTAB
M  END
>  <Dataset>  (839) 
ChEMBL_Kinases

>  <Ligand_Instance>  (839) 
nan

>  <PDB_ID>  (839) 
nan

>  <Standardized_SMILES>  (839) 
Cc1ccc(CC(C)(C)C2C(=O)Nc3ccc(-c4cncc(OC[C@@H](N)Cc5c[nH]c6ccccc56)c4)cc32)o1

>  <Name>  (839) 
nan

>  <Pocket>  (839) 
nan

>  <ATP_Site>  (839) 
nan

>  <Peripheral>  (839) 
nan

>  <Num_H_Atoms_ProtBoundConf>  (839) 
nan

>  <Num_Resolved_Atoms>  (839) 
nan

>  <Num_Not_Resolved_Atoms>  (839) 
nan

$$$$
CHEMBL424809
     RDKit          3D

  0  0  0  0  0  0  0  0  0  0999 V3000
M  V30 BEGIN CTAB
M  V30 COUNTS 39 42 0 0 0
M  V30 BEGIN ATOM
M  V30 1 O 1.554194 -0.791842 4.889539 0
M  V30 2 C 1.921527 -0.643315 3.677997 0
M  V30 3 N 3.309809 -0.846015 3.414616 0
M  V30 4 C 3.505844 -0.633851 2.021984 0
M  V30 5 O 4.553822 -0.697556 1.312527 0
M  V30 6 C 2.194980 -0.302191 1.488729 0
M  V30 7 C 1.906927 0.037182 0.104593 0
M  V30 8 C 2.212792 -0.621606 -1.080290 0
M  V30 9 N 1.755294 0.126649 -2.105397 0
M  V30 10 C 1.165998 1.246430 -1.623368 0
M  V30 11 C 0.564584 2.307094 -2.268044 0
M  V30 12 C 0.026216 3.373341 -1.542895 0
M  V30 13 C 0.108818 3.343519 -0.165180 0
M  V30 14 C 0.713486 2.275327 0.480930 0
M  V30 15 C 1.247203 1.216647 -0.227995 0
M  V30 16 C 1.253324 -0.298987 2.412140 0
M  V30 17 N -0.148745 -0.091572 2.500168 0
M  V30 18 C -0.977205 -0.968557 1.705850 0
M  V30 19 C -1.568116 -0.685412 0.487677 0
M  V30 20 C -2.318075 -1.615538 -0.171142 0
M  V30 21 C -2.514501 -2.890552 0.365732 0
M  V30 22 C -1.936095 -3.204394 1.582579 0
M  V30 23 C -2.208417 -4.579040 2.066142 0
M  V30 24 F -3.546017 -4.643546 2.493999 0
M  V30 25 F -2.136228 -5.528230 1.039587 0
M  V30 26 F -1.405431 -4.978009 3.095879 0
M  V30 27 C -1.184903 -2.250885 2.227818 0
M  V30 28 H 4.165166 -1.099925 3.981303 0
M  V30 29 H 2.725087 -1.562064 -1.057125 0
M  V30 30 H 1.853952 -0.144020 -3.125831 0
M  V30 31 H 0.469039 2.384814 -3.345320 0
M  V30 32 H -0.459133 4.237689 -1.957396 0
M  V30 33 H -0.298570 4.153989 0.460460 0
M  V30 34 H 0.757627 2.310936 1.557051 0
M  V30 35 H -0.615519 0.641903 3.084639 0
M  V30 36 H -1.422118 0.284424 0.094373 0
M  V30 37 H -2.740451 -1.288662 -1.119871 0
M  V30 38 H -3.109277 -3.584253 -0.184803 0
M  V30 39 H -0.789922 -2.630729 3.174460 0
M  V30 END ATOM
M  V30 BEGIN BOND
M  V30 1 2 1 2
M  V30 2 1 2 3
M  V30 3 1 3 4
M  V30 4 2 4 5
M  V30 5 1 4 6
M  V30 6 1 6 7
M  V30 7 2 7 8
M  V30 8 1 8 9
M  V30 9 1 9 10
M  V30 10 2 10 11
M  V30 11 1 11 12
M  V30 12 2 12 13
M  V30 13 1 13 14
M  V30 14 2 14 15
M  V30 15 2 6 16
M  V30 16 1 16 17
M  V30 17 1 17 18
M  V30 18 2 18 19
M  V30 19 1 19 20
M  V30 20 2 20 21
M  V30 21 1 21 22
M  V30 22 1 22 23
M  V30 23 1 23 24
M  V30 24 1 23 25
M  V30 25 1 23 26
M  V30 26 2 22 27
M  V30 27 1 16 2
M  V30 28 1 27 18
M  V30 29 1 15 7
M  V30 30 1 15 10
M  V30 31 1 3 28
M  V30 32 1 8 29
M  V30 33 1 9 30
M  V30 34 1 11 31
M  V30 35 1 12 32
M  V30 36 1 13 33
M  V30 37 1 14 34
M  V30 38 1 17 35
M  V30 39 1 19 36
M  V30 40 1 20 37
M  V30 41 1 21 38
M  V30 42 1 27 39
M  V30 END BOND
M  V30 END CTAB
M  END
>  <Dataset>  (840) 
ChEMBL_Kinases

>  <Ligand_Instance>  (840) 
nan

>  <PDB_ID>  (840) 
nan

>  <Standardized_SMILES>  (840) 
O=C1NC(=O)C(c2c[nH]c3ccccc23)=C1Nc1cccc(C(F)(F)F)c1

>  <Name>  (840) 
nan

>  <Pocket>  (840) 
nan

>  <ATP_Site>  (840) 
nan

>  <Peripheral>  (840) 
nan

>  <Num_H_Atoms_ProtBoundConf>  (840) 
nan

>  <Num_Resolved_Atoms>  (840) 
nan

>  <Num_Not_Resolved_Atoms>  (840) 
nan

$$$$
CHEMBL426126
     RDKit          3D

  0  0  0  0  0  0  0  0  0  0999 V3000
M  V30 BEGIN CTAB
M  V30 COUNTS 51 54 0 0 0
M  V30 BEGIN ATOM
M  V30 1 N -0.778639 0.851873 5.169064 0
M  V30 2 C -1.722924 -0.104999 4.731803 0
M  V30 3 O -2.170859 -0.942596 5.553199 0
M  V30 4 C -2.141086 -0.078654 3.336089 0
M  V30 5 C -3.057070 -1.012335 2.916815 0
M  V30 6 C -3.472059 -1.013308 1.605466 0
M  V30 7 C -2.995249 -0.102854 0.697922 0
M  V30 8 C -3.486912 -0.169675 -0.670490 0
M  V30 9 C -4.746402 -0.574080 -1.053999 0
M  V30 10 N -5.067113 -0.587856 -2.369509 0
M  V30 11 C -4.158997 -0.206619 -3.321518 0
M  V30 12 C -2.856867 0.214986 -2.973369 0
M  V30 13 O -2.256384 0.508313 -4.157576 0
M  V30 14 C -0.949206 0.952829 -4.347827 0
M  V30 15 C 0.064785 -0.035998 -3.895027 0 CFG=1
M  V30 16 N -0.128512 -1.257850 -4.662646 0
M  V30 17 C 1.495283 0.482544 -4.076228 0
M  V30 18 C 2.462346 -0.567398 -3.594761 0
M  V30 19 C 3.295135 -1.495600 -4.183649 0
M  V30 20 N 3.927862 -2.170580 -3.206914 0
M  V30 21 C 3.550014 -1.730171 -2.017002 0
M  V30 22 C 3.938482 -2.130278 -0.755084 0
M  V30 23 C 3.404404 -1.517666 0.368175 0
M  V30 24 C 2.475023 -0.498309 0.197921 0
M  V30 25 C 2.123196 -0.139491 -1.088372 0
M  V30 26 C 2.629377 -0.722284 -2.231594 0
M  V30 27 C -2.601289 0.204904 -1.630604 0
M  V30 28 C -2.076776 0.829378 1.129441 0
M  V30 29 C -1.653334 0.835240 2.453750 0
M  V30 30 H -0.038456 1.500134 5.476027 0
M  V30 31 H -1.019428 1.816393 5.480995 0
M  V30 32 H -3.398367 -1.700775 3.662865 0
M  V30 33 H -4.198732 -1.780496 1.351586 0
M  V30 34 H -5.427443 -0.865704 -0.269043 0
M  V30 35 H -4.677597 -0.314986 -4.283483 0
M  V30 36 H -0.739829 1.215187 -5.413138 0
M  V30 37 H -0.807238 1.924734 -3.779287 0
M  V30 38 H -0.012872 -0.307346 -2.855933 0
M  V30 39 H -1.172270 -1.364426 -4.780644 0
M  V30 40 H 0.319367 -1.237882 -5.586516 0
M  V30 41 H 1.687184 0.586669 -5.163223 0
M  V30 42 H 1.606149 1.413401 -3.513954 0
M  V30 43 H 3.313285 -1.537299 -5.267506 0
M  V30 44 H 4.607643 -2.921599 -3.442422 0
M  V30 45 H 4.653749 -2.912949 -0.556715 0
M  V30 46 H 3.625268 -1.738266 1.408935 0
M  V30 47 H 2.018385 0.022870 1.039217 0
M  V30 48 H 1.396570 0.665199 -1.184995 0
M  V30 49 H -1.615365 0.544031 -1.443701 0
M  V30 50 H -1.689362 1.556695 0.415618 0
M  V30 51 H -0.929462 1.587352 2.747604 0
M  V30 END ATOM
M  V30 BEGIN BOND
M  V30 1 1 1 2
M  V30 2 2 2 3
M  V30 3 1 2 4
M  V30 4 2 4 5
M  V30 5 1 5 6
M  V30 6 2 6 7
M  V30 7 1 7 8
M  V30 8 2 8 9
M  V30 9 1 9 10
M  V30 10 2 10 11
M  V30 11 1 11 12
M  V30 12 1 12 13
M  V30 13 1 13 14
M  V30 14 1 14 15
M  V30 15 1 15 16
M  V30 16 1 15 17
M  V30 17 1 17 18
M  V30 18 2 18 19
M  V30 19 1 19 20
M  V30 20 1 20 21
M  V30 21 2 21 22
M  V30 22 1 22 23
M  V30 23 2 23 24
M  V30 24 1 24 25
M  V30 25 2 25 26
M  V30 26 2 12 27
M  V30 27 1 7 28
M  V30 28 2 28 29
M  V30 29 1 29 4
M  V30 30 1 27 8
M  V30 31 1 26 18
M  V30 32 1 26 21
M  V30 33 1 1 30
M  V30 34 1 1 31
M  V30 35 1 5 32
M  V30 36 1 6 33
M  V30 37 1 9 34
M  V30 38 1 11 35
M  V30 39 1 14 36
M  V30 40 1 14 37
M  V30 41 1 15 38 CFG=1
M  V30 42 1 16 39
M  V30 43 1 16 40
M  V30 44 1 17 41
M  V30 45 1 17 42
M  V30 46 1 19 43
M  V30 47 1 20 44
M  V30 48 1 22 45
M  V30 49 1 23 46
M  V30 50 1 24 47
M  V30 51 1 25 48
M  V30 52 1 27 49
M  V30 53 1 28 50
M  V30 54 1 29 51
M  V30 END BOND
M  V30 END CTAB
M  END
>  <Dataset>  (841) 
ChEMBL_Kinases

>  <Ligand_Instance>  (841) 
nan

>  <PDB_ID>  (841) 
nan

>  <Standardized_SMILES>  (841) 
NC(=O)c1ccc(-c2cncc(OC[C@@H](N)Cc3c[nH]c4ccccc34)c2)cc1

>  <Name>  (841) 
nan

>  <Pocket>  (841) 
nan

>  <ATP_Site>  (841) 
nan

>  <Peripheral>  (841) 
nan

>  <Num_H_Atoms_ProtBoundConf>  (841) 
nan

>  <Num_Resolved_Atoms>  (841) 
nan

>  <Num_Not_Resolved_Atoms>  (841) 
nan

$$$$
CHEMBL426122
     RDKit          3D

  0  0  0  0  0  0  0  0  0  0999 V3000
M  V30 BEGIN CTAB
M  V30 COUNTS 50 53 0 0 0
M  V30 BEGIN ATOM
M  V30 1 C 1.595730 -4.410506 1.494511 0
M  V30 2 N 2.663695 -4.544673 0.591334 0
M  V30 3 C 3.987039 -4.419140 1.031435 0
M  V30 4 C 4.755351 -3.416959 0.170348 0
M  V30 5 N 3.732928 -2.602933 -0.511061 0
M  V30 6 C 3.382993 -1.227915 -0.288114 0
M  V30 7 C 4.241738 -0.180521 -0.066710 0
M  V30 8 C 3.716735 1.081868 0.176233 0
M  V30 9 C 2.344094 1.230335 0.186136 0
M  V30 10 C 1.450873 0.224449 -0.026830 0
M  V30 11 C 0.025786 0.362526 0.032412 0
M  V30 12 O -0.607757 -0.522594 -0.640781 0
M  V30 13 C -0.865579 1.283663 0.691886 0
M  V30 14 C -0.579445 2.341486 1.567020 0
M  V30 15 N -1.742642 2.887560 1.933045 0
M  V30 16 N -2.749947 2.259384 1.358786 0
M  V30 17 C -4.122743 2.577515 1.537270 0
M  V30 18 C -4.845923 1.504060 2.068502 0
M  V30 19 C -6.199125 1.608992 2.321935 0
M  V30 20 C -6.834873 2.821798 2.033372 0
M  V30 21 F -8.162431 2.896188 2.291154 0
M  V30 22 C -6.096377 3.874546 1.505900 0
M  V30 23 C -4.745978 3.753597 1.258565 0
M  V30 24 C -2.236494 1.262387 0.585170 0
M  V30 25 N -3.107084 0.392267 -0.170976 0
M  V30 26 C 2.024788 -1.015750 -0.266577 0
M  V30 27 C 3.088174 -3.441557 -1.514097 0
M  V30 28 C 2.404937 -4.594233 -0.790192 0
M  V30 29 H 1.877973 -4.806796 2.492045 0
M  V30 30 H 1.390508 -3.326379 1.652848 0
M  V30 31 H 0.671352 -4.961263 1.178713 0
M  V30 32 H 4.515727 -5.412148 1.041111 0
M  V30 33 H 3.987748 -4.023264 2.088379 0
M  V30 34 H 5.347741 -3.986779 -0.564333 0
M  V30 35 H 5.429046 -2.810470 0.793500 0
M  V30 36 H 5.291421 -0.425126 -0.100384 0
M  V30 37 H 4.434285 1.877196 0.345203 0
M  V30 38 H 2.045667 2.246509 0.370892 0
M  V30 39 H 0.370030 2.689533 1.918620 0
M  V30 40 H -4.416552 0.520687 2.322527 0
M  V30 41 H -6.795090 0.806072 2.731645 0
M  V30 42 H -6.603344 4.801696 1.290315 0
M  V30 43 H -4.130090 4.544513 0.850376 0
M  V30 44 H -3.124453 -0.610830 0.113104 0
M  V30 45 H -3.610625 0.930092 -0.926972 0
M  V30 46 H 1.330108 -1.831876 -0.439892 0
M  V30 47 H 3.900294 -3.810748 -2.182675 0
M  V30 48 H 2.399952 -2.863884 -2.162043 0
M  V30 49 H 2.761378 -5.572995 -1.200874 0
M  V30 50 H 1.309978 -4.601014 -1.002516 0
M  V30 END ATOM
M  V30 BEGIN BOND
M  V30 1 1 1 2
M  V30 2 1 2 3
M  V30 3 1 3 4
M  V30 4 1 4 5
M  V30 5 1 5 6
M  V30 6 2 6 7
M  V30 7 1 7 8
M  V30 8 2 8 9
M  V30 9 1 9 10
M  V30 10 1 10 11
M  V30 11 2 11 12
M  V30 12 1 11 13
M  V30 13 1 13 14
M  V30 14 2 14 15
M  V30 15 1 15 16
M  V30 16 1 16 17
M  V30 17 2 17 18
M  V30 18 1 18 19
M  V30 19 2 19 20
M  V30 20 1 20 21
M  V30 21 1 20 22
M  V30 22 2 22 23
M  V30 23 1 16 24
M  V30 24 1 24 25
M  V30 25 2 10 26
M  V30 26 1 5 27
M  V30 27 1 27 28
M  V30 28 1 28 2
M  V30 29 1 26 6
M  V30 30 2 24 13
M  V30 31 1 23 17
M  V30 32 1 1 29
M  V30 33 1 1 30
M  V30 34 1 1 31
M  V30 35 1 3 32
M  V30 36 1 3 33
M  V30 37 1 4 34
M  V30 38 1 4 35
M  V30 39 1 7 36
M  V30 40 1 8 37
M  V30 41 1 9 38
M  V30 42 1 14 39
M  V30 43 1 18 40
M  V30 44 1 19 41
M  V30 45 1 22 42
M  V30 46 1 23 43
M  V30 47 1 25 44
M  V30 48 1 25 45
M  V30 49 1 26 46
M  V30 50 1 27 47
M  V30 51 1 27 48
M  V30 52 1 28 49
M  V30 53 1 28 50
M  V30 END BOND
M  V30 END CTAB
M  END
>  <Dataset>  (842) 
ChEMBL_Kinases

>  <Ligand_Instance>  (842) 
nan

>  <PDB_ID>  (842) 
nan

>  <Standardized_SMILES>  (842) 
CN1CCN(c2cccc(C(=O)c3cnn(-c4ccc(F)cc4)c3N)c2)CC1

>  <Name>  (842) 
nan

>  <Pocket>  (842) 
nan

>  <ATP_Site>  (842) 
nan

>  <Peripheral>  (842) 
nan

>  <Num_H_Atoms_ProtBoundConf>  (842) 
nan

>  <Num_Resolved_Atoms>  (842) 
nan

>  <Num_Not_Resolved_Atoms>  (842) 
nan

$$$$
CHEMBL426078
     RDKit          3D

  0  0  0  0  0  0  0  0  0  0999 V3000
M  V30 BEGIN CTAB
M  V30 COUNTS 33 35 0 0 0
M  V30 BEGIN ATOM
M  V30 1 C -3.260255 -4.479245 -0.601237 0
M  V30 2 C -2.125152 -3.711935 -0.023981 0
M  V30 3 C -0.992492 -4.295047 0.502141 0
M  V30 4 C -0.204502 -3.246531 0.922477 0
M  V30 5 C 1.088110 -3.399069 1.584554 0
M  V30 6 C -0.808288 -2.034251 0.673827 0
M  V30 7 C -0.502036 -0.624071 0.825162 0
M  V30 8 C 0.486660 0.125496 0.376657 0
M  V30 9 C 1.552129 -0.410755 -0.447295 0
M  V30 10 O 1.673928 -1.572430 -0.847827 0
M  V30 11 N 2.415978 0.686858 -0.692981 0
M  V30 12 C 1.877594 1.837087 -0.035723 0
M  V30 13 C 2.368171 3.144627 0.012300 0
M  V30 14 C 1.687696 4.119039 0.711285 0
M  V30 15 C 0.518417 3.794329 1.363428 0
M  V30 16 O -0.126746 4.802315 2.049229 0
M  V30 17 C 0.006570 2.511151 1.335559 0
M  V30 18 C 0.704151 1.544494 0.627833 0
M  V30 19 N -1.996550 -2.378089 0.087372 0
M  V30 20 H -4.089595 -4.394199 0.149125 0
M  V30 21 H -3.609122 -3.964268 -1.523625 0
M  V30 22 H -2.974099 -5.517553 -0.790727 0
M  V30 23 H -0.746808 -5.341289 0.582140 0
M  V30 24 H 1.891099 -3.752976 0.878907 0
M  V30 25 H 1.069790 -4.184003 2.381457 0
M  V30 26 H 1.427456 -2.465332 2.041961 0
M  V30 27 H -1.246376 -0.083653 1.438166 0
M  V30 28 H 3.280196 0.581738 -1.269172 0
M  V30 29 H 3.292774 3.356303 -0.515701 0
M  V30 30 H 2.066902 5.129739 0.748263 0
M  V30 31 H -1.105866 4.756284 2.312022 0
M  V30 32 H -0.908478 2.246190 1.843296 0
M  V30 33 H -2.770275 -1.763030 -0.263783 0
M  V30 END ATOM
M  V30 BEGIN BOND
M  V30 1 1 1 2
M  V30 2 2 2 3
M  V30 3 1 3 4
M  V30 4 1 4 5
M  V30 5 2 4 6
M  V30 6 1 6 7
M  V30 7 2 7 8
M  V30 8 1 8 9
M  V30 9 2 9 10
M  V30 10 1 9 11
M  V30 11 1 11 12
M  V30 12 2 12 13
M  V30 13 1 13 14
M  V30 14 2 14 15
M  V30 15 1 15 16
M  V30 16 1 15 17
M  V30 17 2 17 18
M  V30 18 1 6 19
M  V30 19 1 19 2
M  V30 20 1 18 8
M  V30 21 1 18 12
M  V30 22 1 1 20
M  V30 23 1 1 21
M  V30 24 1 1 22
M  V30 25 1 3 23
M  V30 26 1 5 24
M  V30 27 1 5 25
M  V30 28 1 5 26
M  V30 29 1 7 27
M  V30 30 1 11 28
M  V30 31 1 13 29
M  V30 32 1 14 30
M  V30 33 1 16 31
M  V30 34 1 17 32
M  V30 35 1 19 33
M  V30 END BOND
M  V30 END CTAB
M  END
>  <Dataset>  (843) 
ChEMBL_Kinases

>  <Ligand_Instance>  (843) 
nan

>  <PDB_ID>  (843) 
nan

>  <Standardized_SMILES>  (843) 
Cc1cc(C)c(/C=C2\C(=O)Nc3ccc(O)cc32)[nH]1

>  <Name>  (843) 
nan

>  <Pocket>  (843) 
nan

>  <ATP_Site>  (843) 
nan

>  <Peripheral>  (843) 
nan

>  <Num_H_Atoms_ProtBoundConf>  (843) 
nan

>  <Num_Resolved_Atoms>  (843) 
nan

>  <Num_Not_Resolved_Atoms>  (843) 
nan

$$$$
CHEMBL426001
     RDKit          3D

  0  0  0  0  0  0  0  0  0  0999 V3000
M  V30 BEGIN CTAB
M  V30 COUNTS 37 40 0 0 0
M  V30 BEGIN ATOM
M  V30 1 O 0.247924 -4.451359 3.440593 0
M  V30 2 C 1.101817 -4.513510 2.490715 0
M  V30 3 N 1.961783 -5.634453 2.289870 0
M  V30 4 C 2.382581 -5.918631 0.931410 0
M  V30 5 C 3.063296 -4.700516 0.347160 0
M  V30 6 C 2.175757 -3.522506 0.533578 0
M  V30 7 N 2.106072 -2.390869 -0.195984 0
M  V30 8 C 1.166922 -1.575340 0.312967 0
M  V30 9 C 0.839028 -0.266129 -0.243223 0
M  V30 10 C 1.507722 0.197363 -1.353609 0
M  V30 11 C 1.099264 1.443181 -1.770627 0
M  V30 12 N 0.149511 2.162423 -1.180362 0
M  V30 13 C -0.516796 1.756725 -0.114155 0
M  V30 14 C -1.523847 2.643251 0.422985 0
M  V30 15 C -1.714995 3.848484 -0.217850 0
M  V30 16 C -2.629002 4.796748 0.166777 0
M  V30 17 C -3.435127 4.581321 1.259398 0
M  V30 18 C -3.286589 3.393812 1.937128 0
M  V30 19 C -2.354571 2.490627 1.499249 0
M  V30 20 Cl -2.280940 1.040143 2.452513 0
M  V30 21 C -0.130369 0.522311 0.320341 0
M  V30 22 C 0.585336 -2.168539 1.414839 0
M  V30 23 C 1.235533 -3.392007 1.534393 0
M  V30 24 H 2.228083 -6.177848 3.161305 0
M  V30 25 H 1.453934 -6.072450 0.333942 0
M  V30 26 H 3.029985 -6.817595 0.877415 0
M  V30 27 H 3.997935 -4.477415 0.936596 0
M  V30 28 H 3.332776 -4.856326 -0.705457 0
M  V30 29 H 2.700316 -2.179728 -1.038932 0
M  V30 30 H 2.270865 -0.356075 -1.845446 0
M  V30 31 H 1.586085 1.878205 -2.648920 0
M  V30 32 H -1.139796 4.150840 -1.103943 0
M  V30 33 H -2.749143 5.729657 -0.361631 0
M  V30 34 H -4.148293 5.336660 1.548439 0
M  V30 35 H -3.920625 3.245589 2.781306 0
M  V30 36 H -0.608814 0.102501 1.177992 0
M  V30 37 H -0.185969 -1.804967 2.052197 0
M  V30 END ATOM
M  V30 BEGIN BOND
M  V30 1 2 1 2
M  V30 2 1 2 3
M  V30 3 1 3 4
M  V30 4 1 4 5
M  V30 5 1 5 6
M  V30 6 1 6 7
M  V30 7 1 7 8
M  V30 8 1 8 9
M  V30 9 2 9 10
M  V30 10 1 10 11
M  V30 11 2 11 12
M  V30 12 1 12 13
M  V30 13 1 13 14
M  V30 14 2 14 15
M  V30 15 1 15 16
M  V30 16 2 16 17
M  V30 17 1 17 18
M  V30 18 2 18 19
M  V30 19 1 19 20
M  V30 20 2 13 21
M  V30 21 2 8 22
M  V30 22 1 22 23
M  V30 23 1 23 2
M  V30 24 2 23 6
M  V30 25 1 21 9
M  V30 26 1 19 14
M  V30 27 1 3 24
M  V30 28 1 4 25
M  V30 29 1 4 26
M  V30 30 1 5 27
M  V30 31 1 5 28
M  V30 32 1 7 29
M  V30 33 1 10 30
M  V30 34 1 11 31
M  V30 35 1 15 32
M  V30 36 1 16 33
M  V30 37 1 17 34
M  V30 38 1 18 35
M  V30 39 1 21 36
M  V30 40 1 22 37
M  V30 END BOND
M  V30 END CTAB
M  END
>  <Dataset>  (844) 
ChEMBL_Kinases

>  <Ligand_Instance>  (844) 
nan

>  <PDB_ID>  (844) 
nan

>  <Standardized_SMILES>  (844) 
O=C1NCCc2[nH]c(-c3ccnc(-c4ccccc4Cl)c3)cc21

>  <Name>  (844) 
nan

>  <Pocket>  (844) 
nan

>  <ATP_Site>  (844) 
nan

>  <Peripheral>  (844) 
nan

>  <Num_H_Atoms_ProtBoundConf>  (844) 
nan

>  <Num_Resolved_Atoms>  (844) 
nan

>  <Num_Not_Resolved_Atoms>  (844) 
nan

$$$$
CHEMBL425980
     RDKit          3D

  0  0  0  0  0  0  0  0  0  0999 V3000
M  V30 BEGIN CTAB
M  V30 COUNTS 50 52 0 0 0
M  V30 BEGIN ATOM
M  V30 1 C 0.240166 0.191750 2.939772 0
M  V30 2 C 1.543105 -0.299426 2.301229 0
M  V30 3 C 2.508790 -0.574723 3.401529 0
M  V30 4 O 1.912528 -1.597465 4.188076 0
M  V30 5 N 1.922684 0.720539 1.366119 0
M  V30 6 C 3.093339 1.039040 0.974984 0
M  V30 7 N 4.292985 0.420858 1.407870 0
M  V30 8 C 3.019829 2.128297 0.012465 0
M  V30 9 C 4.195219 2.591375 -0.511437 0
M  V30 10 O 5.535437 2.208971 -0.291467 0
M  V30 11 N 4.369296 3.586788 -1.420436 0
M  V30 12 S 2.534550 4.024117 -1.643855 0
M  V30 13 C 1.995284 2.851964 -0.541639 0
M  V30 14 N 0.622097 2.583561 -0.157699 0
M  V30 15 C -0.381896 1.641897 -0.526066 0
M  V30 16 C -1.653831 1.813924 -0.085708 0
M  V30 17 C -2.549902 0.845196 -0.477608 0
M  V30 18 C -2.216247 -0.236947 -1.261488 0
M  V30 19 O -3.123966 -1.226334 -1.663743 0
M  V30 20 C -3.250060 -2.297593 -0.755522 0
M  V30 21 C -4.239892 -2.164647 0.194128 0
M  V30 22 C -4.351844 -3.218886 1.075492 0
M  V30 23 F -5.303648 -3.201098 2.067295 0
M  V30 24 C -3.551240 -4.340294 1.041878 0
M  V30 25 C -2.588516 -4.379132 0.053045 0
M  V30 26 C -1.673039 -5.572244 -0.046065 0
M  V30 27 F -2.130810 -6.373503 -1.073183 0
M  V30 28 F -1.782064 -6.291265 1.127651 0
M  V30 29 F -0.363492 -5.135506 -0.258152 0
M  V30 30 C -2.385023 -3.368423 -0.894243 0
M  V30 31 C -0.897934 -0.391285 -1.702860 0
M  V30 32 C 0.000343 0.575408 -1.312951 0
M  V30 33 H 0.296794 1.281953 3.149103 0
M  V30 34 H 0.060513 -0.311507 3.904018 0
M  V30 35 H -0.577493 0.007454 2.241835 0
M  V30 36 H 1.334089 -1.277358 1.799511 0
M  V30 37 H 3.457101 -1.002648 3.058648 0
M  V30 38 H 2.621582 0.278888 4.117413 0
M  V30 39 H 1.666737 -2.379915 3.629283 0
M  V30 40 H 4.837301 0.950239 2.153090 0
M  V30 41 H 4.784979 -0.478070 1.141919 0
M  V30 42 H 5.945988 1.484563 -0.866340 0
M  V30 43 H 0.409244 3.304492 0.566760 0
M  V30 44 H -1.995840 2.628160 0.528108 0
M  V30 45 H -3.577903 0.942175 -0.149811 0
M  V30 46 H -4.878551 -1.297240 0.241628 0
M  V30 47 H -3.623546 -5.177427 1.724058 0
M  V30 48 H -1.633552 -3.423152 -1.648603 0
M  V30 49 H -0.592369 -1.213110 -2.311980 0
M  V30 50 H 1.024198 0.486154 -1.636790 0
M  V30 END ATOM
M  V30 BEGIN BOND
M  V30 1 1 1 2
M  V30 2 1 2 3
M  V30 3 1 3 4
M  V30 4 1 2 5
M  V30 5 2 5 6
M  V30 6 1 6 7
M  V30 7 1 6 8
M  V30 8 1 8 9
M  V30 9 1 9 10
M  V30 10 2 9 11
M  V30 11 1 11 12
M  V30 12 1 12 13
M  V30 13 1 13 14
M  V30 14 1 14 15
M  V30 15 2 15 16
M  V30 16 1 16 17
M  V30 17 2 17 18
M  V30 18 1 18 19
M  V30 19 1 19 20
M  V30 20 2 20 21
M  V30 21 1 21 22
M  V30 22 1 22 23
M  V30 23 2 22 24
M  V30 24 1 24 25
M  V30 25 1 25 26
M  V30 26 1 26 27
M  V30 27 1 26 28
M  V30 28 1 26 29
M  V30 29 2 25 30
M  V30 30 1 18 31
M  V30 31 2 31 32
M  V30 32 2 13 8
M  V30 33 1 32 15
M  V30 34 1 30 20
M  V30 35 1 1 33
M  V30 36 1 1 34
M  V30 37 1 1 35
M  V30 38 1 2 36
M  V30 39 1 3 37
M  V30 40 1 3 38
M  V30 41 1 4 39
M  V30 42 1 7 40
M  V30 43 1 7 41
M  V30 44 1 10 42
M  V30 45 1 14 43
M  V30 46 1 16 44
M  V30 47 1 17 45
M  V30 48 1 21 46
M  V30 49 1 24 47
M  V30 50 1 30 48
M  V30 51 1 31 49
M  V30 52 1 32 50
M  V30 END BOND
M  V30 END CTAB
M  END
>  <Dataset>  (845) 
ChEMBL_Kinases

>  <Ligand_Instance>  (845) 
nan

>  <PDB_ID>  (845) 
nan

>  <Standardized_SMILES>  (845) 
CC(CO)/N=C(\N)c1c(O)nsc1Nc1ccc(Oc2cc(F)cc(C(F)(F)F)c2)cc1

>  <Name>  (845) 
nan

>  <Pocket>  (845) 
nan

>  <ATP_Site>  (845) 
nan

>  <Peripheral>  (845) 
nan

>  <Num_H_Atoms_ProtBoundConf>  (845) 
nan

>  <Num_Resolved_Atoms>  (845) 
nan

>  <Num_Not_Resolved_Atoms>  (845) 
nan

$$$$
CHEMBL4763199
     RDKit          3D

  0  0  0  0  0  0  0  0  0  0999 V3000
M  V30 BEGIN CTAB
M  V30 COUNTS 55 60 0 0 0
M  V30 BEGIN ATOM
M  V30 1 Cl -1.833821 -2.326396 5.203636 0
M  V30 2 C -0.507095 -1.793266 4.225780 0
M  V30 3 C 0.687262 -1.592955 4.887315 0
M  V30 4 C 1.792820 -1.168429 4.181016 0
M  V30 5 C 3.112334 -0.861083 4.436859 0
M  V30 6 N 3.709219 -0.492834 3.288874 0
M  V30 7 N 2.835872 -0.545377 2.287711 0
M  V30 8 C 3.090613 -0.226599 0.904899 0
M  V30 9 C 3.784109 -0.882585 -0.095554 0
M  V30 10 N 3.694214 -0.114916 -1.204717 0
M  V30 11 N 2.977329 0.978681 -0.924864 0
M  V30 12 C 2.677957 2.035565 -1.896094 0
M  V30 13 C 3.562639 3.231268 -1.667830 0
M  V30 14 C 2.419130 3.935077 -0.960548 0
M  V30 15 C 1.487864 2.881819 -1.511048 0
M  V30 16 C 2.582271 0.958259 0.360469 0
M  V30 17 C 1.654320 -0.959864 2.826587 0
M  V30 18 C 0.440435 -1.173282 2.208409 0
M  V30 19 C -0.708606 -1.598795 2.856144 0
M  V30 20 C -2.025599 -1.854936 2.296882 0
M  V30 21 C -2.369287 -3.149573 1.748092 0
M  V30 22 C -2.375424 -3.206510 0.214013 0
M  V30 23 N -3.489207 -2.404281 -0.216850 0
M  V30 24 C -3.654644 -2.289050 -1.620180 0
M  V30 25 C -3.877426 -3.549360 -2.392303 0
M  V30 26 O -2.525716 -3.479450 -2.766521 0
M  V30 27 C -2.399957 -2.109148 -2.439625 0
M  V30 28 C -3.548674 -1.119796 0.441761 0
M  V30 29 C -2.274056 -0.821569 1.211490 0
M  V30 30 H 0.796076 -1.756548 5.948825 0
M  V30 31 H 3.544736 -0.926253 5.436314 0
M  V30 32 H 4.261098 -1.829841 0.116964 0
M  V30 33 H 2.583892 1.715614 -2.938403 0
M  V30 34 H 3.780811 3.753715 -2.642590 0
M  V30 35 H 4.463599 3.054248 -1.067763 0
M  V30 36 H 2.501990 3.974909 0.137566 0
M  V30 37 H 2.214344 4.962155 -1.354688 0
M  V30 38 H 0.884931 3.264428 -2.360893 0
M  V30 39 H 0.823577 2.461223 -0.737751 0
M  V30 40 H 1.986807 1.732567 0.836427 0
M  V30 41 H 0.365635 -1.002831 1.144466 0
M  V30 42 H -2.765463 -1.590010 3.115647 0
M  V30 43 H -3.442629 -3.341598 1.979254 0
M  V30 44 H -1.890631 -4.044620 2.188912 0
M  V30 45 H -1.407918 -2.956631 -0.207860 0
M  V30 46 H -2.618852 -4.263564 -0.022475 0
M  V30 47 H -4.361523 -1.465827 -1.851424 0
M  V30 48 H -4.164979 -4.371504 -1.735432 0
M  V30 49 H -4.591318 -3.382453 -3.239803 0
M  V30 50 H -1.480642 -1.848461 -1.919052 0
M  V30 51 H -2.527440 -1.450907 -3.334815 0
M  V30 52 H -3.581162 -0.350135 -0.358005 0
M  V30 53 H -4.469104 -0.960257 1.041819 0
M  V30 54 H -1.490269 -0.803262 0.427233 0
M  V30 55 H -2.389361 0.184291 1.620975 0
M  V30 END ATOM
M  V30 BEGIN BOND
M  V30 1 1 1 2
M  V30 2 2 2 3
M  V30 3 1 3 4
M  V30 4 1 4 5
M  V30 5 2 5 6
M  V30 6 1 6 7
M  V30 7 1 7 8
M  V30 8 1 8 9
M  V30 9 2 9 10
M  V30 10 1 10 11
M  V30 11 1 11 12
M  V30 12 1 12 13
M  V30 13 1 13 14
M  V30 14 1 14 15
M  V30 15 1 11 16
M  V30 16 1 7 17
M  V30 17 1 17 18
M  V30 18 2 18 19
M  V30 19 1 19 20
M  V30 20 1 20 21
M  V30 21 1 21 22
M  V30 22 1 22 23
M  V30 23 1 23 24
M  V30 24 1 24 25
M  V30 25 1 25 26
M  V30 26 1 26 27
M  V30 27 1 23 28
M  V30 28 1 28 29
M  V30 29 1 19 2
M  V30 30 1 29 20
M  V30 31 2 17 4
M  V30 32 1 27 24
M  V30 33 2 16 8
M  V30 34 1 15 12
M  V30 35 1 3 30
M  V30 36 1 5 31
M  V30 37 1 9 32
M  V30 38 1 12 33
M  V30 39 1 13 34
M  V30 40 1 13 35
M  V30 41 1 14 36
M  V30 42 1 14 37
M  V30 43 1 15 38
M  V30 44 1 15 39
M  V30 45 1 16 40
M  V30 46 1 18 41
M  V30 47 1 20 42
M  V30 48 1 21 43
M  V30 49 1 21 44
M  V30 50 1 22 45
M  V30 51 1 22 46
M  V30 52 1 24 47
M  V30 53 1 25 48
M  V30 54 1 25 49
M  V30 55 1 27 50
M  V30 56 1 27 51
M  V30 57 1 28 52
M  V30 58 1 28 53
M  V30 59 1 29 54
M  V30 60 1 29 55
M  V30 END BOND
M  V30 END CTAB
M  END
>  <Dataset>  (846) 
ChEMBL_Kinases

>  <Ligand_Instance>  (846) 
nan

>  <PDB_ID>  (846) 
nan

>  <Standardized_SMILES>  (846) 
Clc1cc2cnn(-c3cnn(C4CCC4)c3)c2cc1C1CCN(C2COC2)CC1

>  <Name>  (846) 
nan

>  <Pocket>  (846) 
nan

>  <ATP_Site>  (846) 
nan

>  <Peripheral>  (846) 
nan

>  <Num_H_Atoms_ProtBoundConf>  (846) 
nan

>  <Num_Resolved_Atoms>  (846) 
nan

>  <Num_Not_Resolved_Atoms>  (846) 
nan

$$$$
CHEMBL4763247
     RDKit          3D

  0  0  0  0  0  0  0  0  0  0999 V3000
M  V30 BEGIN CTAB
M  V30 COUNTS 78 82 0 0 0
M  V30 BEGIN ATOM
M  V30 1 C 4.065206 -3.277040 8.642850 0
M  V30 2 C 4.288849 -1.858609 8.227058 0
M  V30 3 C 3.252287 -0.932124 8.360324 0
M  V30 4 C 3.534753 0.355522 7.950215 0
M  V30 5 C 4.766538 0.724228 7.434885 0
M  V30 6 O 4.713478 2.099865 7.115746 0
M  V30 7 C 4.249008 2.375904 5.813288 0
M  V30 8 C 3.936469 1.299303 4.969137 0
M  V30 9 C 3.477647 1.584626 3.688239 0
M  V30 10 C 3.313158 2.865051 3.205107 0
M  V30 11 C 2.782545 3.088119 1.844047 0
M  V30 12 C 1.722272 2.425564 1.453982 0
M  V30 13 S 0.945447 1.263956 2.605779 0
M  V30 14 C -0.425717 0.889088 1.515925 0
M  V30 15 O -1.178690 0.151393 2.164193 0
M  V30 16 N -0.201415 1.552025 0.283166 0
M  V30 17 C -1.149861 1.308042 -0.737865 0
M  V30 18 C -0.966681 1.925326 -1.950293 0
M  V30 19 C -1.834095 1.755676 -3.006907 0
M  V30 20 C -2.928301 0.938287 -2.850363 0
M  V30 21 C -3.169461 0.295852 -1.676741 0
M  V30 22 O -4.173832 -0.515902 -1.386157 0
M  V30 23 C -5.262047 -1.163202 -1.714739 0
M  V30 24 C -5.447541 -2.307577 -2.638001 0
M  V30 25 C -4.792065 -3.564489 -2.242751 0
M  V30 26 C -3.347108 -3.796088 -2.307918 0
M  V30 27 C -2.748804 -4.029276 -3.663254 0
M  V30 28 N -2.884992 -3.040061 -4.660974 0
M  V30 29 C -2.100877 -1.896662 -4.392154 0
M  V30 30 C -0.695277 -1.907813 -4.947210 0
M  V30 31 N -0.671100 -2.067051 -6.376065 0
M  V30 32 C -0.251935 -0.902888 -7.092489 0
M  V30 33 C -1.866548 -2.694221 -6.885771 0
M  V30 34 C -2.487396 -3.641354 -5.919321 0
M  V30 35 C -2.248695 0.514213 -0.649271 0
M  V30 36 C 0.930328 2.366039 0.239334 0
M  V30 37 O 1.386940 3.069976 -0.694737 0
M  V30 38 C 3.626682 3.904154 4.049372 0
M  V30 39 C 4.085437 3.661418 5.328497 0
M  V30 40 C 5.774085 -0.207906 7.313318 0
M  V30 41 C 5.497636 -1.493909 7.721024 0
M  V30 42 H 3.464082 -3.356737 9.572231 0
M  V30 43 H 5.017225 -3.799406 8.781325 0
M  V30 44 H 3.550215 -3.756304 7.758681 0
M  V30 45 H 2.302205 -1.278077 8.771142 0
M  V30 46 H 2.652016 0.991193 8.098444 0
M  V30 47 H 4.045217 0.273929 5.298037 0
M  V30 48 H 3.278525 0.677917 3.098671 0
M  V30 49 H 3.193634 3.768906 1.095926 0
M  V30 50 H -0.175252 2.594654 -2.252972 0
M  V30 51 H -1.774281 2.193427 -3.983013 0
M  V30 52 H -3.666630 0.747158 -3.618046 0
M  V30 53 H -5.732114 -1.561038 -0.715849 0
M  V30 54 H -6.122271 -0.432989 -2.025529 0
M  V30 55 H -5.206735 -2.070836 -3.700705 0
M  V30 56 H -6.559765 -2.517992 -2.658434 0
M  V30 57 H -5.209819 -3.874601 -1.209050 0
M  V30 58 H -5.286068 -4.382497 -2.885681 0
M  V30 59 H -3.135447 -4.689709 -1.631217 0
M  V30 60 H -2.728835 -2.989072 -1.841195 0
M  V30 61 H -3.061049 -5.058595 -4.054625 0
M  V30 62 H -1.640098 -4.241996 -3.436975 0
M  V30 63 H -2.068311 -1.752811 -3.302895 0
M  V30 64 H -2.667324 -1.020642 -4.828136 0
M  V30 65 H -0.105312 -2.684594 -4.433594 0
M  V30 66 H -0.238246 -0.926951 -4.707152 0
M  V30 67 H -0.177826 -1.204027 -8.174328 0
M  V30 68 H 0.822271 -0.701855 -6.806448 0
M  V30 69 H -0.868398 -0.016596 -6.951205 0
M  V30 70 H -1.619726 -3.194903 -7.852321 0
M  V30 71 H -2.596228 -1.887400 -7.128525 0
M  V30 72 H -1.728853 -4.461764 -5.742614 0
M  V30 73 H -3.363144 -4.150184 -6.358030 0
M  V30 74 H -2.429334 0.006512 0.299092 0
M  V30 75 H 3.513449 4.936682 3.712933 0
M  V30 76 H 4.337666 4.479752 6.008649 0
M  V30 77 H 6.656762 0.241072 6.899792 0
M  V30 78 H 6.346322 -2.167548 7.593028 0
M  V30 END ATOM
M  V30 BEGIN BOND
M  V30 1 1 1 2
M  V30 2 2 2 3
M  V30 3 1 3 4
M  V30 4 2 4 5
M  V30 5 1 5 6
M  V30 6 1 6 7
M  V30 7 2 7 8
M  V30 8 1 8 9
M  V30 9 2 9 10
M  V30 10 1 10 11
M  V30 11 2 11 12
M  V30 12 1 12 13
M  V30 13 1 13 14
M  V30 14 2 14 15
M  V30 15 1 14 16
M  V30 16 1 16 17
M  V30 17 2 17 18
M  V30 18 1 18 19
M  V30 19 2 19 20
M  V30 20 1 20 21
M  V30 21 1 21 22
M  V30 22 1 22 23
M  V30 23 1 23 24
M  V30 24 1 24 25
M  V30 25 1 25 26
M  V30 26 1 26 27
M  V30 27 1 27 28
M  V30 28 1 28 29
M  V30 29 1 29 30
M  V30 30 1 30 31
M  V30 31 1 31 32
M  V30 32 1 31 33
M  V30 33 1 33 34
M  V30 34 2 21 35
M  V30 35 1 16 36
M  V30 36 2 36 37
M  V30 37 1 10 38
M  V30 38 2 38 39
M  V30 39 1 5 40
M  V30 40 2 40 41
M  V30 41 1 41 2
M  V30 42 1 39 7
M  V30 43 1 36 12
M  V30 44 1 35 17
M  V30 45 1 34 28
M  V30 46 1 1 42
M  V30 47 1 1 43
M  V30 48 1 1 44
M  V30 49 1 3 45
M  V30 50 1 4 46
M  V30 51 1 8 47
M  V30 52 1 9 48
M  V30 53 1 11 49
M  V30 54 1 18 50
M  V30 55 1 19 51
M  V30 56 1 20 52
M  V30 57 1 23 53
M  V30 58 1 23 54
M  V30 59 1 24 55
M  V30 60 1 24 56
M  V30 61 1 25 57
M  V30 62 1 25 58
M  V30 63 1 26 59
M  V30 64 1 26 60
M  V30 65 1 27 61
M  V30 66 1 27 62
M  V30 67 1 29 63
M  V30 68 1 29 64
M  V30 69 1 30 65
M  V30 70 1 30 66
M  V30 71 1 32 67
M  V30 72 1 32 68
M  V30 73 1 32 69
M  V30 74 1 33 70
M  V30 75 1 33 71
M  V30 76 1 34 72
M  V30 77 1 34 73
M  V30 78 1 35 74
M  V30 79 1 38 75
M  V30 80 1 39 76
M  V30 81 1 40 77
M  V30 82 1 41 78
M  V30 END BOND
M  V30 END CTAB
M  END
>  <Dataset>  (847) 
ChEMBL_Kinases

>  <Ligand_Instance>  (847) 
nan

>  <PDB_ID>  (847) 
nan

>  <Standardized_SMILES>  (847) 
Cc1ccc(Oc2ccc(/C=C3\SC(=O)N(c4cccc(OCCCCCN5CCN(C)CC5)c4)C3=O)cc2)cc1

>  <Name>  (847) 
nan

>  <Pocket>  (847) 
nan

>  <ATP_Site>  (847) 
nan

>  <Peripheral>  (847) 
nan

>  <Num_H_Atoms_ProtBoundConf>  (847) 
nan

>  <Num_Resolved_Atoms>  (847) 
nan

>  <Num_Not_Resolved_Atoms>  (847) 
nan

$$$$
CHEMBL425964
     RDKit          3D

  0  0  0  0  0  0  0  0  0  0999 V3000
M  V30 BEGIN CTAB
M  V30 COUNTS 39 41 0 0 0
M  V30 BEGIN ATOM
M  V30 1 C -0.358624 -6.165679 -0.887466 0
M  V30 2 N 1.049986 -6.550875 -1.020507 0
M  V30 3 C 2.059778 -5.545149 -0.917693 0
M  V30 4 N 3.376616 -5.859104 -1.035683 0
M  V30 5 C 4.295686 -4.887472 -0.933807 0
M  V30 6 C 3.980769 -3.566865 -0.712710 0
M  V30 7 C 2.622861 -3.265947 -0.594166 0
M  V30 8 C 2.039199 -1.903070 -0.352018 0
M  V30 9 C 2.672004 -0.689204 -0.198855 0
M  V30 10 C 1.849624 0.370905 0.010260 0
M  V30 11 C 0.517566 0.207398 0.058007 0
M  V30 12 C -0.581700 1.148880 0.266093 0
M  V30 13 O -1.749149 0.683850 0.260263 0
M  V30 14 N -0.317141 2.529962 0.465201 0
M  V30 15 C -1.332068 3.562753 0.685590 0
M  V30 16 C -1.865415 3.525613 2.075613 0
M  V30 17 C -1.227168 4.263810 3.049065 0
M  V30 18 C -1.665041 4.283902 4.379607 0
M  V30 19 C -2.783052 3.534741 4.738337 0
M  V30 20 F -3.194623 3.563835 6.029822 0
M  V30 21 C -3.409016 2.798541 3.736687 0
M  V30 22 C -2.970986 2.787296 2.438433 0
M  V30 23 S 0.285509 -1.502180 -0.194000 0
M  V30 24 N 1.722670 -4.261740 -0.700556 0
M  V30 25 H -0.655827 -6.096422 0.169627 0
M  V30 26 H -0.445108 -5.130508 -1.296944 0
M  V30 27 H -0.986382 -6.877882 -1.462670 0
M  V30 28 H 1.309853 -7.534746 -1.186924 0
M  V30 29 H 5.370475 -5.043814 -1.014501 0
M  V30 30 H 4.572271 -2.688079 -0.607582 0
M  V30 31 H 3.751973 -0.650332 -0.251604 0
M  V30 32 H 2.224790 1.392239 0.146993 0
M  V30 33 H 0.710156 2.797190 0.444875 0
M  V30 34 H -2.159552 3.437530 -0.060657 0
M  V30 35 H -0.845170 4.535591 0.531402 0
M  V30 36 H -0.349011 4.849575 2.759734 0
M  V30 37 H -1.165158 4.862750 5.144359 0
M  V30 38 H -4.264467 2.240809 4.070162 0
M  V30 39 H -3.500163 2.201093 1.714328 0
M  V30 END ATOM
M  V30 BEGIN BOND
M  V30 1 1 1 2
M  V30 2 1 2 3
M  V30 3 2 3 4
M  V30 4 1 4 5
M  V30 5 2 5 6
M  V30 6 1 6 7
M  V30 7 1 7 8
M  V30 8 2 8 9
M  V30 9 1 9 10
M  V30 10 2 10 11
M  V30 11 1 11 12
M  V30 12 2 12 13
M  V30 13 1 12 14
M  V30 14 1 14 15
M  V30 15 1 15 16
M  V30 16 2 16 17
M  V30 17 1 17 18
M  V30 18 2 18 19
M  V30 19 1 19 20
M  V30 20 1 19 21
M  V30 21 2 21 22
M  V30 22 1 11 23
M  V30 23 2 7 24
M  V30 24 1 24 3
M  V30 25 1 23 8
M  V30 26 1 22 16
M  V30 27 1 1 25
M  V30 28 1 1 26
M  V30 29 1 1 27
M  V30 30 1 2 28
M  V30 31 1 5 29
M  V30 32 1 6 30
M  V30 33 1 9 31
M  V30 34 1 10 32
M  V30 35 1 14 33
M  V30 36 1 15 34
M  V30 37 1 15 35
M  V30 38 1 17 36
M  V30 39 1 18 37
M  V30 40 1 21 38
M  V30 41 1 22 39
M  V30 END BOND
M  V30 END CTAB
M  END
>  <Dataset>  (848) 
ChEMBL_Kinases

>  <Ligand_Instance>  (848) 
nan

>  <PDB_ID>  (848) 
nan

>  <Standardized_SMILES>  (848) 
CNc1nccc(-c2ccc(C(=O)NCc3ccc(F)cc3)s2)n1

>  <Name>  (848) 
nan

>  <Pocket>  (848) 
nan

>  <ATP_Site>  (848) 
nan

>  <Peripheral>  (848) 
nan

>  <Num_H_Atoms_ProtBoundConf>  (848) 
nan

>  <Num_Resolved_Atoms>  (848) 
nan

>  <Num_Not_Resolved_Atoms>  (848) 
nan

$$$$
CHEMBL4763267
     RDKit          3D

  0  0  0  0  0  0  0  0  0  0999 V3000
M  V30 BEGIN CTAB
M  V30 COUNTS 57 64 0 0 0
M  V30 BEGIN ATOM
M  V30 1 C 3.711486 0.221821 3.517268 0
M  V30 2 O 2.906288 0.268076 2.388298 0
M  V30 3 C 1.869488 -0.621924 2.391024 0 CFG=2
M  V30 4 C 2.127468 -1.658528 1.341852 0 CFG=1
M  V30 5 O 3.464681 -2.062217 1.375634 0
M  V30 6 C 1.266472 -2.832760 1.766982 0
M  V30 7 C -0.133427 -2.406880 2.094103 0 CFG=1
M  V30 8 O -0.336932 -1.194295 2.555350 0
M  V30 9 C 0.500015 -0.114869 2.295475 0 CFG=1
M  V30 10 C 0.124372 0.831850 3.437890 0
M  V30 11 N 0.075739 0.421967 1.009551 0
M  V30 12 C 0.207212 1.672202 0.531101 0
M  V30 13 C 0.793356 2.775664 1.062291 0
M  V30 14 C 0.814980 3.976372 0.379976 0
M  V30 15 C 0.256374 4.132404 -0.857802 0
M  V30 16 C -0.333351 3.020170 -1.392178 0
M  V30 17 C -0.360120 1.818417 -0.719678 0
M  V30 18 C -0.876787 0.598388 -1.054395 0
M  V30 19 C -1.555963 0.131732 -2.160276 0
M  V30 20 C -1.968801 -1.177572 -2.222816 0
M  V30 21 C -1.690398 -1.995103 -1.172724 0
M  V30 22 C -1.949762 -3.305388 -0.956518 0
M  V30 23 C -2.553076 -4.330340 -1.590582 0
M  V30 24 C -2.660048 -5.603860 -1.090034 0
M  V30 25 C -2.118569 -5.900982 0.162344 0
M  V30 26 C -1.490093 -4.845127 0.829527 0
M  V30 27 C -1.425759 -3.607746 0.263780 0
M  V30 28 N -0.850519 -2.519774 0.806279 0
M  V30 29 C -1.012470 -1.517071 -0.076233 0
M  V30 30 C -0.598481 -0.202271 -0.008327 0
M  V30 31 C -2.637091 -1.334021 -3.487805 0
M  V30 32 O -3.185951 -2.288657 -4.036827 0
M  V30 33 N -2.637438 -0.119439 -4.208677 0
M  V30 34 C -1.942588 0.891579 -3.399279 0
M  V30 35 H 4.505125 1.001713 3.363933 0
M  V30 36 H 4.164972 -0.766310 3.595600 0
M  V30 37 H 3.183091 0.465438 4.449413 0
M  V30 38 H 1.982328 -1.163458 3.369987 0
M  V30 39 H 1.925387 -1.310407 0.313087 0
M  V30 40 H 4.084014 -1.337137 1.164981 0
M  V30 41 H 1.754878 -3.292683 2.645895 0
M  V30 42 H 1.311790 -3.571514 0.945291 0
M  V30 43 H -0.586413 -3.162624 2.757872 0
M  V30 44 H 0.997717 1.335287 3.883808 0
M  V30 45 H -0.456187 0.256875 4.178500 0
M  V30 46 H -0.557107 1.647621 3.118134 0
M  V30 47 H 1.246393 2.714506 2.008898 0
M  V30 48 H 1.294871 4.858288 0.828517 0
M  V30 49 H 0.291385 5.089039 -1.364762 0
M  V30 50 H -0.792243 3.091919 -2.375219 0
M  V30 51 H -3.004472 -4.237930 -2.547141 0
M  V30 52 H -3.143157 -6.437209 -1.590702 0
M  V30 53 H -2.188268 -6.895394 0.580915 0
M  V30 54 H -1.077426 -5.085726 1.791938 0
M  V30 55 H -3.004323 0.176010 -5.127756 0
M  V30 56 H -1.058335 1.261281 -3.928700 0
M  V30 57 H -2.612315 1.726848 -3.145971 0
M  V30 END ATOM
M  V30 BEGIN BOND
M  V30 1 1 1 2
M  V30 2 1 2 3
M  V30 3 1 3 4
M  V30 4 1 4 5
M  V30 5 1 4 6
M  V30 6 1 6 7
M  V30 7 1 7 8
M  V30 8 1 8 9
M  V30 9 1 9 10 CFG=1
M  V30 10 1 9 11
M  V30 11 1 11 12
M  V30 12 2 12 13
M  V30 13 1 13 14
M  V30 14 2 14 15
M  V30 15 1 15 16
M  V30 16 2 16 17
M  V30 17 1 17 18
M  V30 18 2 18 19
M  V30 19 1 19 20
M  V30 20 2 20 21
M  V30 21 1 21 22
M  V30 22 2 22 23
M  V30 23 1 23 24
M  V30 24 2 24 25
M  V30 25 1 25 26
M  V30 26 2 26 27
M  V30 27 1 27 28
M  V30 28 1 28 29
M  V30 29 2 29 30
M  V30 30 1 20 31
M  V30 31 2 31 32
M  V30 32 1 31 33
M  V30 33 1 33 34
M  V30 34 1 9 3
M  V30 35 1 30 11
M  V30 36 1 28 7
M  V30 37 1 17 12
M  V30 38 1 30 18
M  V30 39 1 34 19
M  V30 40 1 29 21
M  V30 41 1 27 22
M  V30 42 1 1 35
M  V30 43 1 1 36
M  V30 44 1 1 37
M  V30 45 1 3 38 CFG=1
M  V30 46 1 4 39 CFG=3
M  V30 47 1 5 40
M  V30 48 1 6 41
M  V30 49 1 6 42
M  V30 50 1 7 43 CFG=1
M  V30 51 1 10 44
M  V30 52 1 10 45
M  V30 53 1 10 46
M  V30 54 1 13 47
M  V30 55 1 14 48
M  V30 56 1 15 49
M  V30 57 1 16 50
M  V30 58 1 23 51
M  V30 59 1 24 52
M  V30 60 1 25 53
M  V30 61 1 26 54
M  V30 62 1 33 55
M  V30 63 1 34 56
M  V30 64 1 34 57
M  V30 END BOND
M  V30 END CTAB
M  END
>  <Dataset>  (849) 
ChEMBL_Kinases

>  <Ligand_Instance>  (849) 
nan

>  <PDB_ID>  (849) 
nan

>  <Standardized_SMILES>  (849) 
CO[C@@H]1[C@@H](O)C[C@H]2O[C@]1(C)n1c3ccccc3c3c4c(c5c6ccccc6n2c5c31)C(=O)NC4

>  <Name>  (849) 
nan

>  <Pocket>  (849) 
nan

>  <ATP_Site>  (849) 
nan

>  <Peripheral>  (849) 
nan

>  <Num_H_Atoms_ProtBoundConf>  (849) 
nan

>  <Num_Resolved_Atoms>  (849) 
nan

>  <Num_Not_Resolved_Atoms>  (849) 
nan

$$$$
CHEMBL4763279
     RDKit          3D

  0  0  0  0  0  0  0  0  0  0999 V3000
M  V30 BEGIN CTAB
M  V30 COUNTS 74 78 0 0 0
M  V30 BEGIN ATOM
M  V30 1 C 4.174964 -0.438672 2.242650 0
M  V30 2 C 3.757112 0.872089 1.684265 0
M  V30 3 C 4.678017 1.807246 1.313672 0
M  V30 4 C 4.264498 3.017897 0.789186 0
M  V30 5 C 2.922885 3.327780 0.620695 0
M  V30 6 C 2.635860 4.635520 0.059637 0
M  V30 7 O 3.567407 5.400776 -0.232290 0
M  V30 8 N 1.280070 5.044726 -0.156696 0
M  V30 9 C 1.060226 6.359480 -0.719084 0
M  V30 10 C -0.146978 7.126450 -0.176746 0
M  V30 11 C -0.187357 6.561358 -1.539444 0
M  V30 12 C 2.020344 2.383237 0.995475 0
M  V30 13 C 2.414555 1.171022 1.520002 0
M  V30 14 N 1.365403 0.281355 1.876499 0
M  V30 15 C 1.274068 -0.308204 3.106286 0
M  V30 16 C 0.239403 -1.153178 3.420234 0
M  V30 17 N -0.688442 -1.386941 2.479253 0
M  V30 18 C -0.648713 -0.834945 1.254870 0
M  V30 19 N -1.672367 -1.129790 0.317591 0
M  V30 20 C -2.818978 -1.972123 0.479602 0 CFG=1
M  V30 21 C -3.743753 -1.953111 -0.690624 0
M  V30 22 C -3.422101 -2.126948 -1.992954 0
M  V30 23 C -4.296495 -2.088214 -3.052414 0
M  V30 24 C -5.625816 -1.856580 -2.829033 0
M  V30 25 C -6.059056 -1.665251 -1.537049 0
M  V30 26 C -5.126791 -1.717133 -0.522731 0
M  V30 27 C -2.612070 -3.352725 0.943757 0 CFG=1
M  V30 28 C -4.039005 -3.979244 1.042690 0
M  V30 29 C -1.730456 -4.299710 0.239558 0
M  V30 30 N -0.387504 -4.144000 0.038245 0
M  V30 31 C 0.286510 -3.284439 -0.800883 0
M  V30 32 C 1.201658 -4.032398 -1.814623 0
M  V30 33 C 2.237205 -4.741983 -0.971798 0
M  V30 34 C 1.527629 -5.673795 -0.040808 0
M  V30 35 C 0.498159 -4.978722 0.816634 0
M  V30 36 C 0.406187 0.007591 0.977479 0
M  V30 37 O 0.428862 0.518517 -0.177472 0
M  V30 38 H 3.366398 -1.217857 2.124347 0
M  V30 39 H 5.024636 -0.861086 1.629877 0
M  V30 40 H 4.503732 -0.336970 3.277745 0
M  V30 41 H 5.740691 1.566764 1.445144 0
M  V30 42 H 5.082524 3.691190 0.524588 0
M  V30 43 H 0.461183 4.445435 0.071080 0
M  V30 44 H 1.956147 6.972729 -0.949923 0
M  V30 45 H 0.009221 8.227612 -0.064499 0
M  V30 46 H -0.726620 6.642468 0.630775 0
M  V30 47 H -0.788420 5.650358 -1.711897 0
M  V30 48 H -0.100969 7.296086 -2.384307 0
M  V30 49 H 0.979573 2.632081 0.860905 0
M  V30 50 H 2.089490 -0.026666 3.766393 0
M  V30 51 H 0.329591 -1.515158 4.414345 0
M  V30 52 H -1.582921 -0.670776 -0.631654 0
M  V30 53 H -3.428660 -1.413668 1.284481 0
M  V30 54 H -2.402825 -2.313755 -2.270428 0
M  V30 55 H -3.974303 -2.236451 -4.071667 0
M  V30 56 H -6.369438 -1.813712 -3.609262 0
M  V30 57 H -7.094510 -1.481329 -1.321979 0
M  V30 58 H -5.536014 -1.551988 0.485677 0
M  V30 59 H -2.301817 -3.385270 2.047779 0
M  V30 60 H -4.654900 -3.364219 1.712750 0
M  V30 61 H -3.967660 -4.982927 1.508964 0
M  V30 62 H -4.438293 -3.977686 0.036704 0
M  V30 63 H -1.859273 -5.296719 0.822902 0
M  V30 64 H -2.206618 -4.630792 -0.755729 0
M  V30 65 H 1.006148 -2.651394 -0.202882 0
M  V30 66 H -0.263355 -2.593645 -1.429761 0
M  V30 67 H 1.651498 -3.211873 -2.427172 0
M  V30 68 H 0.577603 -4.732300 -2.370548 0
M  V30 69 H 2.830975 -5.368608 -1.676057 0
M  V30 70 H 2.902692 -4.014963 -0.469916 0
M  V30 71 H 1.104652 -6.503755 -0.641116 0
M  V30 72 H 2.283480 -6.113244 0.647577 0
M  V30 73 H -0.037562 -5.743859 1.389645 0
M  V30 74 H 1.034997 -4.326193 1.534956 0
M  V30 END ATOM
M  V30 BEGIN BOND
M  V30 1 1 1 2
M  V30 2 2 2 3
M  V30 3 1 3 4
M  V30 4 2 4 5
M  V30 5 1 5 6
M  V30 6 2 6 7
M  V30 7 1 6 8
M  V30 8 1 8 9
M  V30 9 1 9 10
M  V30 10 1 10 11
M  V30 11 1 5 12
M  V30 12 2 12 13
M  V30 13 1 13 14
M  V30 14 1 14 15
M  V30 15 2 15 16
M  V30 16 1 16 17
M  V30 17 2 17 18
M  V30 18 1 18 19
M  V30 19 1 19 20
M  V30 20 1 20 21
M  V30 21 2 21 22
M  V30 22 1 22 23
M  V30 23 2 23 24
M  V30 24 1 24 25
M  V30 25 2 25 26
M  V30 26 1 20 27
M  V30 27 1 27 28
M  V30 28 1 27 29
M  V30 29 1 29 30
M  V30 30 1 30 31
M  V30 31 1 31 32
M  V30 32 1 32 33
M  V30 33 1 33 34
M  V30 34 1 34 35
M  V30 35 1 18 36
M  V30 36 2 36 37
M  V30 37 1 13 2
M  V30 38 1 36 14
M  V30 39 1 11 9
M  V30 40 1 26 21
M  V30 41 1 35 30
M  V30 42 1 1 38
M  V30 43 1 1 39
M  V30 44 1 1 40
M  V30 45 1 3 41
M  V30 46 1 4 42
M  V30 47 1 8 43
M  V30 48 1 9 44
M  V30 49 1 10 45
M  V30 50 1 10 46
M  V30 51 1 11 47
M  V30 52 1 11 48
M  V30 53 1 12 49
M  V30 54 1 15 50
M  V30 55 1 16 51
M  V30 56 1 19 52
M  V30 57 1 20 53 CFG=1
M  V30 58 1 22 54
M  V30 59 1 23 55
M  V30 60 1 24 56
M  V30 61 1 25 57
M  V30 62 1 26 58
M  V30 63 1 27 59 CFG=1
M  V30 64 1 28 60
M  V30 65 1 28 61
M  V30 66 1 28 62
M  V30 67 1 29 63
M  V30 68 1 29 64
M  V30 69 1 31 65
M  V30 70 1 31 66
M  V30 71 1 32 67
M  V30 72 1 32 68
M  V30 73 1 33 69
M  V30 74 1 33 70
M  V30 75 1 34 71
M  V30 76 1 34 72
M  V30 77 1 35 73
M  V30 78 1 35 74
M  V30 END BOND
M  V30 END CTAB
M  END
>  <Dataset>  (850) 
ChEMBL_Kinases

>  <Ligand_Instance>  (850) 
nan

>  <PDB_ID>  (850) 
nan

>  <Standardized_SMILES>  (850) 
Cc1ccc(C(=O)NC2CC2)cc1-n1ccnc(N[C@@H](c2ccccc2)[C@@H](C)CN2CCCCC2)c1=O

>  <Name>  (850) 
nan

>  <Pocket>  (850) 
nan

>  <ATP_Site>  (850) 
nan

>  <Peripheral>  (850) 
nan

>  <Num_H_Atoms_ProtBoundConf>  (850) 
nan

>  <Num_Resolved_Atoms>  (850) 
nan

>  <Num_Not_Resolved_Atoms>  (850) 
nan

$$$$
CHEMBL4763380
     RDKit          3D

  0  0  0  0  0  0  0  0  0  0999 V3000
M  V30 BEGIN CTAB
M  V30 COUNTS 38 41 0 0 0
M  V30 BEGIN ATOM
M  V30 1 C -0.925440 -4.737244 6.641117 0
M  V30 2 C -0.899533 -3.936287 5.717772 0
M  V30 3 C -0.890499 -3.000905 4.629062 0
M  V30 4 N 0.106175 -3.055082 3.735488 0
M  V30 5 C 0.177914 -2.225092 2.708189 0
M  V30 6 N 1.255050 -2.319587 1.784006 0
M  V30 7 C 1.525618 -1.543070 0.626919 0
M  V30 8 C 2.635307 -1.787291 -0.154918 0
M  V30 9 C 2.932102 -1.058698 -1.281904 0
M  V30 10 C 2.119203 -0.028935 -1.692889 0
M  V30 11 C 1.001543 0.250529 -0.944192 0
M  V30 12 C 0.739906 -0.503707 0.178742 0
M  V30 13 C 0.135164 1.342828 -1.377356 0
M  V30 14 O -0.913037 1.629866 -0.703847 0
M  V30 15 N 0.495622 2.074715 -2.570443 0
M  V30 16 C 0.072050 3.483105 -2.621782 0
M  V30 17 C 1.230458 1.282030 -3.539774 0
M  V30 18 C 2.473916 0.729743 -2.909089 0
M  V30 19 N -0.811656 -1.325505 2.618668 0
M  V30 20 C -1.839996 -1.198944 3.459034 0
M  V30 21 N -2.912286 -0.386343 3.549313 0
M  V30 22 C -3.635989 -0.728205 4.638363 0
M  V30 23 N -2.997819 -1.764004 5.222297 0
M  V30 24 C -1.898888 -2.070867 4.522432 0
M  V30 25 H -0.941388 -5.428311 7.443151 0
M  V30 26 H 1.965619 -3.076792 1.977502 0
M  V30 27 H 3.312762 -2.586819 0.119783 0
M  V30 28 H 3.808944 -1.299222 -1.844708 0
M  V30 29 H -0.139382 -0.219601 0.693501 0
M  V30 30 H -0.931936 3.555005 -2.148639 0
M  V30 31 H 0.805008 4.066362 -2.062022 0
M  V30 32 H -0.088251 3.803442 -3.673453 0
M  V30 33 H 1.439839 1.886130 -4.435451 0
M  V30 34 H 0.600809 0.426446 -3.876768 0
M  V30 35 H 3.059507 1.622170 -2.539408 0
M  V30 36 H 3.082331 0.155217 -3.611772 0
M  V30 37 H -3.127871 0.374432 2.877583 0
M  V30 38 H -4.546156 -0.222643 4.927674 0
M  V30 END ATOM
M  V30 BEGIN BOND
M  V30 1 3 1 2
M  V30 2 1 2 3
M  V30 3 2 3 4
M  V30 4 1 4 5
M  V30 5 1 5 6
M  V30 6 1 6 7
M  V30 7 2 7 8
M  V30 8 1 8 9
M  V30 9 2 9 10
M  V30 10 1 10 11
M  V30 11 2 11 12
M  V30 12 1 11 13
M  V30 13 2 13 14
M  V30 14 1 13 15
M  V30 15 1 15 16
M  V30 16 1 15 17
M  V30 17 1 17 18
M  V30 18 2 5 19
M  V30 19 1 19 20
M  V30 20 1 20 21
M  V30 21 1 21 22
M  V30 22 2 22 23
M  V30 23 1 23 24
M  V30 24 1 24 3
M  V30 25 1 12 7
M  V30 26 2 24 20
M  V30 27 1 18 10
M  V30 28 1 1 25
M  V30 29 1 6 26
M  V30 30 1 8 27
M  V30 31 1 9 28
M  V30 32 1 12 29
M  V30 33 1 16 30
M  V30 34 1 16 31
M  V30 35 1 16 32
M  V30 36 1 17 33
M  V30 37 1 17 34
M  V30 38 1 18 35
M  V30 39 1 18 36
M  V30 40 1 21 37
M  V30 41 1 22 38
M  V30 END BOND
M  V30 END CTAB
M  END
>  <Dataset>  (851) 
ChEMBL_Kinases

>  <Ligand_Instance>  (851) 
nan

>  <PDB_ID>  (851) 
nan

>  <Standardized_SMILES>  (851) 
C#Cc1nc(Nc2ccc3c(c2)C(=O)N(C)CC3)nc2[nH]cnc12

>  <Name>  (851) 
nan

>  <Pocket>  (851) 
nan

>  <ATP_Site>  (851) 
nan

>  <Peripheral>  (851) 
nan

>  <Num_H_Atoms_ProtBoundConf>  (851) 
nan

>  <Num_Resolved_Atoms>  (851) 
nan

>  <Num_Not_Resolved_Atoms>  (851) 
nan

$$$$
CHEMBL4763191
     RDKit          3D

  0  0  0  0  0  0  0  0  0  0999 V3000
M  V30 BEGIN CTAB
M  V30 COUNTS 54 60 0 0 0
M  V30 BEGIN ATOM
M  V30 1 O 3.851149 -4.078967 -2.532740 0
M  V30 2 C 4.991157 -4.272836 -1.999739 0
M  V30 3 N 5.110605 -3.966416 -0.626424 0
M  V30 4 C 3.824112 -3.488096 -0.181446 0
M  V30 5 C 2.959195 -4.454874 0.291173 0
M  V30 6 N 1.767095 -3.994348 0.701108 0
M  V30 7 C 1.454302 -2.683076 0.648355 0
M  V30 8 C 2.319097 -1.703704 0.174094 0
M  V30 9 C 1.865721 -0.317447 0.166937 0
M  V30 10 C 2.641635 0.705577 -0.277921 0
M  V30 11 C 2.206786 2.022539 -0.283039 0
M  V30 12 C 0.921238 2.243845 0.196089 0
M  V30 13 N 0.266057 3.410489 0.298399 0
M  V30 14 N -0.916592 3.126700 0.804752 0
M  V30 15 C -1.029612 1.802410 1.027746 0
M  V30 16 C -2.182001 1.095166 1.578995 0
M  V30 17 N -3.347120 1.648489 1.965421 0
M  V30 18 C -4.203120 0.745246 2.425680 0
M  V30 19 C -5.484011 0.907001 2.910606 0
M  V30 20 C -6.176930 2.205651 3.009785 0
M  V30 21 C -5.766092 3.428089 2.682419 0
M  V30 22 C -6.556653 4.507996 2.849668 0
M  V30 23 C -7.816923 4.270520 3.380376 0
M  V30 24 S -7.799893 2.395376 3.626426 0
M  V30 25 C -6.141010 -0.231343 3.323775 0
M  V30 26 C -5.520971 -1.456452 3.243449 0
M  V30 27 C -4.254134 -1.590755 2.760388 0
M  V30 28 C -3.572695 -0.460389 2.338620 0
M  V30 29 N -2.351956 -0.217409 1.822969 0
M  V30 30 C 0.145528 1.188260 0.645251 0
M  V30 31 N 0.638177 -0.062137 0.618523 0
M  V30 32 C 3.545605 -2.137351 -0.253085 0
M  V30 33 C 6.084449 -4.805428 -2.886459 0
M  V30 34 C 5.633446 -5.796514 -3.977838 0
M  V30 35 C 5.996861 -4.410598 -4.357802 0
M  V30 36 H 6.067205 -4.135156 -0.203386 0
M  V30 37 H 3.232252 -5.497523 0.323488 0
M  V30 38 H 0.456587 -2.483642 1.016499 0
M  V30 39 H 3.636559 0.539997 -0.649516 0
M  V30 40 H 2.814038 2.826517 -0.631656 0
M  V30 41 H 0.530010 4.387588 0.062386 0
M  V30 42 H -4.750011 3.537086 2.265607 0
M  V30 43 H -6.288542 5.540682 2.604346 0
M  V30 44 H -8.614731 5.128555 3.580399 0
M  V30 45 H -7.161056 -0.160053 3.717702 0
M  V30 46 H -6.074984 -2.320797 3.578994 0
M  V30 47 H -3.744966 -2.542668 2.687138 0
M  V30 48 H -1.634972 -0.957388 1.638961 0
M  V30 49 H 4.237812 -1.409086 -0.625213 0
M  V30 50 H 7.081121 -4.983463 -2.455080 0
M  V30 51 H 4.567169 -6.060440 -3.954281 0
M  V30 52 H 6.305202 -6.649836 -4.205041 0
M  V30 53 H 5.178907 -3.713515 -4.626088 0
M  V30 54 H 6.950856 -4.145526 -4.831071 0
M  V30 END ATOM
M  V30 BEGIN BOND
M  V30 1 2 1 2
M  V30 2 1 2 3
M  V30 3 1 3 4
M  V30 4 2 4 5
M  V30 5 1 5 6
M  V30 6 2 6 7
M  V30 7 1 7 8
M  V30 8 1 8 9
M  V30 9 2 9 10
M  V30 10 1 10 11
M  V30 11 2 11 12
M  V30 12 1 12 13
M  V30 13 1 13 14
M  V30 14 2 14 15
M  V30 15 1 15 16
M  V30 16 2 16 17
M  V30 17 1 17 18
M  V30 18 2 18 19
M  V30 19 1 19 20
M  V30 20 2 20 21
M  V30 21 1 21 22
M  V30 22 2 22 23
M  V30 23 1 23 24
M  V30 24 1 19 25
M  V30 25 2 25 26
M  V30 26 1 26 27
M  V30 27 2 27 28
M  V30 28 1 28 29
M  V30 29 1 15 30
M  V30 30 2 30 31
M  V30 31 2 8 32
M  V30 32 1 2 33
M  V30 33 1 33 34
M  V30 34 1 34 35
M  V30 35 1 32 4
M  V30 36 1 35 33
M  V30 37 1 31 9
M  V30 38 1 30 12
M  V30 39 1 29 16
M  V30 40 1 28 18
M  V30 41 1 24 20
M  V30 42 1 3 36
M  V30 43 1 5 37
M  V30 44 1 7 38
M  V30 45 1 10 39
M  V30 46 1 11 40
M  V30 47 1 13 41
M  V30 48 1 21 42
M  V30 49 1 22 43
M  V30 50 1 23 44
M  V30 51 1 25 45
M  V30 52 1 26 46
M  V30 53 1 27 47
M  V30 54 1 29 48
M  V30 55 1 32 49
M  V30 56 1 33 50
M  V30 57 1 34 51
M  V30 58 1 34 52
M  V30 59 1 35 53
M  V30 60 1 35 54
M  V30 END BOND
M  V30 END CTAB
M  END
>  <Dataset>  (852) 
ChEMBL_Kinases

>  <Ligand_Instance>  (852) 
nan

>  <PDB_ID>  (852) 
nan

>  <Standardized_SMILES>  (852) 
O=C(Nc1cncc(-c2ccc3[nH]nc(-c4nc5c(-c6cccs6)cccc5[nH]4)c3n2)c1)C1CC1

>  <Name>  (852) 
nan

>  <Pocket>  (852) 
nan

>  <ATP_Site>  (852) 
nan

>  <Peripheral>  (852) 
nan

>  <Num_H_Atoms_ProtBoundConf>  (852) 
nan

>  <Num_Resolved_Atoms>  (852) 
nan

>  <Num_Not_Resolved_Atoms>  (852) 
nan

$$$$
CHEMBL4763016
     RDKit          3D

  0  0  0  0  0  0  0  0  0  0999 V3000
M  V30 BEGIN CTAB
M  V30 COUNTS 46 49 0 0 0
M  V30 BEGIN ATOM
M  V30 1 C 0.608461 -4.485396 -0.645899 0
M  V30 2 N 1.157568 -3.255631 -1.189103 0
M  V30 3 C 2.163642 -3.272133 -2.198025 0
M  V30 4 O 2.668242 -4.423528 -2.332016 0
M  V30 5 C 2.625552 -2.163448 -3.024546 0
M  V30 6 C 3.687110 -2.581185 -3.806735 0
M  V30 7 F 4.145375 -3.860615 -3.730318 0
M  V30 8 C 4.261562 -1.658444 -4.662812 0
M  V30 9 C 3.778880 -0.367446 -4.721965 0
M  V30 10 C 2.714413 0.041479 -3.933882 0
M  V30 11 C 2.123335 -0.863178 -3.069907 0
M  V30 12 O 1.054994 -0.326068 -2.326698 0
M  V30 13 C 0.551530 -0.804037 -1.124669 0
M  V30 14 C -0.057058 0.193781 -0.391260 0
M  V30 15 C -0.648383 -0.003142 0.854097 0
M  V30 16 N -1.267090 1.050136 1.581461 0
M  V30 17 C -1.867370 0.783957 2.876686 0 CFG=1
M  V30 18 C -0.878178 0.257608 3.885182 0
M  V30 19 C -1.540609 0.360625 5.255601 0
M  V30 20 C -1.562726 1.826871 5.624255 0 CFG=2
M  V30 21 O -2.340972 2.055800 6.760077 0
M  V30 22 C -1.988447 2.705708 4.480254 0
M  V30 23 C -2.678030 1.927341 3.383164 0
M  V30 24 N -0.578651 -1.271159 1.296987 0
M  V30 25 C 0.002118 -2.280457 0.623173 0
M  V30 26 C 0.587769 -2.084448 -0.610679 0
M  V30 27 H -0.499987 -4.464038 -0.581579 0
M  V30 28 H 0.806914 -5.281631 -1.423373 0
M  V30 29 H 1.119972 -4.846359 0.255706 0
M  V30 30 H 5.090433 -2.005072 -5.265875 0
M  V30 31 H 4.252797 0.334726 -5.405959 0
M  V30 32 H 2.318965 1.042041 -3.960857 0
M  V30 33 H -0.072727 1.188684 -0.815081 0
M  V30 34 H -1.259603 1.992769 1.135471 0
M  V30 35 H -2.595191 -0.064425 2.713192 0
M  V30 36 H 0.025544 0.906355 3.839983 0
M  V30 37 H -0.646889 -0.786085 3.624430 0
M  V30 38 H -0.959157 -0.189238 6.022336 0
M  V30 39 H -2.574375 -0.002734 5.138853 0
M  V30 40 H -0.522921 2.109087 5.891498 0
M  V30 41 H -1.907701 1.740210 7.572026 0
M  V30 42 H -1.154795 3.335814 4.089936 0
M  V30 43 H -2.744406 3.425563 4.873920 0
M  V30 44 H -3.682062 1.642298 3.759559 0
M  V30 45 H -2.863475 2.657022 2.551616 0
M  V30 46 H 0.033921 -3.284446 1.019676 0
M  V30 END ATOM
M  V30 BEGIN BOND
M  V30 1 1 1 2
M  V30 2 1 2 3
M  V30 3 2 3 4
M  V30 4 1 3 5
M  V30 5 2 5 6
M  V30 6 1 6 7
M  V30 7 1 6 8
M  V30 8 2 8 9
M  V30 9 1 9 10
M  V30 10 2 10 11
M  V30 11 1 11 12
M  V30 12 1 12 13
M  V30 13 2 13 14
M  V30 14 1 14 15
M  V30 15 1 15 16
M  V30 16 1 16 17
M  V30 17 1 17 18
M  V30 18 1 18 19
M  V30 19 1 19 20
M  V30 20 1 20 21
M  V30 21 1 20 22
M  V30 22 1 22 23
M  V30 23 2 15 24
M  V30 24 1 24 25
M  V30 25 2 25 26
M  V30 26 1 26 2
M  V30 27 1 11 5
M  V30 28 1 26 13
M  V30 29 1 23 17
M  V30 30 1 1 27
M  V30 31 1 1 28
M  V30 32 1 1 29
M  V30 33 1 8 30
M  V30 34 1 9 31
M  V30 35 1 10 32
M  V30 36 1 14 33
M  V30 37 1 16 34
M  V30 38 1 17 35 CFG=3
M  V30 39 1 18 36
M  V30 40 1 18 37
M  V30 41 1 19 38
M  V30 42 1 19 39
M  V30 43 1 20 40 CFG=1
M  V30 44 1 21 41
M  V30 45 1 22 42
M  V30 46 1 22 43
M  V30 47 1 23 44
M  V30 48 1 23 45
M  V30 49 1 25 46
M  V30 END BOND
M  V30 END CTAB
M  END
>  <Dataset>  (853) 
ChEMBL_Kinases

>  <Ligand_Instance>  (853) 
nan

>  <PDB_ID>  (853) 
nan

>  <Standardized_SMILES>  (853) 
CN1C(=O)c2c(F)cccc2Oc2cc(N[C@H]3CC[C@H](O)CC3)ncc21

>  <Name>  (853) 
nan

>  <Pocket>  (853) 
nan

>  <ATP_Site>  (853) 
nan

>  <Peripheral>  (853) 
nan

>  <Num_H_Atoms_ProtBoundConf>  (853) 
nan

>  <Num_Resolved_Atoms>  (853) 
nan

>  <Num_Not_Resolved_Atoms>  (853) 
nan

$$$$
CHEMBL4276858
     RDKit          3D

  0  0  0  0  0  0  0  0  0  0999 V3000
M  V30 BEGIN CTAB
M  V30 COUNTS 37 40 0 0 0
M  V30 BEGIN ATOM
M  V30 1 N 2.783221 -3.572226 -3.610315 0
M  V30 2 C 3.307412 -3.450512 -2.579068 0
M  V30 3 C 3.948378 -3.322343 -1.304900 0
M  V30 4 C 5.099466 -4.038761 -1.066704 0
M  V30 5 C 5.708588 -3.903926 0.173825 0
M  V30 6 C 5.157009 -3.073113 1.116797 0
M  V30 7 C 3.993041 -2.328616 0.919540 0
M  V30 8 N 3.490049 -1.487650 1.943883 0
M  V30 9 C 2.299331 -0.724990 1.853074 0
M  V30 10 N 1.296724 -1.339019 1.278828 0
M  V30 11 N 0.059017 -0.705210 1.121273 0
M  V30 12 C -0.198236 0.493138 1.510965 0
M  V30 13 C -1.571780 0.890150 1.214901 0
M  V30 14 C -2.093253 2.144561 1.538257 0
M  V30 15 C -3.377018 2.561062 1.280816 0
M  V30 16 C -4.230512 1.680765 0.653323 0
M  V30 17 N -5.524779 1.734982 0.249652 0
M  V30 18 C -5.841984 0.557803 -0.318719 0
M  V30 19 O -6.948876 0.217837 -0.816380 0
M  V30 20 N -4.787493 -0.292284 -0.307599 0
M  V30 21 C -3.811452 0.417564 0.292846 0
M  V30 22 C -2.510408 0.070167 0.583234 0
M  V30 23 C 0.608093 1.565725 2.201735 0
M  V30 24 S 2.286319 0.955008 2.518279 0
M  V30 25 C 3.441078 -2.507040 -0.326892 0
M  V30 26 H 5.575727 -4.704233 -1.768402 0
M  V30 27 H 6.619144 -4.459412 0.386436 0
M  V30 28 H 5.668862 -2.997182 2.077961 0
M  V30 29 H 4.051535 -1.428833 2.833081 0
M  V30 30 H -1.440226 2.847424 2.029896 0
M  V30 31 H -3.710127 3.550757 1.561671 0
M  V30 32 H -6.152798 2.561191 0.369222 0
M  V30 33 H -4.759766 -1.264007 -0.681627 0
M  V30 34 H -2.172769 -0.924040 0.301958 0
M  V30 35 H 0.610786 2.495230 1.604047 0
M  V30 36 H 0.178584 1.801786 3.191333 0
M  V30 37 H 2.546759 -1.978179 -0.583255 0
M  V30 END ATOM
M  V30 BEGIN BOND
M  V30 1 3 1 2
M  V30 2 1 2 3
M  V30 3 2 3 4
M  V30 4 1 4 5
M  V30 5 2 5 6
M  V30 6 1 6 7
M  V30 7 1 7 8
M  V30 8 1 8 9
M  V30 9 2 9 10
M  V30 10 1 10 11
M  V30 11 2 11 12
M  V30 12 1 12 13
M  V30 13 2 13 14
M  V30 14 1 14 15
M  V30 15 2 15 16
M  V30 16 1 16 17
M  V30 17 1 17 18
M  V30 18 2 18 19
M  V30 19 1 18 20
M  V30 20 1 20 21
M  V30 21 2 21 22
M  V30 22 1 12 23
M  V30 23 1 23 24
M  V30 24 2 7 25
M  V30 25 1 25 3
M  V30 26 1 24 9
M  V30 27 1 22 13
M  V30 28 1 21 16
M  V30 29 1 4 26
M  V30 30 1 5 27
M  V30 31 1 6 28
M  V30 32 1 8 29
M  V30 33 1 14 30
M  V30 34 1 15 31
M  V30 35 1 17 32
M  V30 36 1 20 33
M  V30 37 1 22 34
M  V30 38 1 23 35
M  V30 39 1 23 36
M  V30 40 1 25 37
M  V30 END BOND
M  V30 END CTAB
M  END
>  <Dataset>  (854) 
ChEMBL_Kinases

>  <Ligand_Instance>  (854) 
nan

>  <PDB_ID>  (854) 
nan

>  <Standardized_SMILES>  (854) 
N#Cc1cccc(NC2=NN=C(c3ccc4[nH]c(=O)[nH]c4c3)CS2)c1

>  <Name>  (854) 
nan

>  <Pocket>  (854) 
nan

>  <ATP_Site>  (854) 
nan

>  <Peripheral>  (854) 
nan

>  <Num_H_Atoms_ProtBoundConf>  (854) 
nan

>  <Num_Resolved_Atoms>  (854) 
nan

>  <Num_Not_Resolved_Atoms>  (854) 
nan

$$$$
CHEMBL427684
     RDKit          3D

  0  0  0  0  0  0  0  0  0  0999 V3000
M  V30 BEGIN CTAB
M  V30 COUNTS 44 49 0 0 0
M  V30 BEGIN ATOM
M  V30 1 O -1.201367 -2.695958 3.129034 0
M  V30 2 C -0.531227 -3.477898 2.450464 0
M  V30 3 N -0.444835 -4.778533 3.004699 0
M  V30 4 C 0.345609 -5.621815 2.162042 0
M  V30 5 O 0.678017 -6.832493 2.265523 0
M  V30 6 C 0.723870 -4.719029 1.060119 0
M  V30 7 C 0.212023 -3.451816 1.220077 0
M  V30 8 C 0.445212 -2.466664 0.311520 0
M  V30 9 C 0.035113 -1.169979 0.289162 0
M  V30 10 C -0.696312 -0.260703 1.000079 0
M  V30 11 C -0.907476 1.077669 0.629982 0
M  V30 12 O -1.665744 1.746110 1.511230 0
M  V30 13 C -2.065712 3.061540 1.491266 0
M  V30 14 C -0.951794 4.026216 1.554912 0
M  V30 15 C -0.222057 4.793956 0.688793 0
M  V30 16 C 0.804468 5.598529 1.061792 0
M  V30 17 C 1.199873 5.706123 2.379897 0
M  V30 18 C 0.506236 4.958628 3.311343 0
M  V30 19 C -0.550021 4.135742 2.896041 0
M  V30 20 C -0.291855 1.407629 -0.555120 0
M  V30 21 C 0.461884 0.565689 -1.338067 0
M  V30 22 C 0.605961 -0.707902 -0.892304 0
M  V30 23 N 1.311935 -1.691819 -1.521478 0
M  V30 24 C 1.219670 -2.803968 -0.775608 0
M  V30 25 C 1.744806 -4.067186 -0.959449 0
M  V30 26 C 2.537386 -4.599008 -1.972195 0
M  V30 27 C 2.766265 -5.909868 -1.645680 0
M  V30 28 C 2.106606 -6.114150 -0.456781 0
M  V30 29 N 1.485300 -4.993541 -0.039266 0
M  V30 30 H -0.827767 -5.245595 3.881219 0
M  V30 31 H -1.126734 -0.612683 1.892870 0
M  V30 32 H -2.843667 3.298907 2.271260 0
M  V30 33 H -2.638788 3.268287 0.528697 0
M  V30 34 H -0.608763 4.658722 -0.313564 0
M  V30 35 H 1.252409 6.119357 0.239247 0
M  V30 36 H 2.012385 6.358616 2.584060 0
M  V30 37 H 0.853748 5.080632 4.312704 0
M  V30 38 H -0.963580 3.632881 3.784250 0
M  V30 39 H -0.441515 2.419692 -0.876514 0
M  V30 40 H 0.893345 0.939405 -2.244138 0
M  V30 41 H 1.842198 -1.645357 -2.414192 0
M  V30 42 H 2.867339 -4.024693 -2.819386 0
M  V30 43 H 3.355956 -6.565939 -2.259910 0
M  V30 44 H 2.109486 -7.068552 0.048956 0
M  V30 END ATOM
M  V30 BEGIN BOND
M  V30 1 2 1 2
M  V30 2 1 2 3
M  V30 3 1 3 4
M  V30 4 2 4 5
M  V30 5 1 4 6
M  V30 6 2 6 7
M  V30 7 1 7 8
M  V30 8 1 8 9
M  V30 9 2 9 10
M  V30 10 1 10 11
M  V30 11 1 11 12
M  V30 12 1 12 13
M  V30 13 1 13 14
M  V30 14 2 14 15
M  V30 15 1 15 16
M  V30 16 2 16 17
M  V30 17 1 17 18
M  V30 18 2 18 19
M  V30 19 2 11 20
M  V30 20 1 20 21
M  V30 21 2 21 22
M  V30 22 1 22 23
M  V30 23 1 23 24
M  V30 24 1 24 25
M  V30 25 2 25 26
M  V30 26 1 26 27
M  V30 27 2 27 28
M  V30 28 1 28 29
M  V30 29 1 7 2
M  V30 30 2 24 8
M  V30 31 1 29 25
M  V30 32 1 29 6
M  V30 33 1 22 9
M  V30 34 1 19 14
M  V30 35 1 3 30
M  V30 36 1 10 31
M  V30 37 1 13 32
M  V30 38 1 13 33
M  V30 39 1 15 34
M  V30 40 1 16 35
M  V30 41 1 17 36
M  V30 42 1 18 37
M  V30 43 1 19 38
M  V30 44 1 20 39
M  V30 45 1 21 40
M  V30 46 1 23 41
M  V30 47 1 26 42
M  V30 48 1 27 43
M  V30 49 1 28 44
M  V30 END BOND
M  V30 END CTAB
M  END
>  <Dataset>  (855) 
ChEMBL_Kinases

>  <Ligand_Instance>  (855) 
nan

>  <PDB_ID>  (855) 
nan

>  <Standardized_SMILES>  (855) 
O=C1NC(=O)c2c1c1c3cc(OCc4ccccc4)ccc3[nH]c1c1cccn21

>  <Name>  (855) 
nan

>  <Pocket>  (855) 
nan

>  <ATP_Site>  (855) 
nan

>  <Peripheral>  (855) 
nan

>  <Num_H_Atoms_ProtBoundConf>  (855) 
nan

>  <Num_Resolved_Atoms>  (855) 
nan

>  <Num_Not_Resolved_Atoms>  (855) 
nan

$$$$
CHEMBL4276766
     RDKit          3D

  0  0  0  0  0  0  0  0  0  0999 V3000
M  V30 BEGIN CTAB
M  V30 COUNTS 78 82 0 0 0
M  V30 BEGIN ATOM
M  V30 1 C 2.874202 -4.139746 7.786152 0
M  V30 2 O 2.257080 -3.539042 6.666832 0
M  V30 3 C 2.773079 -2.472970 5.961425 0
M  V30 4 C 4.001669 -1.997658 6.438627 0
M  V30 5 C 4.631466 -0.949340 5.838345 0
M  V30 6 C 4.074086 -0.334737 4.751006 0
M  V30 7 C 2.884542 -0.804215 4.300235 0
M  V30 8 O 2.353030 -0.174221 3.218481 0
M  V30 9 C 2.933471 0.910605 2.540262 0
M  V30 10 C 2.177678 -1.866819 4.855163 0
M  V30 11 C 0.906473 -2.395340 4.419283 0
M  V30 12 O 0.483265 -3.342833 5.170274 0
M  V30 13 C 0.009097 -2.091636 3.324296 0
M  V30 14 N -1.129055 -2.788055 3.319417 0
M  V30 15 C -2.106367 -2.649800 2.374232 0
M  V30 16 N -3.240501 -3.455836 2.510985 0
M  V30 17 C -4.462614 -3.727424 1.923074 0
M  V30 18 C -5.696825 -3.128458 2.194044 0
M  V30 19 C -6.671753 -3.671373 1.382655 0
M  V30 20 C -8.124522 -3.390810 1.267966 0
M  V30 21 N -6.021107 -4.597073 0.624263 0
M  V30 22 N -4.739237 -4.623411 0.944460 0
M  V30 23 C -1.838537 -1.722174 1.401477 0
M  V30 24 C -2.781182 -1.533013 0.426675 0
M  V30 25 C -2.533457 -0.603583 -0.560710 0
M  V30 26 C -1.390881 0.164595 -0.644794 0
M  V30 27 N -1.125129 1.134530 -1.649425 0
M  V30 28 C -2.051914 1.590318 -2.654869 0
M  V30 29 C -1.445020 1.710214 -4.032667 0
M  V30 30 C -0.382578 2.764738 -3.961271 0
M  V30 31 C 0.780963 2.422274 -4.832388 0
M  V30 32 O 1.172251 3.191378 -5.758952 0
M  V30 33 O 1.485724 1.246145 -4.664016 0
M  V30 34 C 2.597153 0.969409 -5.531300 0
M  V30 35 C 3.652896 2.044995 -5.389905 0
M  V30 36 C 2.133933 0.969908 -6.972235 0
M  V30 37 C 3.195822 -0.354086 -5.194558 0
M  V30 38 C 0.044930 3.012046 -2.544505 0
M  V30 39 C 0.176148 1.748897 -1.723378 0
M  V30 40 C -0.468891 -0.054618 0.353014 0
M  V30 41 C -0.686254 -0.975905 1.353530 0
M  V30 42 N 0.179908 -1.211005 2.333723 0
M  V30 43 H 2.936689 -3.382102 8.615131 0
M  V30 44 H 3.920236 -4.383464 7.520057 0
M  V30 45 H 2.394549 -5.073069 8.086090 0
M  V30 46 H 4.479286 -2.445719 7.287332 0
M  V30 47 H 5.585283 -0.597167 6.225700 0
M  V30 48 H 4.585169 0.487398 4.296903 0
M  V30 49 H 3.981544 0.720498 2.235015 0
M  V30 50 H 2.976133 1.759871 3.263665 0
M  V30 51 H 2.363020 1.245839 1.673679 0
M  V30 52 H -3.279467 -4.134330 3.312788 0
M  V30 53 H -5.894418 -2.350980 2.924048 0
M  V30 54 H -8.639652 -4.265094 0.830200 0
M  V30 55 H -8.238851 -2.486309 0.606547 0
M  V30 56 H -8.578333 -3.086622 2.231072 0
M  V30 57 H -6.373347 -5.251547 -0.132104 0
M  V30 58 H -3.701281 -2.085709 0.411298 0
M  V30 59 H -3.294042 -0.480717 -1.307171 0
M  V30 60 H -2.858479 0.839766 -2.745337 0
M  V30 61 H -2.555121 2.534277 -2.345876 0
M  V30 62 H -2.304816 1.999367 -4.703680 0
M  V30 63 H -1.032663 0.752052 -4.348932 0
M  V30 64 H -0.862954 3.712633 -4.308406 0
M  V30 65 H 3.297223 2.861132 -4.712693 0
M  V30 66 H 4.593692 1.616632 -4.964967 0
M  V30 67 H 3.889918 2.508869 -6.361401 0
M  V30 68 H 1.027824 0.801890 -6.981521 0
M  V30 69 H 2.598535 0.152208 -7.561244 0
M  V30 70 H 2.398870 1.927527 -7.442514 0
M  V30 71 H 2.594430 -0.944722 -4.472385 0
M  V30 72 H 3.271437 -1.012930 -6.104060 0
M  V30 73 H 4.232253 -0.282854 -4.779648 0
M  V30 74 H 0.956822 3.641911 -2.489453 0
M  V30 75 H -0.753235 3.627185 -2.051547 0
M  V30 76 H 0.533784 2.107483 -0.712562 0
M  V30 77 H 0.935836 1.080926 -2.176586 0
M  V30 78 H 0.465935 0.450535 0.439555 0
M  V30 END ATOM
M  V30 BEGIN BOND
M  V30 1 1 1 2
M  V30 2 1 2 3
M  V30 3 2 3 4
M  V30 4 1 4 5
M  V30 5 2 5 6
M  V30 6 1 6 7
M  V30 7 1 7 8
M  V30 8 1 8 9
M  V30 9 2 7 10
M  V30 10 1 10 11
M  V30 11 2 11 12
M  V30 12 1 11 13
M  V30 13 2 13 14
M  V30 14 1 14 15
M  V30 15 1 15 16
M  V30 16 1 16 17
M  V30 17 1 17 18
M  V30 18 2 18 19
M  V30 19 1 19 20
M  V30 20 1 19 21
M  V30 21 1 21 22
M  V30 22 2 15 23
M  V30 23 1 23 24
M  V30 24 2 24 25
M  V30 25 1 25 26
M  V30 26 1 26 27
M  V30 27 1 27 28
M  V30 28 1 28 29
M  V30 29 1 29 30
M  V30 30 1 30 31
M  V30 31 2 31 32
M  V30 32 1 31 33
M  V30 33 1 33 34
M  V30 34 1 34 35
M  V30 35 1 34 36
M  V30 36 1 34 37
M  V30 37 1 30 38
M  V30 38 1 38 39
M  V30 39 2 26 40
M  V30 40 1 40 41
M  V30 41 2 41 42
M  V30 42 1 10 3
M  V30 43 1 42 13
M  V30 44 2 22 17
M  V30 45 1 41 23
M  V30 46 1 39 27
M  V30 47 1 1 43
M  V30 48 1 1 44
M  V30 49 1 1 45
M  V30 50 1 4 46
M  V30 51 1 5 47
M  V30 52 1 6 48
M  V30 53 1 9 49
M  V30 54 1 9 50
M  V30 55 1 9 51
M  V30 56 1 16 52
M  V30 57 1 18 53
M  V30 58 1 20 54
M  V30 59 1 20 55
M  V30 60 1 20 56
M  V30 61 1 21 57
M  V30 62 1 24 58
M  V30 63 1 25 59
M  V30 64 1 28 60
M  V30 65 1 28 61
M  V30 66 1 29 62
M  V30 67 1 29 63
M  V30 68 1 30 64
M  V30 69 1 35 65
M  V30 70 1 35 66
M  V30 71 1 35 67
M  V30 72 1 36 68
M  V30 73 1 36 69
M  V30 74 1 36 70
M  V30 75 1 37 71
M  V30 76 1 37 72
M  V30 77 1 37 73
M  V30 78 1 38 74
M  V30 79 1 38 75
M  V30 80 1 39 76
M  V30 81 1 39 77
M  V30 82 1 40 78
M  V30 END BOND
M  V30 END CTAB
M  END
>  <Dataset>  (856) 
ChEMBL_Kinases

>  <Ligand_Instance>  (856) 
nan

>  <PDB_ID>  (856) 
nan

>  <Standardized_SMILES>  (856) 
COc1cccc(OC)c1C(=O)c1nc(Nc2cc(C)[nH]n2)c2ccc(N3CCC(C(=O)OC(C)(C)C)CC3)cc2n1

>  <Name>  (856) 
nan

>  <Pocket>  (856) 
nan

>  <ATP_Site>  (856) 
nan

>  <Peripheral>  (856) 
nan

>  <Num_H_Atoms_ProtBoundConf>  (856) 
nan

>  <Num_Resolved_Atoms>  (856) 
nan

>  <Num_Not_Resolved_Atoms>  (856) 
nan

$$$$
CHEMBL427561
     RDKit          3D

  0  0  0  0  0  0  0  0  0  0999 V3000
M  V30 BEGIN CTAB
M  V30 COUNTS 53 56 0 0 0
M  V30 BEGIN ATOM
M  V30 1 C 2.302660 -3.541829 1.270453 0
M  V30 2 C 2.085608 -2.061594 1.431878 0
M  V30 3 C 0.699885 -1.672535 1.580456 0
M  V30 4 O 0.676232 -2.915200 1.437816 0
M  V30 5 C -0.183695 -0.570322 1.774606 0
M  V30 6 C 0.338006 0.695747 1.888206 0
M  V30 7 C 1.746423 1.040454 1.811696 0
M  V30 8 C 2.286076 1.366582 0.561411 0
M  V30 9 C 3.625367 1.704659 0.447330 0
M  V30 10 C 4.440415 1.724825 1.554859 0
M  V30 11 C 3.940552 1.407076 2.812230 0
M  V30 12 C 2.602695 1.076129 2.883352 0
M  V30 13 C -0.527202 1.746167 2.087821 0
M  V30 14 C -0.063950 3.033619 2.208868 0
M  V30 15 C -0.927481 4.090681 2.409107 0
M  V30 16 Cl -0.264631 5.712641 2.555106 0
M  V30 17 C -2.280456 3.863309 2.490785 0
M  V30 18 C -2.766369 2.583366 2.372517 0
M  V30 19 C -1.885808 1.540960 2.172702 0
M  V30 20 C -2.301656 0.232487 2.044934 0
M  V30 21 O -3.569453 0.082963 2.129247 0
M  V30 22 N -1.492628 -0.831213 1.848093 0
M  V30 23 C -2.168687 -2.102813 1.748096 0
M  V30 24 C -2.524034 -2.314415 0.320654 0
M  V30 25 C -1.928100 -2.934728 -0.753228 0
M  V30 26 C -2.706321 -2.832044 -1.885947 0
M  V30 27 C -2.404823 -3.363721 -3.209932 0
M  V30 28 O -3.221488 -3.182271 -4.133331 0
M  V30 29 N -1.188317 -4.072730 -3.406322 0
M  V30 30 C -0.878572 -4.609886 -4.733744 0
M  V30 31 N -3.786698 -2.139281 -1.486300 0
M  V30 32 N -3.687966 -1.836397 -0.210330 0
M  V30 33 H 1.979788 -4.096598 2.172393 0
M  V30 34 H 1.842546 -3.998010 0.397141 0
M  V30 35 H 3.428281 -3.669559 1.256306 0
M  V30 36 H 2.656031 -1.758056 2.334246 0
M  V30 37 H 2.588001 -1.489608 0.597297 0
M  V30 38 H 1.638131 1.351392 -0.324476 0
M  V30 39 H 4.066383 1.960062 -0.503809 0
M  V30 40 H 5.481846 1.987659 1.466549 0
M  V30 41 H 4.535551 1.406459 3.718000 0
M  V30 42 H 2.144384 0.814283 3.849669 0
M  V30 43 H 1.006680 3.247557 2.148445 0
M  V30 44 H -2.918957 4.726748 2.648846 0
M  V30 45 H -3.837460 2.395183 2.436159 0
M  V30 46 H -1.534310 -2.969423 2.052579 0
M  V30 47 H -3.121948 -2.090876 2.335596 0
M  V30 48 H -0.972430 -3.425275 -0.662878 0
M  V30 49 H -0.505725 -4.221188 -2.623070 0
M  V30 50 H -0.175968 -3.933049 -5.256252 0
M  V30 51 H -0.335889 -5.563693 -4.548980 0
M  V30 52 H -1.788566 -4.716343 -5.326426 0
M  V30 53 H -4.575887 -1.892333 -2.122816 0
M  V30 END ATOM
M  V30 BEGIN BOND
M  V30 1 1 1 2
M  V30 2 1 2 3
M  V30 3 2 3 4
M  V30 4 1 3 5
M  V30 5 2 5 6
M  V30 6 1 6 7
M  V30 7 2 7 8
M  V30 8 1 8 9
M  V30 9 2 9 10
M  V30 10 1 10 11
M  V30 11 2 11 12
M  V30 12 1 6 13
M  V30 13 2 13 14
M  V30 14 1 14 15
M  V30 15 1 15 16
M  V30 16 2 15 17
M  V30 17 1 17 18
M  V30 18 2 18 19
M  V30 19 1 19 20
M  V30 20 2 20 21
M  V30 21 1 20 22
M  V30 22 1 22 23
M  V30 23 1 23 24
M  V30 24 1 24 25
M  V30 25 2 25 26
M  V30 26 1 26 27
M  V30 27 2 27 28
M  V30 28 1 27 29
M  V30 29 1 29 30
M  V30 30 1 26 31
M  V30 31 1 31 32
M  V30 32 1 22 5
M  V30 33 2 32 24
M  V30 34 1 12 7
M  V30 35 1 19 13
M  V30 36 1 1 33
M  V30 37 1 1 34
M  V30 38 1 1 35
M  V30 39 1 2 36
M  V30 40 1 2 37
M  V30 41 1 8 38
M  V30 42 1 9 39
M  V30 43 1 10 40
M  V30 44 1 11 41
M  V30 45 1 12 42
M  V30 46 1 14 43
M  V30 47 1 17 44
M  V30 48 1 18 45
M  V30 49 1 23 46
M  V30 50 1 23 47
M  V30 51 1 25 48
M  V30 52 1 29 49
M  V30 53 1 30 50
M  V30 54 1 30 51
M  V30 55 1 30 52
M  V30 56 1 31 53
M  V30 END BOND
M  V30 END CTAB
M  END
>  <Dataset>  (857) 
ChEMBL_Kinases

>  <Ligand_Instance>  (857) 
nan

>  <PDB_ID>  (857) 
nan

>  <Standardized_SMILES>  (857) 
CCC(=O)c1c(-c2ccccc2)c2cc(Cl)ccc2c(=O)n1Cc1cc(C(=O)NC)[nH]n1

>  <Name>  (857) 
nan

>  <Pocket>  (857) 
nan

>  <ATP_Site>  (857) 
nan

>  <Peripheral>  (857) 
nan

>  <Num_H_Atoms_ProtBoundConf>  (857) 
nan

>  <Num_Resolved_Atoms>  (857) 
nan

>  <Num_Not_Resolved_Atoms>  (857) 
nan

$$$$
CHEMBL427449
     RDKit          3D

  0  0  0  0  0  0  0  0  0  0999 V3000
M  V30 BEGIN CTAB
M  V30 COUNTS 50 53 0 0 0
M  V30 BEGIN ATOM
M  V30 1 C -0.147973 -5.915701 -1.217103 0
M  V30 2 N 1.180519 -5.315097 -1.009211 0
M  V30 3 C 1.716201 -5.079411 -2.311945 0
M  V30 4 C 2.821342 -4.049958 -2.359515 0
M  V30 5 N 2.389759 -2.849708 -1.622497 0
M  V30 6 C 2.255891 -1.597630 -2.288395 0
M  V30 7 O 2.549383 -1.727384 -3.485947 0
M  V30 8 C 1.823001 -0.580591 -1.361649 0
M  V30 9 C 2.661170 0.028031 -0.452271 0
M  V30 10 C 2.156327 0.992053 0.394492 0
M  V30 11 C 0.835744 1.357685 0.350003 0
M  V30 12 C 0.292274 2.322133 1.185161 0
M  V30 13 O 1.111415 2.819366 1.970191 0
M  V30 14 N -1.013198 2.709834 1.169123 0
M  V30 15 C -1.515905 3.724341 2.065383 0
M  V30 16 C -1.990128 3.144066 3.342096 0
M  V30 17 C -1.112123 2.967612 4.390867 0
M  V30 18 C -1.477074 2.437373 5.611008 0
M  V30 19 C -2.776886 2.044815 5.851763 0
M  V30 20 Cl -3.301042 1.369837 7.361292 0
M  V30 21 C -3.680475 2.211108 4.814399 0
M  V30 22 C -3.269618 2.741593 3.623454 0
M  V30 23 C -1.737101 2.054699 0.246792 0
M  V30 24 S -3.303543 2.395250 0.069216 0
M  V30 25 N -1.272049 1.112403 -0.590327 0
M  V30 26 C 0.016826 0.734690 -0.568353 0
M  V30 27 C 0.490134 -0.233494 -1.429868 0
M  V30 28 C 2.169648 -3.229131 -0.238828 0
M  V30 29 C 0.955058 -4.131733 -0.222491 0
M  V30 30 H -0.661870 -5.985608 -0.261014 0
M  V30 31 H -0.718001 -5.214650 -1.861331 0
M  V30 32 H -0.013387 -6.909037 -1.691686 0
M  V30 33 H 2.160218 -6.022358 -2.682171 0
M  V30 34 H 0.941523 -4.760840 -3.040823 0
M  V30 35 H 2.990883 -3.755612 -3.402389 0
M  V30 36 H 3.718129 -4.441402 -1.865669 0
M  V30 37 H 3.701342 -0.253198 -0.409583 0
M  V30 38 H 2.827525 1.472550 1.115409 0
M  V30 39 H -0.690787 4.442697 2.281577 0
M  V30 40 H -2.366857 4.288086 1.631746 0
M  V30 41 H -0.072621 3.221472 4.375304 0
M  V30 42 H -0.813392 2.285160 6.455304 0
M  V30 43 H -4.720361 1.906871 4.984243 0
M  V30 44 H -4.035724 2.840267 2.883258 0
M  V30 45 H -1.864770 0.622692 -1.295709 0
M  V30 46 H -0.191428 -0.694967 -2.133210 0
M  V30 47 H 1.980146 -2.350765 0.408276 0
M  V30 48 H 3.017489 -3.826327 0.169006 0
M  V30 49 H 0.781510 -4.447641 0.823493 0
M  V30 50 H 0.104376 -3.515880 -0.601609 0
M  V30 END ATOM
M  V30 BEGIN BOND
M  V30 1 1 1 2
M  V30 2 1 2 3
M  V30 3 1 3 4
M  V30 4 1 4 5
M  V30 5 1 5 6
M  V30 6 2 6 7
M  V30 7 1 6 8
M  V30 8 2 8 9
M  V30 9 1 9 10
M  V30 10 2 10 11
M  V30 11 1 11 12
M  V30 12 2 12 13
M  V30 13 1 12 14
M  V30 14 1 14 15
M  V30 15 1 15 16
M  V30 16 2 16 17
M  V30 17 1 17 18
M  V30 18 2 18 19
M  V30 19 1 19 20
M  V30 20 1 19 21
M  V30 21 2 21 22
M  V30 22 1 14 23
M  V30 23 2 23 24
M  V30 24 1 23 25
M  V30 25 1 25 26
M  V30 26 2 26 27
M  V30 27 1 5 28
M  V30 28 1 28 29
M  V30 29 1 29 2
M  V30 30 1 27 8
M  V30 31 1 26 11
M  V30 32 1 22 16
M  V30 33 1 1 30
M  V30 34 1 1 31
M  V30 35 1 1 32
M  V30 36 1 3 33
M  V30 37 1 3 34
M  V30 38 1 4 35
M  V30 39 1 4 36
M  V30 40 1 9 37
M  V30 41 1 10 38
M  V30 42 1 15 39
M  V30 43 1 15 40
M  V30 44 1 17 41
M  V30 45 1 18 42
M  V30 46 1 21 43
M  V30 47 1 22 44
M  V30 48 1 25 45
M  V30 49 1 27 46
M  V30 50 1 28 47
M  V30 51 1 28 48
M  V30 52 1 29 49
M  V30 53 1 29 50
M  V30 END BOND
M  V30 END CTAB
M  END
>  <Dataset>  (858) 
ChEMBL_Kinases

>  <Ligand_Instance>  (858) 
nan

>  <PDB_ID>  (858) 
nan

>  <Standardized_SMILES>  (858) 
CN1CCN(C(=O)c2ccc3c(=O)n(Cc4ccc(Cl)cc4)c(=S)[nH]c3c2)CC1

>  <Name>  (858) 
nan

>  <Pocket>  (858) 
nan

>  <ATP_Site>  (858) 
nan

>  <Peripheral>  (858) 
nan

>  <Num_H_Atoms_ProtBoundConf>  (858) 
nan

>  <Num_Resolved_Atoms>  (858) 
nan

>  <Num_Not_Resolved_Atoms>  (858) 
nan

$$$$
CHEMBL427426
     RDKit          3D

  0  0  0  0  0  0  0  0  0  0999 V3000
M  V30 BEGIN CTAB
M  V30 COUNTS 52 55 0 0 0
M  V30 BEGIN ATOM
M  V30 1 C -2.388291 4.385728 -2.270052 0
M  V30 2 C -2.174177 2.976496 -2.709724 0
M  V30 3 C -3.119546 1.970420 -2.488978 0
M  V30 4 C -2.882994 0.662014 -2.915652 0
M  V30 5 C -3.936054 -0.322147 -2.635058 0
M  V30 6 C -3.749905 -1.031205 -1.301679 0 CFG=2
M  V30 7 N -4.894796 -1.958466 -1.214285 0
M  V30 8 C -3.856523 -0.130408 -0.132093 0
M  V30 9 O -2.898452 0.842262 0.038063 0
M  V30 10 C -1.550128 0.663632 0.224088 0
M  V30 11 C -0.998899 1.950804 0.336996 0
M  V30 12 N 0.335914 2.183178 0.532671 0
M  V30 13 C 1.170790 1.104620 0.622085 0
M  V30 14 C 0.656375 -0.172630 0.514793 0
M  V30 15 C 1.454875 -1.397965 0.595086 0
M  V30 16 C 0.957201 -2.595001 1.102144 0
M  V30 17 C 1.818117 -3.700474 1.127097 0
M  V30 18 C 3.114188 -3.592400 0.661288 0
M  V30 19 N 4.076792 -4.536825 0.606320 0
M  V30 20 N 5.168810 -3.978969 0.081206 0
M  V30 21 C 4.903670 -2.683753 -0.197646 0
M  V30 22 C 5.841257 -1.688716 -0.795186 0
M  V30 23 C 3.597952 -2.400685 0.160395 0
M  V30 24 C 2.767111 -1.289420 0.123707 0
M  V30 25 C -0.692386 -0.392595 0.317615 0
M  V30 26 C -1.690025 0.384284 -3.562761 0
M  V30 27 C -0.746676 1.388585 -3.782980 0
M  V30 28 C -0.996580 2.681404 -3.353407 0
M  V30 29 F -0.062061 3.636177 -3.581015 0
M  V30 30 H -2.286112 5.086908 -3.113305 0
M  V30 31 H -1.720062 4.590722 -1.433116 0
M  V30 32 H -3.440433 4.492309 -1.893024 0
M  V30 33 H -4.009897 2.343230 -1.968520 0
M  V30 34 H -4.950236 0.093075 -2.738143 0
M  V30 35 H -3.844665 -1.133920 -3.408166 0
M  V30 36 H -2.866205 -1.645353 -1.408872 0
M  V30 37 H -4.763404 -2.725923 -1.911896 0
M  V30 38 H -5.721711 -1.406610 -1.534267 0
M  V30 39 H -4.904582 0.291581 -0.150005 0
M  V30 40 H -3.838541 -0.769930 0.795579 0
M  V30 41 H -1.468389 2.947768 0.297270 0
M  V30 42 H 2.242230 1.146227 0.775143 0
M  V30 43 H -0.064509 -2.596743 1.445716 0
M  V30 44 H 1.382383 -4.608888 1.531457 0
M  V30 45 H 4.009047 -5.538358 0.913545 0
M  V30 46 H 6.463581 -1.184131 -0.033896 0
M  V30 47 H 6.551646 -2.287460 -1.419472 0
M  V30 48 H 5.297282 -0.972229 -1.423129 0
M  V30 49 H 3.173046 -0.373820 -0.272599 0
M  V30 50 H -1.212383 -1.309169 0.224942 0
M  V30 51 H -1.558266 -0.647808 -3.872663 0
M  V30 52 H 0.182308 1.118265 -4.299724 0
M  V30 END ATOM
M  V30 BEGIN BOND
M  V30 1 1 1 2
M  V30 2 2 2 3
M  V30 3 1 3 4
M  V30 4 1 4 5
M  V30 5 1 5 6
M  V30 6 1 6 7
M  V30 7 1 6 8
M  V30 8 1 8 9
M  V30 9 1 9 10
M  V30 10 2 10 11
M  V30 11 1 11 12
M  V30 12 2 12 13
M  V30 13 1 13 14
M  V30 14 1 14 15
M  V30 15 2 15 16
M  V30 16 1 16 17
M  V30 17 2 17 18
M  V30 18 1 18 19
M  V30 19 1 19 20
M  V30 20 2 20 21
M  V30 21 1 21 22
M  V30 22 1 21 23
M  V30 23 2 23 24
M  V30 24 2 14 25
M  V30 25 2 4 26
M  V30 26 1 26 27
M  V30 27 2 27 28
M  V30 28 1 28 29
M  V30 29 1 28 2
M  V30 30 1 25 10
M  V30 31 1 24 15
M  V30 32 1 23 18
M  V30 33 1 1 30
M  V30 34 1 1 31
M  V30 35 1 1 32
M  V30 36 1 3 33
M  V30 37 1 5 34
M  V30 38 1 5 35
M  V30 39 1 6 36 CFG=3
M  V30 40 1 7 37
M  V30 41 1 7 38
M  V30 42 1 8 39
M  V30 43 1 8 40
M  V30 44 1 11 41
M  V30 45 1 13 42
M  V30 46 1 16 43
M  V30 47 1 17 44
M  V30 48 1 19 45
M  V30 49 1 22 46
M  V30 50 1 22 47
M  V30 51 1 22 48
M  V30 52 1 24 49
M  V30 53 1 25 50
M  V30 54 1 26 51
M  V30 55 1 27 52
M  V30 END BOND
M  V30 END CTAB
M  END
>  <Dataset>  (859) 
ChEMBL_Kinases

>  <Ligand_Instance>  (859) 
nan

>  <PDB_ID>  (859) 
nan

>  <Standardized_SMILES>  (859) 
Cc1cc(C[C@H](N)COc2cncc(-c3ccc4[nH]nc(C)c4c3)c2)ccc1F

>  <Name>  (859) 
nan

>  <Pocket>  (859) 
nan

>  <ATP_Site>  (859) 
nan

>  <Peripheral>  (859) 
nan

>  <Num_H_Atoms_ProtBoundConf>  (859) 
nan

>  <Num_Resolved_Atoms>  (859) 
nan

>  <Num_Not_Resolved_Atoms>  (859) 
nan

$$$$
CHEMBL427422
     RDKit          3D

  0  0  0  0  0  0  0  0  0  0999 V3000
M  V30 BEGIN CTAB
M  V30 COUNTS 48 51 0 0 0
M  V30 BEGIN ATOM
M  V30 1 C 2.928254 -2.354216 4.877999 0
M  V30 2 C 4.202082 -1.994453 4.203302 0
M  V30 3 N 5.489071 -2.252481 4.493593 0
M  V30 4 N 6.306033 -1.730826 3.608579 0
M  V30 5 C 5.550997 -1.099678 2.689818 0
M  V30 6 C 5.799047 -0.377077 1.540695 0
M  V30 7 N 4.813197 0.154052 0.797635 0
M  V30 8 C 3.503275 0.024100 1.114260 0
M  V30 9 C 2.538092 0.647940 0.225157 0
M  V30 10 C 2.985081 1.332083 -0.879458 0
M  V30 11 N 2.045873 1.889444 -1.665395 0
M  V30 12 C 0.714884 1.775034 -1.370693 0
M  V30 13 C 0.249909 1.076334 -0.241453 0
M  V30 14 O -1.112965 1.173328 -0.271077 0
M  V30 15 C -2.067870 0.660714 0.592071 0
M  V30 16 C -2.121653 -0.841647 0.702062 0 CFG=1
M  V30 17 N -3.172870 -1.194527 1.650537 0
M  V30 18 C -2.370946 -1.463846 -0.652615 0
M  V30 19 C -3.634829 -1.038153 -1.258964 0
M  V30 20 C -3.815315 -0.105835 -2.265087 0
M  V30 21 C -5.053085 0.217361 -2.750518 0
M  V30 22 C -6.207732 -0.362159 -2.272584 0
M  V30 23 C -6.042889 -1.306046 -1.256268 0
M  V30 24 F -7.206336 -1.857826 -0.808616 0
M  V30 25 C -4.786415 -1.649568 -0.747206 0
M  V30 26 F -4.860776 -2.588372 0.227240 0
M  V30 27 C 1.212226 0.506315 0.562601 0
M  V30 28 C 3.241120 -0.693876 2.257423 0
M  V30 29 C 4.226794 -1.252592 3.043613 0
M  V30 30 H 3.109616 -3.300379 5.463994 0
M  V30 31 H 2.602972 -1.539097 5.555557 0
M  V30 32 H 2.130208 -2.617214 4.140769 0
M  V30 33 H 7.347056 -1.792035 3.613190 0
M  V30 34 H 6.833911 -0.245251 1.245843 0
M  V30 35 H 4.042980 1.407627 -1.089951 0
M  V30 36 H 0.174730 2.313602 -2.162424 0
M  V30 37 H -1.978349 1.059363 1.634369 0
M  V30 38 H -3.070557 0.956122 0.172359 0
M  V30 39 H -1.191851 -1.204245 1.153323 0
M  V30 40 H -3.625957 -0.335557 2.055039 0
M  V30 41 H -2.853756 -1.848124 2.392898 0
M  V30 42 H -1.549577 -1.145998 -1.327823 0
M  V30 43 H -2.318200 -2.571627 -0.573154 0
M  V30 44 H -2.894800 0.351997 -2.642301 0
M  V30 45 H -5.163672 0.955642 -3.543289 0
M  V30 46 H -7.177568 -0.107552 -2.654482 0
M  V30 47 H 0.768844 0.014185 1.382150 0
M  V30 48 H 2.205742 -0.812197 2.532009 0
M  V30 END ATOM
M  V30 BEGIN BOND
M  V30 1 1 1 2
M  V30 2 2 2 3
M  V30 3 1 3 4
M  V30 4 1 4 5
M  V30 5 2 5 6
M  V30 6 1 6 7
M  V30 7 2 7 8
M  V30 8 1 8 9
M  V30 9 2 9 10
M  V30 10 1 10 11
M  V30 11 2 11 12
M  V30 12 1 12 13
M  V30 13 1 13 14
M  V30 14 1 14 15
M  V30 15 1 15 16
M  V30 16 1 16 17
M  V30 17 1 16 18
M  V30 18 1 18 19
M  V30 19 2 19 20
M  V30 20 1 20 21
M  V30 21 2 21 22
M  V30 22 1 22 23
M  V30 23 1 23 24
M  V30 24 2 23 25
M  V30 25 1 25 26
M  V30 26 2 13 27
M  V30 27 1 8 28
M  V30 28 2 28 29
M  V30 29 1 29 2
M  V30 30 1 29 5
M  V30 31 1 27 9
M  V30 32 1 25 19
M  V30 33 1 1 30
M  V30 34 1 1 31
M  V30 35 1 1 32
M  V30 36 1 4 33
M  V30 37 1 6 34
M  V30 38 1 10 35
M  V30 39 1 12 36
M  V30 40 1 15 37
M  V30 41 1 15 38
M  V30 42 1 16 39 CFG=1
M  V30 43 1 17 40
M  V30 44 1 17 41
M  V30 45 1 18 42
M  V30 46 1 18 43
M  V30 47 1 20 44
M  V30 48 1 21 45
M  V30 49 1 22 46
M  V30 50 1 27 47
M  V30 51 1 28 48
M  V30 END BOND
M  V30 END CTAB
M  END
>  <Dataset>  (860) 
ChEMBL_Kinases

>  <Ligand_Instance>  (860) 
nan

>  <PDB_ID>  (860) 
nan

>  <Standardized_SMILES>  (860) 
Cc1n[nH]c2cnc(-c3cncc(OC[C@@H](N)Cc4cccc(F)c4F)c3)cc12

>  <Name>  (860) 
nan

>  <Pocket>  (860) 
nan

>  <ATP_Site>  (860) 
nan

>  <Peripheral>  (860) 
nan

>  <Num_H_Atoms_ProtBoundConf>  (860) 
nan

>  <Num_Resolved_Atoms>  (860) 
nan

>  <Num_Not_Resolved_Atoms>  (860) 
nan

$$$$
CHEMBL427388
     RDKit          3D

  0  0  0  0  0  0  0  0  0  0999 V3000
M  V30 BEGIN CTAB
M  V30 COUNTS 48 51 0 0 0
M  V30 BEGIN ATOM
M  V30 1 N -0.383735 -8.723602 1.865315 0
M  V30 2 C -0.128548 -7.639508 1.529031 0
M  V30 3 C 0.181950 -6.321779 1.095735 0
M  V30 4 C 1.445808 -5.811987 1.282377 0
M  V30 5 C 1.665427 -4.524925 0.827077 0
M  V30 6 C 0.727505 -3.728370 0.210418 0
M  V30 7 C 1.055963 -2.383799 -0.253465 0
M  V30 8 C 2.386189 -2.304539 -0.673474 0
M  V30 9 N 2.809520 -1.091282 -1.131160 0
M  V30 10 C 1.946123 -0.065934 -1.151859 0
M  V30 11 C 0.631562 -0.049167 -0.760967 0
M  V30 12 O -0.290228 0.957275 -0.752930 0
M  V30 13 C 0.006265 2.259075 -1.156538 0
M  V30 14 C 0.991931 2.985136 -0.324208 0 CFG=1
M  V30 15 N 1.252769 4.317958 -0.991492 0
M  V30 16 C 0.513285 3.343910 1.079267 0
M  V30 17 C 0.089313 2.218439 1.887365 0
M  V30 18 C 0.750957 1.370675 2.780046 0
M  V30 19 N -0.048456 0.435274 3.274162 0
M  V30 20 C -1.270142 0.627471 2.729138 0
M  V30 21 C -2.415986 -0.078741 2.952309 0
M  V30 22 C -3.606962 0.244480 2.340425 0
M  V30 23 C -3.599900 1.318008 1.485031 0
M  V30 24 C -2.431861 2.004743 1.282553 0
M  V30 25 C -1.206654 1.710637 1.880663 0
M  V30 26 C 0.216530 -1.290199 -0.299304 0
M  V30 27 C -0.514625 -4.263166 0.041205 0
M  V30 28 C -0.790111 -5.555306 0.481103 0
M  V30 29 H 2.253354 -6.383108 1.767770 0
M  V30 30 H 2.677704 -4.162871 0.996982 0
M  V30 31 H 3.103331 -3.108646 -0.672604 0
M  V30 32 H 2.392937 0.822254 -1.559512 0
M  V30 33 H 0.466658 2.193592 -2.197089 0
M  V30 34 H -0.915144 2.888297 -1.232307 0
M  V30 35 H 1.949186 2.532735 -0.221268 0
M  V30 36 H 1.766634 4.845044 -0.242134 0
M  V30 37 H 1.893402 4.053818 -1.790007 0
M  V30 38 H -0.340972 4.053587 0.939172 0
M  V30 39 H 1.338849 3.882784 1.595405 0
M  V30 40 H 1.799663 1.504933 3.007338 0
M  V30 41 H 0.211541 -0.315505 3.957647 0
M  V30 42 H -2.500761 -0.948063 3.619693 0
M  V30 43 H -4.545486 -0.245912 2.454770 0
M  V30 44 H -4.500494 1.645178 0.956326 0
M  V30 45 H -2.447118 2.854336 0.600378 0
M  V30 46 H -0.775100 -1.558210 0.070457 0
M  V30 47 H -1.297804 -3.681358 -0.439164 0
M  V30 48 H -1.770246 -6.000876 0.355045 0
M  V30 END ATOM
M  V30 BEGIN BOND
M  V30 1 3 1 2
M  V30 2 1 2 3
M  V30 3 2 3 4
M  V30 4 1 4 5
M  V30 5 2 5 6
M  V30 6 1 6 7
M  V30 7 2 7 8
M  V30 8 1 8 9
M  V30 9 2 9 10
M  V30 10 1 10 11
M  V30 11 1 11 12
M  V30 12 1 12 13
M  V30 13 1 13 14
M  V30 14 1 14 15
M  V30 15 1 14 16
M  V30 16 1 16 17
M  V30 17 2 17 18
M  V30 18 1 18 19
M  V30 19 1 19 20
M  V30 20 2 20 21
M  V30 21 1 21 22
M  V30 22 2 22 23
M  V30 23 1 23 24
M  V30 24 2 24 25
M  V30 25 2 11 26
M  V30 26 1 6 27
M  V30 27 2 27 28
M  V30 28 1 28 3
M  V30 29 1 26 7
M  V30 30 1 25 17
M  V30 31 1 25 20
M  V30 32 1 4 29
M  V30 33 1 5 30
M  V30 34 1 8 31
M  V30 35 1 10 32
M  V30 36 1 13 33
M  V30 37 1 13 34
M  V30 38 1 14 35 CFG=1
M  V30 39 1 15 36
M  V30 40 1 15 37
M  V30 41 1 16 38
M  V30 42 1 16 39
M  V30 43 1 18 40
M  V30 44 1 19 41
M  V30 45 1 21 42
M  V30 46 1 22 43
M  V30 47 1 23 44
M  V30 48 1 24 45
M  V30 49 1 26 46
M  V30 50 1 27 47
M  V30 51 1 28 48
M  V30 END BOND
M  V30 END CTAB
M  END
>  <Dataset>  (861) 
ChEMBL_Kinases

>  <Ligand_Instance>  (861) 
nan

>  <PDB_ID>  (861) 
nan

>  <Standardized_SMILES>  (861) 
N#Cc1ccc(-c2cncc(OC[C@@H](N)Cc3c[nH]c4ccccc34)c2)cc1

>  <Name>  (861) 
nan

>  <Pocket>  (861) 
nan

>  <ATP_Site>  (861) 
nan

>  <Peripheral>  (861) 
nan

>  <Num_H_Atoms_ProtBoundConf>  (861) 
nan

>  <Num_Resolved_Atoms>  (861) 
nan

>  <Num_Not_Resolved_Atoms>  (861) 
nan

$$$$
CHEMBL427363
     RDKit          3D

  0  0  0  0  0  0  0  0  0  0999 V3000
M  V30 BEGIN CTAB
M  V30 COUNTS 34 35 0 0 0
M  V30 BEGIN ATOM
M  V30 1 C 0.629912 -2.743917 3.700250 0
M  V30 2 C 1.768495 -3.450565 3.052220 0
M  V30 3 C 2.423086 -4.452844 3.743856 0
M  V30 4 C 3.455285 -5.053968 3.085857 0
M  V30 5 C 3.870383 -4.729754 1.810724 0
M  V30 6 C 3.175407 -3.719877 1.173261 0
M  V30 7 C 2.119343 -3.058055 1.762909 0
M  V30 8 C 1.398540 -2.008665 1.098210 0
M  V30 9 C 0.796000 -1.125836 0.563411 0
M  V30 10 C 0.050398 -0.048047 -0.119644 0
M  V30 11 C -0.409663 1.173668 0.357995 0
M  V30 12 C -1.060634 1.915530 -0.559964 0
M  V30 13 C -1.579233 3.230940 -0.121278 0
M  V30 14 N -1.479586 3.827305 1.165819 0
M  V30 15 O -2.195345 3.979549 -0.915004 0
M  V30 16 C -1.245071 1.503766 -1.824551 0
M  V30 17 N -1.913832 2.171812 -2.919569 0
M  V30 18 C -3.303631 1.908277 -3.047225 0
M  V30 19 N -4.166633 2.451583 -4.045778 0
M  V30 20 O -3.963958 1.149132 -2.283541 0
M  V30 21 S -0.475066 -0.071135 -1.865075 0
M  V30 22 H 0.111110 -3.407467 4.443265 0
M  V30 23 H -0.174326 -2.484980 2.957429 0
M  V30 24 H 0.936366 -1.791776 4.165525 0
M  V30 25 H 2.123183 -4.734913 4.750524 0
M  V30 26 H 3.979481 -5.850524 3.628884 0
M  V30 27 H 4.680671 -5.211462 1.311718 0
M  V30 28 H 3.407180 -3.368970 0.157959 0
M  V30 29 H -0.182684 1.359494 1.395967 0
M  V30 30 H -1.199378 3.610970 2.137223 0
M  V30 31 H -1.156497 3.445195 2.100336 0
M  V30 32 H -1.498752 2.810426 -3.609519 0
M  V30 33 H -4.450526 1.782515 -4.795544 0
M  V30 34 H -4.471630 3.449110 -3.998406 0
M  V30 END ATOM
M  V30 BEGIN BOND
M  V30 1 1 1 2
M  V30 2 2 2 3
M  V30 3 1 3 4
M  V30 4 2 4 5
M  V30 5 1 5 6
M  V30 6 2 6 7
M  V30 7 1 7 8
M  V30 8 3 8 9
M  V30 9 1 9 10
M  V30 10 2 10 11
M  V30 11 1 11 12
M  V30 12 1 12 13
M  V30 13 1 13 14
M  V30 14 2 13 15
M  V30 15 2 12 16
M  V30 16 1 16 17
M  V30 17 1 17 18
M  V30 18 1 18 19
M  V30 19 2 18 20
M  V30 20 1 16 21
M  V30 21 1 7 2
M  V30 22 1 21 10
M  V30 23 1 1 22
M  V30 24 1 1 23
M  V30 25 1 1 24
M  V30 26 1 3 25
M  V30 27 1 4 26
M  V30 28 1 5 27
M  V30 29 1 6 28
M  V30 30 1 11 29
M  V30 31 1 14 30
M  V30 32 1 14 31
M  V30 33 1 17 32
M  V30 34 1 19 33
M  V30 35 1 19 34
M  V30 END BOND
M  V30 END CTAB
M  END
>  <Dataset>  (862) 
ChEMBL_Kinases

>  <Ligand_Instance>  (862) 
nan

>  <PDB_ID>  (862) 
nan

>  <Standardized_SMILES>  (862) 
Cc1ccccc1C#Cc1cc(C(N)=O)c(NC(N)=O)s1

>  <Name>  (862) 
nan

>  <Pocket>  (862) 
nan

>  <ATP_Site>  (862) 
nan

>  <Peripheral>  (862) 
nan

>  <Num_H_Atoms_ProtBoundConf>  (862) 
nan

>  <Num_Resolved_Atoms>  (862) 
nan

>  <Num_Not_Resolved_Atoms>  (862) 
nan

$$$$
CHEMBL427233
     RDKit          3D

  0  0  0  0  0  0  0  0  0  0999 V3000
M  V30 BEGIN CTAB
M  V30 COUNTS 55 59 0 0 0
M  V30 BEGIN ATOM
M  V30 1 C 2.280892 -7.239735 4.903914 0
M  V30 2 N 2.762518 -5.872489 4.927875 0
M  V30 3 C 2.538685 -4.925792 3.900996 0
M  V30 4 N 2.973038 -3.669355 3.910163 0
M  V30 5 C 2.725236 -2.816896 2.898757 0
M  V30 6 C 1.993740 -3.277905 1.822137 0
M  V30 7 C 1.686164 -2.481568 0.734479 0
M  V30 8 C 0.947111 -2.945084 -0.354819 0
M  V30 9 C 0.708137 -1.974976 -1.422715 0
M  V30 10 C 0.299704 -0.707825 -0.989489 0
M  V30 11 C 0.047035 0.276925 -1.907140 0
M  V30 12 C -0.384235 1.642175 -1.612224 0
M  V30 13 O -0.616204 2.546793 -2.455489 0
M  V30 14 N -0.572858 2.033033 -0.270620 0
M  V30 15 C -0.975670 3.253721 0.324881 0
M  V30 16 C -0.106143 4.241773 0.701908 0
M  V30 17 C -0.524204 5.427465 1.282592 0
M  V30 18 C -1.891612 5.567612 1.466895 0
M  V30 19 C -2.807742 4.602417 1.104445 0
M  V30 20 C -2.346260 3.432798 0.527316 0
M  V30 21 C -3.521012 2.557935 0.229069 0
M  V30 22 C -4.695193 3.502788 0.258492 0
M  V30 23 C -4.289240 4.599218 1.232937 0
M  V30 24 C 0.195788 0.020193 -3.274466 0
M  V30 25 C 0.598096 -1.228531 -3.697908 0
M  V30 26 C 0.852427 -2.219814 -2.772751 0
M  V30 27 C 1.282829 -3.558243 -3.186484 0
M  V30 28 C 0.514644 -4.254539 -0.326459 0
M  V30 29 C 0.798258 -5.083109 0.736943 0
M  V30 30 C 1.531944 -4.574494 1.787242 0
M  V30 31 N 1.828774 -5.361214 2.848488 0
M  V30 32 H 2.195107 -7.655216 3.876906 0
M  V30 33 H 1.296107 -7.278177 5.424810 0
M  V30 34 H 2.953851 -7.921375 5.466789 0
M  V30 35 H 3.308824 -5.605697 5.779389 0
M  V30 36 H 3.076386 -1.789806 2.899024 0
M  V30 37 H 2.076432 -1.454301 0.807965 0
M  V30 38 H 0.171087 -0.460059 0.040576 0
M  V30 39 H -0.428277 1.417229 0.559852 0
M  V30 40 H 0.938985 4.037887 0.516684 0
M  V30 41 H 0.179551 6.194186 1.572672 0
M  V30 42 H -2.241645 6.495871 1.923530 0
M  V30 43 H -3.574533 1.757308 0.979034 0
M  V30 44 H -3.357486 2.093177 -0.768677 0
M  V30 45 H -5.642689 3.018979 0.548726 0
M  V30 46 H -4.854096 3.956565 -0.743594 0
M  V30 47 H -4.569754 4.311317 2.282923 0
M  V30 48 H -4.732917 5.573125 0.973744 0
M  V30 49 H 0.021110 0.726201 -4.059847 0
M  V30 50 H 0.738295 -1.510836 -4.749831 0
M  V30 51 H 0.387246 -4.136333 -3.494823 0
M  V30 52 H 1.920973 -4.085582 -2.443472 0
M  V30 53 H 1.868163 -3.442720 -4.146528 0
M  V30 54 H -0.055369 -4.586273 -1.181536 0
M  V30 55 H 0.435082 -6.109685 0.713964 0
M  V30 END ATOM
M  V30 BEGIN BOND
M  V30 1 1 1 2
M  V30 2 1 2 3
M  V30 3 2 3 4
M  V30 4 1 4 5
M  V30 5 2 5 6
M  V30 6 1 6 7
M  V30 7 2 7 8
M  V30 8 1 8 9
M  V30 9 2 9 10
M  V30 10 1 10 11
M  V30 11 1 11 12
M  V30 12 2 12 13
M  V30 13 1 12 14
M  V30 14 1 14 15
M  V30 15 2 15 16
M  V30 16 1 16 17
M  V30 17 2 17 18
M  V30 18 1 18 19
M  V30 19 2 19 20
M  V30 20 1 20 21
M  V30 21 1 21 22
M  V30 22 1 22 23
M  V30 23 2 11 24
M  V30 24 1 24 25
M  V30 25 2 25 26
M  V30 26 1 26 27
M  V30 27 1 8 28
M  V30 28 2 28 29
M  V30 29 1 29 30
M  V30 30 2 30 31
M  V30 31 1 31 3
M  V30 32 1 30 6
M  V30 33 1 26 9
M  V30 34 1 20 15
M  V30 35 1 23 19
M  V30 36 1 1 32
M  V30 37 1 1 33
M  V30 38 1 1 34
M  V30 39 1 2 35
M  V30 40 1 5 36
M  V30 41 1 7 37
M  V30 42 1 10 38
M  V30 43 1 14 39
M  V30 44 1 16 40
M  V30 45 1 17 41
M  V30 46 1 18 42
M  V30 47 1 21 43
M  V30 48 1 21 44
M  V30 49 1 22 45
M  V30 50 1 22 46
M  V30 51 1 23 47
M  V30 52 1 23 48
M  V30 53 1 24 49
M  V30 54 1 25 50
M  V30 55 1 27 51
M  V30 56 1 27 52
M  V30 57 1 27 53
M  V30 58 1 28 54
M  V30 59 1 29 55
M  V30 END BOND
M  V30 END CTAB
M  END
>  <Dataset>  (863) 
ChEMBL_Kinases

>  <Ligand_Instance>  (863) 
nan

>  <PDB_ID>  (863) 
nan

>  <Standardized_SMILES>  (863) 
CNc1ncc2cc(-c3cc(C(=O)Nc4cccc5c4CCC5)ccc3C)ccc2n1

>  <Name>  (863) 
nan

>  <Pocket>  (863) 
nan

>  <ATP_Site>  (863) 
nan

>  <Peripheral>  (863) 
nan

>  <Num_H_Atoms_ProtBoundConf>  (863) 
nan

>  <Num_Resolved_Atoms>  (863) 
nan

>  <Num_Not_Resolved_Atoms>  (863) 
nan

$$$$
CHEMBL426840
     RDKit          3D

  0  0  0  0  0  0  0  0  0  0999 V3000
M  V30 BEGIN CTAB
M  V30 COUNTS 38 39 0 0 0
M  V30 BEGIN ATOM
M  V30 1 C 0.876138 -4.218840 3.321958 0
M  V30 2 O 2.065333 -3.570073 3.079818 0
M  V30 3 N 1.925949 -2.856259 1.938370 0
M  V30 4 C 1.483021 -1.520565 1.749130 0
M  V30 5 O 1.156908 -0.841914 2.733574 0
M  V30 6 C 1.410048 -0.948883 0.421437 0
M  V30 7 C 1.739592 -1.591215 -0.734255 0
M  V30 8 N 1.636610 -0.968590 -1.929339 0
M  V30 9 C 1.993319 -1.672740 -3.147512 0
M  V30 10 C 1.209445 0.305654 -2.060315 0
M  V30 11 O 1.136820 0.831058 -3.221555 0
M  V30 12 C 0.860196 1.009225 -0.919709 0
M  V30 13 C 0.397569 2.390772 -1.067295 0
M  V30 14 C 0.972348 0.355437 0.292249 0
M  V30 15 N 0.607093 1.096673 1.465272 0
M  V30 16 C -0.761032 0.985635 1.839309 0
M  V30 17 C -1.663654 0.234591 1.142436 0
M  V30 18 C -2.989595 0.080540 1.440290 0
M  V30 19 C -3.454569 0.758032 2.563182 0
M  V30 20 Br -5.308041 0.566450 3.012690 0
M  V30 21 C -2.614591 1.540908 3.328579 0
M  V30 22 C -1.275108 1.643290 2.953559 0
M  V30 23 F -0.459475 2.421303 3.721585 0
M  V30 24 H 0.198494 -3.691185 4.010918 0
M  V30 25 H 1.144143 -5.220283 3.763076 0
M  V30 26 H 0.267838 -4.421676 2.409125 0
M  V30 27 H 2.214848 -3.481640 1.155467 0
M  V30 28 H 2.084341 -2.605142 -0.681884 0
M  V30 29 H 2.565881 -2.588962 -2.899556 0
M  V30 30 H 1.120592 -2.020960 -3.732056 0
M  V30 31 H 2.642955 -1.060182 -3.801332 0
M  V30 32 H -0.535196 2.492158 -1.623221 0
M  V30 33 H 1.185921 2.919420 -1.676777 0
M  V30 34 H 0.374295 2.918577 -0.107870 0
M  V30 35 H 1.220640 1.695967 2.062491 0
M  V30 36 H -1.314870 -0.305259 0.256089 0
M  V30 37 H -3.649240 -0.539735 0.831607 0
M  V30 38 H -2.990247 2.057281 4.192645 0
M  V30 END ATOM
M  V30 BEGIN BOND
M  V30 1 1 1 2
M  V30 2 1 2 3
M  V30 3 1 3 4
M  V30 4 2 4 5
M  V30 5 1 4 6
M  V30 6 2 6 7
M  V30 7 1 7 8
M  V30 8 1 8 9
M  V30 9 1 8 10
M  V30 10 2 10 11
M  V30 11 1 10 12
M  V30 12 1 12 13
M  V30 13 2 12 14
M  V30 14 1 14 15
M  V30 15 1 15 16
M  V30 16 2 16 17
M  V30 17 1 17 18
M  V30 18 2 18 19
M  V30 19 1 19 20
M  V30 20 1 19 21
M  V30 21 2 21 22
M  V30 22 1 22 23
M  V30 23 1 14 6
M  V30 24 1 22 16
M  V30 25 1 1 24
M  V30 26 1 1 25
M  V30 27 1 1 26
M  V30 28 1 3 27
M  V30 29 1 7 28
M  V30 30 1 9 29
M  V30 31 1 9 30
M  V30 32 1 9 31
M  V30 33 1 13 32
M  V30 34 1 13 33
M  V30 35 1 13 34
M  V30 36 1 15 35
M  V30 37 1 17 36
M  V30 38 1 18 37
M  V30 39 1 21 38
M  V30 END BOND
M  V30 END CTAB
M  END
>  <Dataset>  (864) 
ChEMBL_Kinases

>  <Ligand_Instance>  (864) 
nan

>  <PDB_ID>  (864) 
nan

>  <Standardized_SMILES>  (864) 
CONC(=O)c1cn(C)c(=O)c(C)c1Nc1ccc(Br)cc1F

>  <Name>  (864) 
nan

>  <Pocket>  (864) 
nan

>  <ATP_Site>  (864) 
nan

>  <Peripheral>  (864) 
nan

>  <Num_H_Atoms_ProtBoundConf>  (864) 
nan

>  <Num_Resolved_Atoms>  (864) 
nan

>  <Num_Not_Resolved_Atoms>  (864) 
nan

$$$$
CHEMBL427212
     RDKit          3D

  0  0  0  0  0  0  0  0  0  0999 V3000
M  V30 BEGIN CTAB
M  V30 COUNTS 70 74 0 0 0
M  V30 BEGIN ATOM
M  V30 1 C 3.375845 -0.279903 -1.213749 0
M  V30 2 O 2.330982 -1.194148 -1.192654 0
M  V30 3 C 1.737010 -1.669938 -0.009498 0
M  V30 4 C 2.358241 -1.090759 1.108611 0
M  V30 5 C 1.867395 -1.472799 2.364438 0
M  V30 6 C 2.404739 -0.956445 3.550953 0
M  V30 7 N 3.459775 -0.027061 3.326981 0
M  V30 8 C 2.937389 1.243719 2.960470 0
M  V30 9 C 1.565803 1.532965 2.979314 0
M  V30 10 N 1.055159 2.731043 2.610967 0
M  V30 11 C 1.889926 3.725923 2.196414 0
M  V30 12 N 1.241767 4.939444 1.841775 0
M  V30 13 C 0.948026 6.110582 2.558138 0
M  V30 14 O 1.379536 6.014424 3.732946 0
M  V30 15 C 0.249317 7.220907 1.962232 0
M  V30 16 C 0.140107 8.367351 2.715356 0
M  V30 17 C -0.538360 9.427848 2.143650 0
M  V30 18 C -1.084961 9.349560 0.877037 0
M  V30 19 C -0.962917 8.173382 0.127948 0
M  V30 20 C -0.279516 7.122438 0.717133 0
M  V30 21 N 3.225094 3.509764 2.156197 0
M  V30 22 C 3.712033 2.294294 2.532691 0
M  V30 23 N 1.899088 -1.349210 4.754650 0
M  V30 24 C 0.877144 -2.237587 4.793683 0
M  V30 25 N 0.336701 -2.751613 3.674404 0
M  V30 26 C 0.829894 -2.368739 2.494659 0
M  V30 27 C 0.266608 -2.897729 1.357025 0
M  V30 28 C 0.676580 -2.587450 0.082210 0
M  V30 29 O 0.352788 -2.909401 -1.168836 0
M  V30 30 C -0.533074 -3.690121 -1.855915 0
M  V30 31 C -0.535023 -5.158122 -1.653160 0 CFG=1
M  V30 32 O -0.887246 -5.486196 -0.359576 0
M  V30 33 C -1.262120 -5.973295 -2.687711 0
M  V30 34 N -2.627942 -5.927813 -2.778035 0
M  V30 35 C -3.309778 -4.821423 -3.283563 0
M  V30 36 C -4.427117 -4.421077 -2.315271 0
M  V30 37 C -4.538810 -5.422203 -1.193149 0
M  V30 38 C -4.667403 -6.806912 -1.778884 0
M  V30 39 C -3.436993 -7.079736 -2.635748 0
M  V30 40 H 3.068723 0.700825 -0.754020 0
M  V30 41 H 3.634468 -0.065286 -2.276476 0
M  V30 42 H 4.307023 -0.599163 -0.700612 0
M  V30 43 H 3.168295 -0.386810 1.087225 0
M  V30 44 H 4.519483 -0.072443 3.372563 0
M  V30 45 H 0.858568 0.787129 3.297158 0
M  V30 46 H 0.988430 4.789304 0.859960 0
M  V30 47 H 0.550287 8.459004 3.693701 0
M  V30 48 H -0.665540 10.374165 2.677210 0
M  V30 49 H -1.620400 10.193394 0.431930 0
M  V30 50 H -1.405390 8.149019 -0.856473 0
M  V30 51 H -0.215919 6.237918 0.086672 0
M  V30 52 H 4.786911 2.154229 2.487427 0
M  V30 53 H 0.546841 -2.486008 5.790647 0
M  V30 54 H -0.535235 -3.577253 1.404137 0
M  V30 55 H -1.581742 -3.313844 -1.589261 0
M  V30 56 H -0.399115 -3.446918 -2.954411 0
M  V30 57 H 0.565713 -5.505315 -1.784889 0
M  V30 58 H -0.441182 -6.342451 -0.145648 0
M  V30 59 H -0.747846 -5.698933 -3.670369 0
M  V30 60 H -0.951182 -7.066418 -2.582013 0
M  V30 61 H -3.851796 -5.082704 -4.282388 0
M  V30 62 H -2.642630 -3.980176 -3.506758 0
M  V30 63 H -4.106162 -3.452315 -1.878559 0
M  V30 64 H -5.387857 -4.306977 -2.863504 0
M  V30 65 H -5.431445 -5.186900 -0.549127 0
M  V30 66 H -3.625492 -5.371446 -0.561389 0
M  V30 67 H -5.605818 -6.824916 -2.372889 0
M  V30 68 H -4.768180 -7.560649 -0.954812 0
M  V30 69 H -3.844504 -7.397194 -3.627359 0
M  V30 70 H -2.911221 -7.939151 -2.153305 0
M  V30 END ATOM
M  V30 BEGIN BOND
M  V30 1 1 1 2
M  V30 2 1 2 3
M  V30 3 2 3 4
M  V30 4 1 4 5
M  V30 5 2 5 6
M  V30 6 1 6 7
M  V30 7 1 7 8
M  V30 8 2 8 9
M  V30 9 1 9 10
M  V30 10 2 10 11
M  V30 11 1 11 12
M  V30 12 1 12 13
M  V30 13 2 13 14
M  V30 14 1 13 15
M  V30 15 2 15 16
M  V30 16 1 16 17
M  V30 17 2 17 18
M  V30 18 1 18 19
M  V30 19 2 19 20
M  V30 20 1 11 21
M  V30 21 2 21 22
M  V30 22 1 6 23
M  V30 23 2 23 24
M  V30 24 1 24 25
M  V30 25 2 25 26
M  V30 26 1 26 27
M  V30 27 2 27 28
M  V30 28 1 28 29
M  V30 29 1 29 30
M  V30 30 1 30 31
M  V30 31 1 31 32
M  V30 32 1 31 33
M  V30 33 1 33 34
M  V30 34 1 34 35
M  V30 35 1 35 36
M  V30 36 1 36 37
M  V30 37 1 37 38
M  V30 38 1 38 39
M  V30 39 1 28 3
M  V30 40 1 39 34
M  V30 41 1 26 5
M  V30 42 1 22 8
M  V30 43 1 20 15
M  V30 44 1 1 40
M  V30 45 1 1 41
M  V30 46 1 1 42
M  V30 47 1 4 43
M  V30 48 1 7 44
M  V30 49 1 9 45
M  V30 50 1 12 46
M  V30 51 1 16 47
M  V30 52 1 17 48
M  V30 53 1 18 49
M  V30 54 1 19 50
M  V30 55 1 20 51
M  V30 56 1 22 52
M  V30 57 1 24 53
M  V30 58 1 27 54
M  V30 59 1 30 55
M  V30 60 1 30 56
M  V30 61 1 31 57 CFG=1
M  V30 62 1 32 58
M  V30 63 1 33 59
M  V30 64 1 33 60
M  V30 65 1 35 61
M  V30 66 1 35 62
M  V30 67 1 36 63
M  V30 68 1 36 64
M  V30 69 1 37 65
M  V30 70 1 37 66
M  V30 71 1 38 67
M  V30 72 1 38 68
M  V30 73 1 39 69
M  V30 74 1 39 70
M  V30 END BOND
M  V30 END CTAB
M  END
>  <Dataset>  (865) 
ChEMBL_Kinases

>  <Ligand_Instance>  (865) 
nan

>  <PDB_ID>  (865) 
nan

>  <Standardized_SMILES>  (865) 
COc1cc2c(Nc3cnc(NC(=O)c4ccccc4)nc3)ncnc2cc1OC[C@@H](O)CN1CCCCC1

>  <Name>  (865) 
nan

>  <Pocket>  (865) 
nan

>  <ATP_Site>  (865) 
nan

>  <Peripheral>  (865) 
nan

>  <Num_H_Atoms_ProtBoundConf>  (865) 
nan

>  <Num_Resolved_Atoms>  (865) 
nan

>  <Num_Not_Resolved_Atoms>  (865) 
nan

$$$$
CHEMBL427159
     RDKit          3D

  0  0  0  0  0  0  0  0  0  0999 V3000
M  V30 BEGIN CTAB
M  V30 COUNTS 48 52 0 0 0
M  V30 BEGIN ATOM
M  V30 1 C 0.221476 -3.765473 5.330899 0
M  V30 2 O 1.134916 -3.664605 4.229245 0
M  V30 3 C 1.308183 -2.409561 3.661383 0
M  V30 4 C 2.198783 -2.339899 2.595473 0
M  V30 5 C 2.393897 -1.097650 2.005633 0
M  V30 6 C 1.724229 0.016494 2.468283 0
M  V30 7 C 1.921359 1.345215 1.848047 0
M  V30 8 N 2.413628 2.457151 2.410420 0
M  V30 9 N 2.432691 3.451103 1.527236 0
M  V30 10 N 2.816965 4.719942 1.584973 0
M  V30 11 C 2.718969 5.519022 0.502075 0
M  V30 12 C 2.218011 5.078082 -0.727464 0
M  V30 13 C 1.820402 3.755928 -0.778586 0
M  V30 14 C 1.944332 2.984988 0.362772 0
M  V30 15 C 1.607668 1.656661 0.518449 0
M  V30 16 C 1.037111 0.652610 -0.408938 0
M  V30 17 C 1.630230 0.233317 -1.580049 0
M  V30 18 C 0.960797 -0.711514 -2.323758 0
M  V30 19 N -0.216738 -1.178725 -1.891827 0
M  V30 20 C -0.816972 -0.791358 -0.760658 0
M  V30 21 N -2.057930 -1.256925 -0.265269 0
M  V30 22 C -2.918116 -2.216052 -0.845572 0
M  V30 23 C -2.708804 -2.895076 -2.021757 0
M  V30 24 C -3.546888 -3.828932 -2.587257 0
M  V30 25 C -4.724301 -4.125884 -1.916175 0
M  V30 26 F -5.591794 -5.029922 -2.411413 0
M  V30 27 C -4.983856 -3.472888 -0.730506 0
M  V30 28 F -6.134645 -3.773924 -0.090234 0
M  V30 29 C -4.101301 -2.555582 -0.230333 0
M  V30 30 N -0.144480 0.128842 -0.055811 0
M  V30 31 C 0.839201 -0.044160 3.525118 0
M  V30 32 C 0.639655 -1.280495 4.118481 0
M  V30 33 H -0.795475 -3.414062 5.041361 0
M  V30 34 H 0.113714 -4.800512 5.664675 0
M  V30 35 H 0.623501 -3.082543 6.107333 0
M  V30 36 H 2.748570 -3.172233 2.191730 0
M  V30 37 H 3.084717 -1.014273 1.170047 0
M  V30 38 H 3.030443 6.559826 0.537003 0
M  V30 39 H 2.152599 5.749450 -1.581090 0
M  V30 40 H 1.425678 3.369567 -1.710205 0
M  V30 41 H 2.571488 0.669498 -1.833960 0
M  V30 42 H 1.403384 -1.059241 -3.248344 0
M  V30 43 H -2.392219 -0.844557 0.648959 0
M  V30 44 H -1.812476 -2.708012 -2.589297 0
M  V30 45 H -3.317832 -4.325876 -3.519526 0
M  V30 46 H -4.392621 -2.096545 0.704723 0
M  V30 47 H 0.305515 0.808125 3.904490 0
M  V30 48 H -0.041639 -1.366553 4.943947 0
M  V30 END ATOM
M  V30 BEGIN BOND
M  V30 1 1 1 2
M  V30 2 1 2 3
M  V30 3 2 3 4
M  V30 4 1 4 5
M  V30 5 2 5 6
M  V30 6 1 6 7
M  V30 7 2 7 8
M  V30 8 1 8 9
M  V30 9 1 9 10
M  V30 10 2 10 11
M  V30 11 1 11 12
M  V30 12 2 12 13
M  V30 13 1 13 14
M  V30 14 2 14 15
M  V30 15 1 15 16
M  V30 16 2 16 17
M  V30 17 1 17 18
M  V30 18 2 18 19
M  V30 19 1 19 20
M  V30 20 1 20 21
M  V30 21 1 21 22
M  V30 22 2 22 23
M  V30 23 1 23 24
M  V30 24 2 24 25
M  V30 25 1 25 26
M  V30 26 1 25 27
M  V30 27 1 27 28
M  V30 28 2 27 29
M  V30 29 2 20 30
M  V30 30 1 6 31
M  V30 31 2 31 32
M  V30 32 1 32 3
M  V30 33 1 15 7
M  V30 34 1 30 16
M  V30 35 1 14 9
M  V30 36 1 29 22
M  V30 37 1 1 33
M  V30 38 1 1 34
M  V30 39 1 1 35
M  V30 40 1 4 36
M  V30 41 1 5 37
M  V30 42 1 11 38
M  V30 43 1 12 39
M  V30 44 1 13 40
M  V30 45 1 17 41
M  V30 46 1 18 42
M  V30 47 1 21 43
M  V30 48 1 23 44
M  V30 49 1 24 45
M  V30 50 1 29 46
M  V30 51 1 31 47
M  V30 52 1 32 48
M  V30 END BOND
M  V30 END CTAB
M  END
>  <Dataset>  (866) 
ChEMBL_Kinases

>  <Ligand_Instance>  (866) 
nan

>  <PDB_ID>  (866) 
nan

>  <Standardized_SMILES>  (866) 
COc1ccc(-c2nn3ncccc3c2-c2ccnc(Nc3ccc(F)c(F)c3)n2)cc1

>  <Name>  (866) 
GW827396X

>  <Pocket>  (866) 
nan

>  <ATP_Site>  (866) 
nan

>  <Peripheral>  (866) 
nan

>  <Num_H_Atoms_ProtBoundConf>  (866) 
nan

>  <Num_Resolved_Atoms>  (866) 
nan

>  <Num_Not_Resolved_Atoms>  (866) 
nan

$$$$
CHEMBL427104
     RDKit          3D

  0  0  0  0  0  0  0  0  0  0999 V3000
M  V30 BEGIN CTAB
M  V30 COUNTS 53 55 0 0 0
M  V30 BEGIN ATOM
M  V30 1 C -2.506523 -0.310157 -4.224770 0
M  V30 2 S -1.373082 -1.590698 -3.575461 0
M  V30 3 C -0.329982 -0.891231 -2.286393 0
M  V30 4 N 0.875497 -0.300889 -2.495377 0
M  V30 5 C 1.378324 0.109424 -1.306213 0
M  V30 6 C 2.650930 0.788591 -1.084293 0
M  V30 7 C 2.791898 2.053642 -0.560067 0
M  V30 8 C 4.077698 2.557112 -0.413403 0
M  V30 9 C 5.193603 1.829680 -0.775099 0
M  V30 10 F 6.423130 2.340054 -0.622675 0
M  V30 11 C 5.048704 0.555256 -1.303041 0
M  V30 12 C 3.773712 0.045756 -1.452800 0
M  V30 13 C 0.440394 -0.253557 -0.394745 0
M  V30 14 C 0.491210 -0.041547 1.050826 0
M  V30 15 C 1.474366 -0.628263 1.810108 0
M  V30 16 C 1.575799 -0.465055 3.195276 0
M  V30 17 N 0.642825 0.316281 3.786499 0
M  V30 18 C -0.329318 0.899090 3.051118 0
M  V30 19 N -1.343820 1.737308 3.647501 0
M  V30 20 C -2.407838 0.865910 3.983681 0
M  V30 21 C -3.724092 1.198719 4.632878 0
M  V30 22 O -2.202702 -0.361009 3.688006 0
M  V30 23 C -0.448998 0.750432 1.672602 0
M  V30 24 N -0.617717 -0.867094 -0.952730 0
M  V30 25 C -1.838344 -1.421022 -0.408806 0
M  V30 26 C -1.658842 -2.911310 -0.032198 0
M  V30 27 O -0.677805 -3.055862 0.903911 0
M  V30 28 C -0.351872 -4.316631 1.309521 0
M  V30 29 C -1.482901 -5.072246 1.946850 0
M  V30 30 O -2.578566 -5.271563 1.134488 0
M  V30 31 H -3.433038 -0.756016 -4.595066 0
M  V30 32 H -2.009815 0.390045 -4.910172 0
M  V30 33 H -2.798599 0.288323 -3.312476 0
M  V30 34 H 1.892383 2.587193 -0.290447 0
M  V30 35 H 4.208797 3.537347 -0.007984 0
M  V30 36 H 5.947510 -0.005531 -1.583940 0
M  V30 37 H 3.746028 -0.948376 -1.869179 0
M  V30 38 H 2.228734 -1.255073 1.360031 0
M  V30 39 H 2.356631 -0.935859 3.770211 0
M  V30 40 H -1.540277 2.750873 3.903687 0
M  V30 41 H -4.041693 0.296332 5.219558 0
M  V30 42 H -3.632847 2.008152 5.381157 0
M  V30 43 H -4.439734 1.512808 3.873103 0
M  V30 44 H -1.230147 1.225335 1.115421 0
M  V30 45 H -2.641141 -1.411169 -1.174160 0
M  V30 46 H -2.144802 -0.906701 0.518386 0
M  V30 47 H -2.658728 -3.208808 0.362159 0
M  V30 48 H -1.472322 -3.448748 -0.985145 0
M  V30 49 H 0.497954 -4.222242 2.063631 0
M  V30 50 H 0.084119 -4.929545 0.451328 0
M  V30 51 H -1.769543 -4.543276 2.905394 0
M  V30 52 H -1.138200 -6.108353 2.238637 0
M  V30 53 H -3.390893 -5.219816 1.708277 0
M  V30 END ATOM
M  V30 BEGIN BOND
M  V30 1 1 1 2
M  V30 2 1 2 3
M  V30 3 2 3 4
M  V30 4 1 4 5
M  V30 5 1 5 6
M  V30 6 2 6 7
M  V30 7 1 7 8
M  V30 8 2 8 9
M  V30 9 1 9 10
M  V30 10 1 9 11
M  V30 11 2 11 12
M  V30 12 2 5 13
M  V30 13 1 13 14
M  V30 14 2 14 15
M  V30 15 1 15 16
M  V30 16 2 16 17
M  V30 17 1 17 18
M  V30 18 1 18 19
M  V30 19 1 19 20
M  V30 20 1 20 21
M  V30 21 2 20 22
M  V30 22 2 18 23
M  V30 23 1 13 24
M  V30 24 1 24 25
M  V30 25 1 25 26
M  V30 26 1 26 27
M  V30 27 1 27 28
M  V30 28 1 28 29
M  V30 29 1 29 30
M  V30 30 1 24 3
M  V30 31 1 12 6
M  V30 32 1 23 14
M  V30 33 1 1 31
M  V30 34 1 1 32
M  V30 35 1 1 33
M  V30 36 1 7 34
M  V30 37 1 8 35
M  V30 38 1 11 36
M  V30 39 1 12 37
M  V30 40 1 15 38
M  V30 41 1 16 39
M  V30 42 1 19 40
M  V30 43 1 21 41
M  V30 44 1 21 42
M  V30 45 1 21 43
M  V30 46 1 23 44
M  V30 47 1 25 45
M  V30 48 1 25 46
M  V30 49 1 26 47
M  V30 50 1 26 48
M  V30 51 1 28 49
M  V30 52 1 28 50
M  V30 53 1 29 51
M  V30 54 1 29 52
M  V30 55 1 30 53
M  V30 END BOND
M  V30 END CTAB
M  END
>  <Dataset>  (867) 
ChEMBL_Kinases

>  <Ligand_Instance>  (867) 
nan

>  <PDB_ID>  (867) 
nan

>  <Standardized_SMILES>  (867) 
CSc1nc(-c2ccc(F)cc2)c(-c2ccnc(NC(C)=O)c2)n1CCOCCO

>  <Name>  (867) 
nan

>  <Pocket>  (867) 
nan

>  <ATP_Site>  (867) 
nan

>  <Peripheral>  (867) 
nan

>  <Num_H_Atoms_ProtBoundConf>  (867) 
nan

>  <Num_Resolved_Atoms>  (867) 
nan

>  <Num_Not_Resolved_Atoms>  (867) 
nan

$$$$
CHEMBL4763088
     RDKit          3D

  0  0  0  0  0  0  0  0  0  0999 V3000
M  V30 BEGIN CTAB
M  V30 COUNTS 45 47 0 0 0
M  V30 BEGIN ATOM
M  V30 1 C 2.682488 -3.104254 2.896966 0
M  V30 2 C 3.573089 -3.005749 1.645892 0
M  V30 3 C 2.991061 -3.777440 0.490533 0
M  V30 4 C 4.941795 -3.549504 1.989243 0
M  V30 5 O 4.769125 -4.874128 2.384800 0
M  V30 6 C 3.638783 -1.552868 1.225375 0
M  V30 7 N 2.277384 -1.141786 0.949777 0
M  V30 8 C 2.117735 0.247583 0.595528 0
M  V30 9 N 2.949026 1.101459 0.180011 0
M  V30 10 C 2.489318 2.382941 -0.077178 0
M  V30 11 O 3.154196 3.372346 -0.496384 0
M  V30 12 C 1.073742 2.605029 0.167049 0
M  V30 13 C 0.193597 3.598910 0.098490 0
M  V30 14 C -1.239889 3.439487 0.443692 0
M  V30 15 C -2.049225 4.352843 1.134914 0
M  V30 16 S -3.683778 3.480737 1.178600 0
M  V30 17 C -2.954502 2.024393 0.240607 0
M  V30 18 C -3.750053 0.775644 -0.150529 0
M  V30 19 C -3.031793 -0.153339 -0.846955 0
M  V30 20 C -3.743080 -1.274153 -1.203372 0
M  V30 21 C -5.070524 -1.429858 -0.876087 0
M  V30 22 C -5.751759 -0.442288 -0.160829 0
M  V30 23 F -7.043600 -0.588452 0.162470 0
M  V30 24 C -5.060111 0.700316 0.212976 0
M  V30 25 O -5.652929 1.733323 0.925765 0
M  V30 26 N -1.859171 2.335971 0.075471 0
M  V30 27 S 0.467518 0.984729 0.730702 0
M  V30 28 H 1.643737 -3.253953 2.558040 0
M  V30 29 H 2.776393 -2.153331 3.473597 0
M  V30 30 H 3.025608 -3.937746 3.519516 0
M  V30 31 H 3.275505 -3.244842 -0.439412 0
M  V30 32 H 1.869881 -3.714809 0.551833 0
M  V30 33 H 3.319405 -4.838231 0.483180 0
M  V30 34 H 5.400989 -2.922325 2.760010 0
M  V30 35 H 5.532894 -3.596135 1.047289 0
M  V30 36 H 4.892645 -4.968654 3.371679 0
M  V30 37 H 4.276679 -1.529716 0.322167 0
M  V30 38 H 4.098938 -0.901836 1.987445 0
M  V30 39 H 1.451613 -1.783062 0.996997 0
M  V30 40 H 0.685571 4.524987 -0.244328 0
M  V30 41 H -1.622113 5.335292 1.500372 0
M  V30 42 H -1.978932 0.021217 -1.079633 0
M  V30 43 H -3.191309 -2.025016 -1.758431 0
M  V30 44 H -5.561027 -2.342997 -1.194915 0
M  V30 45 H -5.496087 1.716264 1.947211 0
M  V30 END ATOM
M  V30 BEGIN BOND
M  V30 1 1 1 2
M  V30 2 1 2 3
M  V30 3 1 2 4
M  V30 4 1 4 5
M  V30 5 1 2 6
M  V30 6 1 6 7
M  V30 7 1 7 8
M  V30 8 2 8 9
M  V30 9 1 9 10
M  V30 10 2 10 11
M  V30 11 1 10 12
M  V30 12 2 12 13
M  V30 13 1 13 14
M  V30 14 2 14 15
M  V30 15 1 15 16
M  V30 16 1 16 17
M  V30 17 1 17 18
M  V30 18 2 18 19
M  V30 19 1 19 20
M  V30 20 2 20 21
M  V30 21 1 21 22
M  V30 22 1 22 23
M  V30 23 2 22 24
M  V30 24 1 24 25
M  V30 25 2 17 26
M  V30 26 1 12 27
M  V30 27 1 27 8
M  V30 28 1 26 14
M  V30 29 1 24 18
M  V30 30 1 1 28
M  V30 31 1 1 29
M  V30 32 1 1 30
M  V30 33 1 3 31
M  V30 34 1 3 32
M  V30 35 1 3 33
M  V30 36 1 4 34
M  V30 37 1 4 35
M  V30 38 1 5 36
M  V30 39 1 6 37
M  V30 40 1 6 38
M  V30 41 1 7 39
M  V30 42 1 13 40
M  V30 43 1 15 41
M  V30 44 1 19 42
M  V30 45 1 20 43
M  V30 46 1 21 44
M  V30 47 1 25 45
M  V30 END BOND
M  V30 END CTAB
M  END
>  <Dataset>  (868) 
ChEMBL_Kinases

>  <Ligand_Instance>  (868) 
nan

>  <PDB_ID>  (868) 
nan

>  <Standardized_SMILES>  (868) 
CC(C)(CO)CNC1=NC(=O)/C(=C/c2csc(-c3cccc(F)c3O)n2)S1

>  <Name>  (868) 
nan

>  <Pocket>  (868) 
nan

>  <ATP_Site>  (868) 
nan

>  <Peripheral>  (868) 
nan

>  <Num_H_Atoms_ProtBoundConf>  (868) 
nan

>  <Num_Resolved_Atoms>  (868) 
nan

>  <Num_Not_Resolved_Atoms>  (868) 
nan

$$$$
CHEMBL427047
     RDKit          3D

  0  0  0  0  0  0  0  0  0  0999 V3000
M  V30 BEGIN CTAB
M  V30 COUNTS 70 74 0 0 0
M  V30 BEGIN ATOM
M  V30 1 C 2.516829 -3.666901 4.898584 0
M  V30 2 C 2.092442 -2.823433 6.056734 0
M  V30 3 C 3.019375 -2.325343 6.925366 0
M  V30 4 C 2.546493 -1.549285 7.980557 0
M  V30 5 C 1.208177 -1.291557 8.147364 0
M  V30 6 C 0.280938 -1.799960 7.263551 0
M  V30 7 C -1.134209 -1.443786 7.559594 0
M  V30 8 C 0.744855 -2.578886 6.202686 0
M  V30 9 O -0.263010 -3.063667 5.340698 0
M  V30 10 C -0.597925 -2.250168 4.306369 0
M  V30 11 O 0.002305 -1.166690 4.212815 0
M  V30 12 N -1.081705 -1.554991 3.180010 0
M  V30 13 C -0.576000 -0.277075 2.829309 0
M  V30 14 C -1.150409 0.882706 3.311559 0
M  V30 15 C -0.629814 2.098224 2.943955 0
M  V30 16 C 0.454630 2.134431 2.101699 0
M  V30 17 C 1.043958 0.967542 1.607576 0
M  V30 18 C 0.512024 -0.246615 1.984181 0
M  V30 19 C -2.048992 -1.820385 2.185769 0
M  V30 20 C -3.386782 -1.504420 2.243140 0
M  V30 21 C -4.275253 -1.773842 1.227838 0
M  V30 22 N -3.758631 -2.379485 0.143075 0
M  V30 23 C -2.439446 -2.713533 0.038072 0
M  V30 24 N -2.143604 -3.328146 -1.207759 0
M  V30 25 C -1.596757 -2.412978 -2.154137 0
M  V30 26 C -1.318150 -1.097472 -1.850462 0
M  V30 27 C -0.779149 -0.183740 -2.748039 0
M  V30 28 C -0.495704 -0.598624 -4.035804 0
M  V30 29 N 0.069462 0.286245 -5.001852 0
M  V30 30 C 0.489790 1.633684 -4.784404 0
M  V30 31 C -0.174192 2.542056 -5.829392 0
M  V30 32 N 0.091708 2.047372 -7.165970 0
M  V30 33 C 0.619680 3.088293 -8.027344 0
M  V30 34 C 0.949568 0.880193 -7.138877 0
M  V30 35 C 0.251838 -0.189346 -6.344566 0
M  V30 36 C -0.762683 -1.908503 -4.373839 0
M  V30 37 C -1.297875 -2.779296 -3.448865 0
M  V30 38 N -1.619077 -2.422714 1.068334 0
M  V30 39 H 3.503487 -4.106775 5.174228 0
M  V30 40 H 2.634472 -3.083558 3.967230 0
M  V30 41 H 1.831711 -4.541595 4.767880 0
M  V30 42 H 4.083367 -2.525875 6.798595 0
M  V30 43 H 3.306601 -1.155330 8.670898 0
M  V30 44 H 0.959094 -0.668113 9.015496 0
M  V30 45 H -1.867869 -2.021832 6.980441 0
M  V30 46 H -1.311414 -1.671816 8.637328 0
M  V30 47 H -1.236232 -0.337037 7.433976 0
M  V30 48 H -2.004555 0.833281 3.973985 0
M  V30 49 H -1.106997 2.975714 3.340999 0
M  V30 50 H 0.785878 3.142596 1.874623 0
M  V30 51 H 1.893689 1.073455 0.950059 0
M  V30 52 H 0.945485 -1.169738 1.618996 0
M  V30 53 H -3.725704 -1.015344 3.155419 0
M  V30 54 H -5.324264 -1.516775 1.292375 0
M  V30 55 H -2.262312 -4.324902 -1.532909 0
M  V30 56 H -1.526399 -0.722407 -0.843424 0
M  V30 57 H -0.598351 0.816342 -2.416591 0
M  V30 58 H 1.588745 1.755457 -4.899609 0
M  V30 59 H 0.211575 2.044819 -3.798722 0
M  V30 60 H -1.265582 2.464335 -5.656576 0
M  V30 61 H 0.105828 3.600848 -5.697172 0
M  V30 62 H 0.515723 4.070098 -7.516786 0
M  V30 63 H 0.044889 3.071636 -8.975219 0
M  V30 64 H 1.722365 2.967554 -8.186854 0
M  V30 65 H 1.966128 1.066772 -6.785848 0
M  V30 66 H 1.027484 0.507256 -8.179091 0
M  V30 67 H 0.839081 -1.128837 -6.288390 0
M  V30 68 H -0.764571 -0.348613 -6.769819 0
M  V30 69 H -0.561271 -2.289547 -5.371653 0
M  V30 70 H -1.493016 -3.806298 -3.762886 0
M  V30 END ATOM
M  V30 BEGIN BOND
M  V30 1 1 1 2
M  V30 2 2 2 3
M  V30 3 1 3 4
M  V30 4 2 4 5
M  V30 5 1 5 6
M  V30 6 1 6 7
M  V30 7 2 6 8
M  V30 8 1 8 9
M  V30 9 1 9 10
M  V30 10 2 10 11
M  V30 11 1 10 12
M  V30 12 1 12 13
M  V30 13 2 13 14
M  V30 14 1 14 15
M  V30 15 2 15 16
M  V30 16 1 16 17
M  V30 17 2 17 18
M  V30 18 1 12 19
M  V30 19 2 19 20
M  V30 20 1 20 21
M  V30 21 2 21 22
M  V30 22 1 22 23
M  V30 23 1 23 24
M  V30 24 1 24 25
M  V30 25 2 25 26
M  V30 26 1 26 27
M  V30 27 2 27 28
M  V30 28 1 28 29
M  V30 29 1 29 30
M  V30 30 1 30 31
M  V30 31 1 31 32
M  V30 32 1 32 33
M  V30 33 1 32 34
M  V30 34 1 34 35
M  V30 35 1 28 36
M  V30 36 2 36 37
M  V30 37 2 23 38
M  V30 38 1 8 2
M  V30 39 1 18 13
M  V30 40 1 38 19
M  V30 41 1 37 25
M  V30 42 1 35 29
M  V30 43 1 1 39
M  V30 44 1 1 40
M  V30 45 1 1 41
M  V30 46 1 3 42
M  V30 47 1 4 43
M  V30 48 1 5 44
M  V30 49 1 7 45
M  V30 50 1 7 46
M  V30 51 1 7 47
M  V30 52 1 14 48
M  V30 53 1 15 49
M  V30 54 1 16 50
M  V30 55 1 17 51
M  V30 56 1 18 52
M  V30 57 1 20 53
M  V30 58 1 21 54
M  V30 59 1 24 55
M  V30 60 1 26 56
M  V30 61 1 27 57
M  V30 62 1 30 58
M  V30 63 1 30 59
M  V30 64 1 31 60
M  V30 65 1 31 61
M  V30 66 1 33 62
M  V30 67 1 33 63
M  V30 68 1 33 64
M  V30 69 1 34 65
M  V30 70 1 34 66
M  V30 71 1 35 67
M  V30 72 1 35 68
M  V30 73 1 36 69
M  V30 74 1 37 70
M  V30 END BOND
M  V30 END CTAB
M  END
>  <Dataset>  (869) 
ChEMBL_Kinases

>  <Ligand_Instance>  (869) 
nan

>  <PDB_ID>  (869) 
nan

>  <Standardized_SMILES>  (869) 
Cc1cccc(C)c1OC(=O)N(c1ccccc1)c1ccnc(Nc2ccc(N3CCN(C)CC3)cc2)n1

>  <Name>  (869) 
nan

>  <Pocket>  (869) 
nan

>  <ATP_Site>  (869) 
nan

>  <Peripheral>  (869) 
nan

>  <Num_H_Atoms_ProtBoundConf>  (869) 
nan

>  <Num_Resolved_Atoms>  (869) 
nan

>  <Num_Not_Resolved_Atoms>  (869) 
nan

$$$$
CHEMBL427045
     RDKit          3D

  0  0  0  0  0  0  0  0  0  0999 V3000
M  V30 BEGIN CTAB
M  V30 COUNTS 47 50 0 0 0
M  V30 BEGIN ATOM
M  V30 1 C 1.441136 -5.699724 3.323925 0
M  V30 2 C 0.885741 -4.437934 2.746044 0
M  V30 3 C 1.684846 -3.836968 1.798506 0
M  V30 4 C 1.212906 -2.675478 1.229382 0
M  V30 5 C 1.901515 -1.836770 0.198960 0
M  V30 6 C 3.161677 -1.819860 -0.357669 0
M  V30 7 N 3.395304 -0.880121 -1.249648 0
M  V30 8 C 2.708649 -0.055539 -1.648097 0
M  V30 9 N 2.697469 1.094542 -2.601079 0
M  V30 10 C 2.247266 2.182422 -1.761709 0
M  V30 11 C 0.918754 2.499959 -1.953020 0
M  V30 12 C 0.347133 3.503462 -1.181959 0
M  V30 13 C 1.148031 4.151491 -0.237413 0
M  V30 14 C 2.479444 3.789810 -0.087325 0
M  V30 15 N 3.021342 2.818542 -0.840161 0
M  V30 16 S 1.157409 -0.459182 -0.642589 0
M  V30 17 N 0.032224 -2.208373 1.618935 0
M  V30 18 C -0.762147 -2.780484 2.541774 0
M  V30 19 O -1.951830 -2.302120 2.939799 0
M  V30 20 C -2.659526 -1.137016 2.628750 0
M  V30 21 C -1.939658 0.121261 2.898895 0
M  V30 22 C -1.329565 0.882049 1.790577 0
M  V30 23 C -2.107381 0.831552 0.503632 0
M  V30 24 C -2.647847 -0.547560 0.230390 0
M  V30 25 C -3.418061 -1.117584 1.365751 0
M  V30 26 N -0.314768 -3.921190 3.111225 0
M  V30 27 H 2.060697 -6.223006 2.562754 0
M  V30 28 H 2.104082 -5.411916 4.167024 0
M  V30 29 H 0.606062 -6.318267 3.682330 0
M  V30 30 H 2.649292 -4.145484 1.420117 0
M  V30 31 H 3.885007 -2.571538 -0.032686 0
M  V30 32 H 2.965749 0.950834 -3.596675 0
M  V30 33 H 0.214523 2.053117 -2.655278 0
M  V30 34 H -0.671230 3.881756 -1.205832 0
M  V30 35 H 0.831709 4.956379 0.438787 0
M  V30 36 H 3.207666 4.187021 0.596445 0
M  V30 37 H -3.488732 -1.143110 3.460567 0
M  V30 38 H -2.663383 0.832622 3.406086 0
M  V30 39 H -1.142986 0.007358 3.687727 0
M  V30 40 H -1.302589 1.973551 2.092982 0
M  V30 41 H -0.256484 0.630506 1.691524 0
M  V30 42 H -1.437258 1.109669 -0.320716 0
M  V30 43 H -2.951648 1.548662 0.490571 0
M  V30 44 H -3.368730 -0.435164 -0.646520 0
M  V30 45 H -1.890866 -1.239237 -0.107317 0
M  V30 46 H -3.674837 -2.175223 1.089054 0
M  V30 47 H -4.396020 -0.571992 1.534776 0
M  V30 END ATOM
M  V30 BEGIN BOND
M  V30 1 1 1 2
M  V30 2 2 2 3
M  V30 3 1 3 4
M  V30 4 1 4 5
M  V30 5 2 5 6
M  V30 6 1 6 7
M  V30 7 2 7 8
M  V30 8 1 8 9
M  V30 9 1 9 10
M  V30 10 2 10 11
M  V30 11 1 11 12
M  V30 12 2 12 13
M  V30 13 1 13 14
M  V30 14 2 14 15
M  V30 15 1 8 16
M  V30 16 2 4 17
M  V30 17 1 17 18
M  V30 18 1 18 19
M  V30 19 1 19 20
M  V30 20 1 20 21
M  V30 21 1 21 22
M  V30 22 1 22 23
M  V30 23 1 23 24
M  V30 24 1 24 25
M  V30 25 2 18 26
M  V30 26 1 26 2
M  V30 27 1 16 5
M  V30 28 1 25 20
M  V30 29 1 15 10
M  V30 30 1 1 27
M  V30 31 1 1 28
M  V30 32 1 1 29
M  V30 33 1 3 30
M  V30 34 1 6 31
M  V30 35 1 9 32
M  V30 36 1 11 33
M  V30 37 1 12 34
M  V30 38 1 13 35
M  V30 39 1 14 36
M  V30 40 1 20 37
M  V30 41 1 21 38
M  V30 42 1 21 39
M  V30 43 1 22 40
M  V30 44 1 22 41
M  V30 45 1 23 42
M  V30 46 1 23 43
M  V30 47 1 24 44
M  V30 48 1 24 45
M  V30 49 1 25 46
M  V30 50 1 25 47
M  V30 END BOND
M  V30 END CTAB
M  END
>  <Dataset>  (870) 
ChEMBL_Kinases

>  <Ligand_Instance>  (870) 
nan

>  <PDB_ID>  (870) 
nan

>  <Standardized_SMILES>  (870) 
Cc1cc(-c2cnc(Nc3ccccn3)s2)nc(OC2CCCCC2)n1

>  <Name>  (870) 
nan

>  <Pocket>  (870) 
nan

>  <ATP_Site>  (870) 
nan

>  <Peripheral>  (870) 
nan

>  <Num_H_Atoms_ProtBoundConf>  (870) 
nan

>  <Num_Resolved_Atoms>  (870) 
nan

>  <Num_Not_Resolved_Atoms>  (870) 
nan

$$$$
CHEMBL427008
     RDKit          3D

  0  0  0  0  0  0  0  0  0  0999 V3000
M  V30 BEGIN CTAB
M  V30 COUNTS 38 39 0 0 0
M  V30 BEGIN ATOM
M  V30 1 C 4.553363 -4.242035 5.355263 0
M  V30 2 C 4.035218 -4.030536 3.975549 0
M  V30 3 O 3.149889 -4.631001 3.279775 0
M  V30 4 N 4.583034 -2.959597 3.196898 0
M  V30 5 C 3.973236 -2.894104 1.892314 0
M  V30 6 C 4.515697 -3.605010 0.833867 0
M  V30 7 C 3.912485 -3.519034 -0.389701 0
M  V30 8 C 2.789064 -2.742247 -0.567573 0
M  V30 9 C 2.217264 -2.017272 0.464313 0
M  V30 10 C 1.047051 -1.210530 0.268128 0
M  V30 11 C 0.086145 -0.527792 0.092861 0
M  V30 12 C -1.079203 0.298584 -0.144318 0
M  V30 13 C -1.438939 1.570917 0.370814 0
M  V30 14 C -2.638001 2.034025 -0.093923 0
M  V30 15 C -3.085256 3.338459 0.386868 0
M  V30 16 N -2.424051 4.210666 1.292095 0
M  V30 17 O -4.177813 3.811934 -0.004114 0
M  V30 18 C -3.408870 1.360276 -0.953452 0
M  V30 19 N -4.641041 1.628127 -1.549392 0
M  V30 20 C -4.610181 2.302039 -2.778075 0
M  V30 21 N -5.802911 2.645189 -3.510627 0
M  V30 22 O -4.106066 2.873200 -3.776908 0
M  V30 23 S -2.504914 -0.140596 -1.268437 0
M  V30 24 C 2.845148 -2.120315 1.692532 0
M  V30 25 H 4.327628 -5.251680 5.735464 0
M  V30 26 H 5.620293 -3.992045 5.332401 0
M  V30 27 H 4.003011 -3.520937 6.003813 0
M  V30 28 H 5.331018 -2.309264 3.534911 0
M  V30 29 H 5.403632 -4.208076 1.010674 0
M  V30 30 H 4.365630 -4.093432 -1.205450 0
M  V30 31 H 2.322328 -2.684371 -1.543603 0
M  V30 32 H -0.722862 1.993738 1.051903 0
M  V30 33 H -2.924025 4.692556 2.072194 0
M  V30 34 H -1.408906 4.452442 1.274337 0
M  V30 35 H -5.598350 1.395658 -1.206982 0
M  V30 36 H -6.680774 2.909871 -2.996062 0
M  V30 37 H -6.804379 2.939452 -3.592328 0
M  V30 38 H 2.450128 -1.578394 2.546148 0
M  V30 END ATOM
M  V30 BEGIN BOND
M  V30 1 1 1 2
M  V30 2 2 2 3
M  V30 3 1 2 4
M  V30 4 1 4 5
M  V30 5 2 5 6
M  V30 6 1 6 7
M  V30 7 2 7 8
M  V30 8 1 8 9
M  V30 9 1 9 10
M  V30 10 3 10 11
M  V30 11 1 11 12
M  V30 12 2 12 13
M  V30 13 1 13 14
M  V30 14 1 14 15
M  V30 15 1 15 16
M  V30 16 2 15 17
M  V30 17 2 14 18
M  V30 18 1 18 19
M  V30 19 1 19 20
M  V30 20 1 20 21
M  V30 21 2 20 22
M  V30 22 1 18 23
M  V30 23 2 9 24
M  V30 24 1 24 5
M  V30 25 1 23 12
M  V30 26 1 1 25
M  V30 27 1 1 26
M  V30 28 1 1 27
M  V30 29 1 4 28
M  V30 30 1 6 29
M  V30 31 1 7 30
M  V30 32 1 8 31
M  V30 33 1 13 32
M  V30 34 1 16 33
M  V30 35 1 16 34
M  V30 36 1 19 35
M  V30 37 1 21 36
M  V30 38 1 21 37
M  V30 39 1 24 38
M  V30 END BOND
M  V30 END CTAB
M  END
>  <Dataset>  (871) 
ChEMBL_Kinases

>  <Ligand_Instance>  (871) 
nan

>  <PDB_ID>  (871) 
nan

>  <Standardized_SMILES>  (871) 
CC(=O)Nc1cccc(C#Cc2cc(C(N)=O)c(NC(N)=O)s2)c1

>  <Name>  (871) 
nan

>  <Pocket>  (871) 
nan

>  <ATP_Site>  (871) 
nan

>  <Peripheral>  (871) 
nan

>  <Num_H_Atoms_ProtBoundConf>  (871) 
nan

>  <Num_Resolved_Atoms>  (871) 
nan

>  <Num_Not_Resolved_Atoms>  (871) 
nan

$$$$
CHEMBL426969
     RDKit          3D

  0  0  0  0  0  0  0  0  0  0999 V3000
M  V30 BEGIN CTAB
M  V30 COUNTS 74 78 0 0 0
M  V30 BEGIN ATOM
M  V30 1 C 4.804435 -1.337978 4.228570 0
M  V30 2 C 3.893715 -0.594423 3.295316 0
M  V30 3 C 4.367606 0.570377 2.757263 0
M  V30 4 C 3.535057 1.255394 1.900724 0
M  V30 5 C 2.272347 0.844523 1.557814 0
M  V30 6 N 1.377978 1.495877 0.689274 0
M  V30 7 C 1.536532 2.678796 -0.048044 0
M  V30 8 O 2.631150 3.284973 0.049126 0
M  V30 9 C 0.553374 3.284099 -0.925126 0
M  V30 10 C 0.885631 4.423978 -1.621882 0
M  V30 11 C -0.067415 5.002785 -2.468205 0
M  V30 12 N -1.298602 4.471542 -2.615449 0
M  V30 13 C -1.669881 3.359735 -1.955642 0
M  V30 14 N -2.965951 2.793502 -2.111738 0
M  V30 15 C -3.587054 1.761538 -1.335331 0
M  V30 16 C -4.069523 0.684923 -2.277123 0
M  V30 17 O -4.995691 1.161920 -3.185157 0
M  V30 18 C -5.132824 2.542840 -3.196674 0
M  V30 19 C -3.818894 3.283518 -3.196621 0
M  V30 20 C -0.735431 2.783662 -1.120158 0
M  V30 21 C 1.891251 -0.333575 2.150429 0
M  V30 22 C 2.639633 -1.082445 3.007936 0
M  V30 23 N 2.260825 -2.293226 3.619201 0
M  V30 24 C 1.032361 -3.041230 3.510057 0
M  V30 25 C 0.831127 -4.240782 4.198702 0
M  V30 26 C -0.339773 -4.945342 4.087480 0
M  V30 27 N -1.313609 -4.471258 3.299294 0
M  V30 28 C -1.117630 -3.314094 2.636078 0
M  V30 29 N -2.178355 -2.777968 1.812268 0
M  V30 30 C -2.160470 -1.669894 0.925062 0
M  V30 31 C -1.652775 -1.858740 -0.446810 0
M  V30 32 C -0.280352 -2.357936 -0.651367 0
M  V30 33 N 0.006194 -3.678358 -0.142460 0
M  V30 34 C -0.713549 -4.648690 -0.918076 0
M  V30 35 C 0.156439 -4.936039 -2.128563 0
M  V30 36 C 1.560316 -4.637382 -1.695095 0
M  V30 37 C 1.414055 -3.915064 -0.402598 0
M  V30 38 N 0.022097 -2.629791 2.745545 0
M  V30 39 H 4.988322 -2.343039 3.821087 0
M  V30 40 H 4.281255 -1.427929 5.201803 0
M  V30 41 H 5.765546 -0.810575 4.355194 0
M  V30 42 H 5.355273 0.937115 2.995335 0
M  V30 43 H 3.937134 2.167127 1.494725 0
M  V30 44 H 0.434428 1.093492 0.520293 0
M  V30 45 H 1.851692 4.914769 -1.561354 0
M  V30 46 H 0.158894 5.904757 -3.035382 0
M  V30 47 H -2.969227 1.316298 -0.544984 0
M  V30 48 H -4.510924 2.169191 -0.841750 0
M  V30 49 H -3.202630 0.205363 -2.790696 0
M  V30 50 H -4.595735 -0.131869 -1.699171 0
M  V30 51 H -5.835927 2.930566 -2.427491 0
M  V30 52 H -5.621824 2.780957 -4.188229 0
M  V30 53 H -3.998789 4.343279 -3.018173 0
M  V30 54 H -3.327626 3.090931 -4.175373 0
M  V30 55 H -1.032768 1.904490 -0.600663 0
M  V30 56 H 0.902615 -0.695291 1.906451 0
M  V30 57 H 2.935754 -2.772673 4.264932 0
M  V30 58 H 1.603562 -4.615488 4.822729 0
M  V30 59 H -0.434617 -5.862426 4.644430 0
M  V30 60 H -3.117119 -3.281025 1.868460 0
M  V30 61 H -1.588138 -0.814191 1.418410 0
M  V30 62 H -3.197912 -1.221815 0.838240 0
M  V30 63 H -2.347032 -2.447202 -1.101987 0
M  V30 64 H -1.681760 -0.827061 -0.937621 0
M  V30 65 H -0.032012 -2.416615 -1.754311 0
M  V30 66 H 0.516606 -1.700247 -0.240786 0
M  V30 67 H -0.861855 -5.567183 -0.309832 0
M  V30 68 H -1.696783 -4.334384 -1.286688 0
M  V30 69 H -0.105729 -4.232577 -2.962571 0
M  V30 70 H -0.011598 -5.986415 -2.429639 0
M  V30 71 H 2.145413 -5.578702 -1.569320 0
M  V30 72 H 2.093584 -4.016158 -2.454125 0
M  V30 73 H 1.898818 -4.473005 0.425779 0
M  V30 74 H 1.962970 -2.937437 -0.484274 0
M  V30 END ATOM
M  V30 BEGIN BOND
M  V30 1 1 1 2
M  V30 2 2 2 3
M  V30 3 1 3 4
M  V30 4 2 4 5
M  V30 5 1 5 6
M  V30 6 1 6 7
M  V30 7 2 7 8
M  V30 8 1 7 9
M  V30 9 2 9 10
M  V30 10 1 10 11
M  V30 11 2 11 12
M  V30 12 1 12 13
M  V30 13 1 13 14
M  V30 14 1 14 15
M  V30 15 1 15 16
M  V30 16 1 16 17
M  V30 17 1 17 18
M  V30 18 1 18 19
M  V30 19 2 13 20
M  V30 20 1 5 21
M  V30 21 2 21 22
M  V30 22 1 22 23
M  V30 23 1 23 24
M  V30 24 2 24 25
M  V30 25 1 25 26
M  V30 26 2 26 27
M  V30 27 1 27 28
M  V30 28 1 28 29
M  V30 29 1 29 30
M  V30 30 1 30 31
M  V30 31 1 31 32
M  V30 32 1 32 33
M  V30 33 1 33 34
M  V30 34 1 34 35
M  V30 35 1 35 36
M  V30 36 1 36 37
M  V30 37 2 28 38
M  V30 38 1 22 2
M  V30 39 1 38 24
M  V30 40 1 20 9
M  V30 41 1 37 33
M  V30 42 1 19 14
M  V30 43 1 1 39
M  V30 44 1 1 40
M  V30 45 1 1 41
M  V30 46 1 3 42
M  V30 47 1 4 43
M  V30 48 1 6 44
M  V30 49 1 10 45
M  V30 50 1 11 46
M  V30 51 1 15 47
M  V30 52 1 15 48
M  V30 53 1 16 49
M  V30 54 1 16 50
M  V30 55 1 18 51
M  V30 56 1 18 52
M  V30 57 1 19 53
M  V30 58 1 19 54
M  V30 59 1 20 55
M  V30 60 1 21 56
M  V30 61 1 23 57
M  V30 62 1 25 58
M  V30 63 1 26 59
M  V30 64 1 29 60
M  V30 65 1 30 61
M  V30 66 1 30 62
M  V30 67 1 31 63
M  V30 68 1 31 64
M  V30 69 1 32 65
M  V30 70 1 32 66
M  V30 71 1 34 67
M  V30 72 1 34 68
M  V30 73 1 35 69
M  V30 74 1 35 70
M  V30 75 1 36 71
M  V30 76 1 36 72
M  V30 77 1 37 73
M  V30 78 1 37 74
M  V30 END BOND
M  V30 END CTAB
M  END
>  <Dataset>  (872) 
ChEMBL_Kinases

>  <Ligand_Instance>  (872) 
nan

>  <PDB_ID>  (872) 
nan

>  <Standardized_SMILES>  (872) 
Cc1ccc(NC(=O)c2ccnc(N3CCOCC3)c2)cc1Nc1ccnc(NCCCN2CCCC2)n1

>  <Name>  (872) 
nan

>  <Pocket>  (872) 
nan

>  <ATP_Site>  (872) 
nan

>  <Peripheral>  (872) 
nan

>  <Num_H_Atoms_ProtBoundConf>  (872) 
nan

>  <Num_Resolved_Atoms>  (872) 
nan

>  <Num_Not_Resolved_Atoms>  (872) 
nan

$$$$
CHEMBL426924
     RDKit          3D

  0  0  0  0  0  0  0  0  0  0999 V3000
M  V30 BEGIN CTAB
M  V30 COUNTS 53 56 0 0 0
M  V30 BEGIN ATOM
M  V30 1 C 2.006261 1.847493 0.989594 0
M  V30 2 C 2.448107 1.278271 2.285540 0
M  V30 3 N 2.303800 -0.122355 2.429935 0
M  V30 4 C 3.017644 -0.563498 3.634360 0
M  V30 5 C 2.618578 -2.028409 3.749075 0
M  V30 6 C 1.174646 -1.991618 3.301234 0
M  V30 7 C 1.031487 -0.718546 2.449969 0 CFG=1
M  V30 8 C -0.128548 0.030802 2.982858 0
M  V30 9 N -0.551363 1.234107 2.344550 0
M  V30 10 C -1.243963 1.366465 1.082317 0
M  V30 11 C -1.594977 2.616130 0.578133 0
M  V30 12 C -2.256782 2.712811 -0.625182 0
M  V30 13 C -2.602072 1.611674 -1.382633 0
M  V30 14 N -3.239143 1.697884 -2.544549 0
M  V30 15 C -3.586792 0.646122 -3.302916 0
M  V30 16 C -3.241281 -0.617259 -2.811045 0
M  V30 17 C -3.560665 -1.829354 -3.540376 0
M  V30 18 N -3.811297 -2.803287 -4.103340 0
M  V30 19 C -2.579162 -0.801000 -1.615085 0
M  V30 20 N -2.180190 -1.994095 -1.021995 0
M  V30 21 C -1.091056 -2.861163 -1.032555 0
M  V30 22 C -1.111552 -4.016816 -0.291511 0
M  V30 23 C -0.022590 -4.857417 -0.307108 0
M  V30 24 C 1.081209 -4.520360 -1.074540 0
M  V30 25 F 2.127434 -5.363414 -1.066875 0
M  V30 26 C 1.101634 -3.351823 -1.823642 0
M  V30 27 Cl 2.546137 -2.988555 -2.774467 0
M  V30 28 C 0.013882 -2.500869 -1.815277 0
M  V30 29 C -2.258928 0.343872 -0.895405 0
M  V30 30 C -1.592188 0.284697 0.321969 0
M  V30 31 H 1.411838 2.780143 1.179959 0
M  V30 32 H 1.503985 1.155207 0.307572 0
M  V30 33 H 2.885420 2.236883 0.380039 0
M  V30 34 H 2.009213 1.851260 3.158419 0
M  V30 35 H 3.552766 1.496760 2.391651 0
M  V30 36 H 4.099338 -0.539659 3.405610 0
M  V30 37 H 2.826679 0.026917 4.520612 0
M  V30 38 H 3.245033 -2.692579 3.129997 0
M  V30 39 H 2.734199 -2.283842 4.825102 0
M  V30 40 H 0.582028 -1.854022 4.240343 0
M  V30 41 H 0.905971 -2.902239 2.763774 0
M  V30 42 H 0.842406 -1.125564 1.414851 0
M  V30 43 H -0.033702 0.215320 4.090198 0
M  V30 44 H -1.038280 -0.654752 2.946050 0
M  V30 45 H -0.346828 2.137123 2.831042 0
M  V30 46 H -1.326228 3.469319 1.170102 0
M  V30 47 H -2.530408 3.691719 -1.017432 0
M  V30 48 H -4.102035 0.684170 -4.247424 0
M  V30 49 H -3.036096 -2.185284 -0.418758 0
M  V30 50 H -2.017842 -4.229960 0.298401 0
M  V30 51 H -0.112883 -5.762610 0.313842 0
M  V30 52 H 0.059424 -1.589137 -2.414879 0
M  V30 53 H -1.346202 -0.679639 0.677498 0
M  V30 END ATOM
M  V30 BEGIN BOND
M  V30 1 1 1 2
M  V30 2 1 2 3
M  V30 3 1 3 4
M  V30 4 1 4 5
M  V30 5 1 5 6
M  V30 6 1 6 7
M  V30 7 1 7 8
M  V30 8 1 8 9
M  V30 9 1 9 10
M  V30 10 2 10 11
M  V30 11 1 11 12
M  V30 12 2 12 13
M  V30 13 1 13 14
M  V30 14 2 14 15
M  V30 15 1 15 16
M  V30 16 1 16 17
M  V30 17 3 17 18
M  V30 18 2 16 19
M  V30 19 1 19 20
M  V30 20 1 20 21
M  V30 21 2 21 22
M  V30 22 1 22 23
M  V30 23 2 23 24
M  V30 24 1 24 25
M  V30 25 1 24 26
M  V30 26 1 26 27
M  V30 27 2 26 28
M  V30 28 1 19 29
M  V30 29 2 29 30
M  V30 30 1 7 3
M  V30 31 1 30 10
M  V30 32 1 29 13
M  V30 33 1 28 21
M  V30 34 1 1 31
M  V30 35 1 1 32
M  V30 36 1 1 33
M  V30 37 1 2 34
M  V30 38 1 2 35
M  V30 39 1 4 36
M  V30 40 1 4 37
M  V30 41 1 5 38
M  V30 42 1 5 39
M  V30 43 1 6 40
M  V30 44 1 6 41
M  V30 45 1 7 42 CFG=3
M  V30 46 1 8 43
M  V30 47 1 8 44
M  V30 48 1 9 45
M  V30 49 1 11 46
M  V30 50 1 12 47
M  V30 51 1 15 48
M  V30 52 1 20 49
M  V30 53 1 22 50
M  V30 54 1 23 51
M  V30 55 1 28 52
M  V30 56 1 30 53
M  V30 END BOND
M  V30 END CTAB
M  END
>  <Dataset>  (873) 
ChEMBL_Kinases

>  <Ligand_Instance>  (873) 
nan

>  <PDB_ID>  (873) 
nan

>  <Standardized_SMILES>  (873) 
CCN1CCC[C@H]1CNc1ccc2ncc(C#N)c(Nc3ccc(F)c(Cl)c3)c2c1

>  <Name>  (873) 
nan

>  <Pocket>  (873) 
nan

>  <ATP_Site>  (873) 
nan

>  <Peripheral>  (873) 
nan

>  <Num_H_Atoms_ProtBoundConf>  (873) 
nan

>  <Num_Resolved_Atoms>  (873) 
nan

>  <Num_Not_Resolved_Atoms>  (873) 
nan

$$$$
CHEMBL426902
     RDKit          3D

  0  0  0  0  0  0  0  0  0  0999 V3000
M  V30 BEGIN CTAB
M  V30 COUNTS 59 61 0 0 0
M  V30 BEGIN ATOM
M  V30 1 C 3.121312 4.117216 2.061190 0
M  V30 2 C 3.601813 2.776849 1.607873 0
M  V30 3 C 4.967540 2.594452 1.629758 0
M  V30 4 C 5.400101 1.341861 1.211599 0
M  V30 5 C 4.509123 0.354813 0.804214 0
M  V30 6 C 4.944923 -0.956277 0.356095 0
M  V30 7 N 6.277740 -1.429307 0.232123 0
M  V30 8 O 4.119855 -1.864031 0.009137 0
M  V30 9 C 3.156339 0.602737 0.806805 0
M  V30 10 C 2.683564 1.830570 1.212733 0
M  V30 11 N 1.282590 2.057834 1.177734 0
M  V30 12 C 0.343391 1.057093 0.814562 0
M  V30 13 N -0.475599 0.622993 1.783391 0
M  V30 14 C -1.414394 -0.323486 1.602622 0
M  V30 15 N -2.235098 -0.691946 2.702454 0
M  V30 16 C -3.276121 -1.666321 2.752165 0 CFG=1
M  V30 17 C -3.982738 -1.757770 4.094285 0
M  V30 18 C -5.211758 -2.559192 3.714319 0
M  V30 19 N -5.465079 -2.317938 2.306818 0
M  V30 20 C -4.419144 -1.445972 1.812705 0
M  V30 21 N -1.533102 -0.862689 0.375438 0
M  V30 22 C -0.723835 -0.457762 -0.649961 0
M  V30 23 N -0.832687 -1.016953 -1.977425 0
M  V30 24 C 0.090593 -0.519333 -2.976629 0
M  V30 25 C -1.846657 -2.001713 -2.188940 0
M  V30 26 C -1.376226 -3.384473 -2.468616 0
M  V30 27 C -0.534275 -3.423831 -3.720264 0
M  V30 28 C -0.666221 -4.019775 -1.294462 0
M  V30 29 N 0.187822 0.491312 -0.390530 0
M  V30 30 H 3.068780 4.860265 1.243456 0
M  V30 31 H 2.097047 3.996545 2.521700 0
M  V30 32 H 3.824588 4.536980 2.839043 0
M  V30 33 H 5.660795 3.360755 1.946181 0
M  V30 34 H 6.458324 1.150145 1.209553 0
M  V30 35 H 6.747308 -1.541246 -0.696466 0
M  V30 36 H 6.625111 -1.616023 1.195680 0
M  V30 37 H 2.461890 -0.167040 0.489775 0
M  V30 38 H 0.773920 2.931755 1.398108 0
M  V30 39 H -2.088361 -0.203142 3.617249 0
M  V30 40 H -2.885601 -2.713606 2.574515 0
M  V30 41 H -4.290468 -0.731959 4.418442 0
M  V30 42 H -3.353815 -2.255775 4.846352 0
M  V30 43 H -6.089616 -2.311332 4.344027 0
M  V30 44 H -4.943379 -3.636506 3.812345 0
M  V30 45 H -6.417040 -1.909344 2.157151 0
M  V30 46 H -4.113060 -1.730974 0.769057 0
M  V30 47 H -4.772435 -0.401304 1.871251 0
M  V30 48 H 1.110738 -0.986720 -2.886224 0
M  V30 49 H 0.303476 0.573772 -2.788118 0
M  V30 50 H -0.309163 -0.577640 -3.991110 0
M  V30 51 H -2.581200 -2.043375 -1.347535 0
M  V30 52 H -2.482851 -1.700227 -3.071826 0
M  V30 53 H -2.266087 -4.029817 -2.659863 0
M  V30 54 H 0.538288 -3.209747 -3.539357 0
M  V30 55 H -0.987254 -2.796546 -4.512621 0
M  V30 56 H -0.549341 -4.466120 -4.169115 0
M  V30 57 H 0.356968 -3.661635 -1.140697 0
M  V30 58 H -1.257941 -3.776720 -0.394401 0
M  V30 59 H -0.664520 -5.107320 -1.448200 0
M  V30 END ATOM
M  V30 BEGIN BOND
M  V30 1 1 1 2
M  V30 2 2 2 3
M  V30 3 1 3 4
M  V30 4 2 4 5
M  V30 5 1 5 6
M  V30 6 1 6 7
M  V30 7 2 6 8
M  V30 8 1 5 9
M  V30 9 2 9 10
M  V30 10 1 10 11
M  V30 11 1 11 12
M  V30 12 2 12 13
M  V30 13 1 13 14
M  V30 14 1 14 15
M  V30 15 1 15 16
M  V30 16 1 16 17
M  V30 17 1 17 18
M  V30 18 1 18 19
M  V30 19 1 19 20
M  V30 20 2 14 21
M  V30 21 1 21 22
M  V30 22 1 22 23
M  V30 23 1 23 24
M  V30 24 1 23 25
M  V30 25 1 25 26
M  V30 26 1 26 27
M  V30 27 1 26 28
M  V30 28 2 22 29
M  V30 29 1 10 2
M  V30 30 1 29 12
M  V30 31 1 20 16
M  V30 32 1 1 30
M  V30 33 1 1 31
M  V30 34 1 1 32
M  V30 35 1 3 33
M  V30 36 1 4 34
M  V30 37 1 7 35
M  V30 38 1 7 36
M  V30 39 1 9 37
M  V30 40 1 11 38
M  V30 41 1 15 39
M  V30 42 1 16 40 CFG=3
M  V30 43 1 17 41
M  V30 44 1 17 42
M  V30 45 1 18 43
M  V30 46 1 18 44
M  V30 47 1 19 45
M  V30 48 1 20 46
M  V30 49 1 20 47
M  V30 50 1 24 48
M  V30 51 1 24 49
M  V30 52 1 24 50
M  V30 53 1 25 51
M  V30 54 1 25 52
M  V30 55 1 26 53
M  V30 56 1 27 54
M  V30 57 1 27 55
M  V30 58 1 27 56
M  V30 59 1 28 57
M  V30 60 1 28 58
M  V30 61 1 28 59
M  V30 END BOND
M  V30 END CTAB
M  END
>  <Dataset>  (874) 
ChEMBL_Kinases

>  <Ligand_Instance>  (874) 
nan

>  <PDB_ID>  (874) 
nan

>  <Standardized_SMILES>  (874) 
Cc1ccc(C(N)=O)cc1Nc1nc(N[C@H]2CCNC2)nc(N(C)CC(C)C)n1

>  <Name>  (874) 
nan

>  <Pocket>  (874) 
nan

>  <ATP_Site>  (874) 
nan

>  <Peripheral>  (874) 
nan

>  <Num_H_Atoms_ProtBoundConf>  (874) 
nan

>  <Num_Resolved_Atoms>  (874) 
nan

>  <Num_Not_Resolved_Atoms>  (874) 
nan

$$$$
CHEMBL426886
     RDKit          3D

  0  0  0  0  0  0  0  0  0  0999 V3000
M  V30 BEGIN CTAB
M  V30 COUNTS 53 56 0 0 0
M  V30 BEGIN ATOM
M  V30 1 C 2.304840 2.762624 3.856150 0
M  V30 2 C 3.338294 2.230039 2.933187 0
M  V30 3 N 3.004185 1.183746 2.071506 0
M  V30 4 C 3.994998 0.682122 1.196463 0
M  V30 5 C 4.293153 -0.676968 1.785857 0
M  V30 6 C 2.956083 -1.080506 2.358219 0
M  V30 7 C 2.119583 0.180785 2.482839 0 CFG=2
M  V30 8 C 0.990037 0.030824 1.506589 0
M  V30 9 N 0.194251 1.225332 1.331755 0
M  V30 10 C -0.891699 1.151341 0.421249 0
M  V30 11 C -1.725617 2.222524 0.166965 0
M  V30 12 C -2.791674 2.190116 -0.710962 0
M  V30 13 C -3.062441 1.026071 -1.389801 0
M  V30 14 N -4.092442 0.963177 -2.250459 0
M  V30 15 C -4.363921 -0.185671 -2.923842 0
M  V30 16 C -3.568906 -1.291856 -2.714932 0
M  V30 17 C -3.855324 -2.520579 -3.431936 0
M  V30 18 N -4.078548 -3.512591 -3.991882 0
M  V30 19 C -2.500003 -1.265283 -1.837034 0
M  V30 20 N -1.723079 -2.421424 -1.662465 0
M  V30 21 C -1.863333 -3.480978 -0.757697 0
M  V30 22 C -2.913926 -3.444280 0.133165 0
M  V30 23 C -2.992543 -4.533029 1.005676 0
M  V30 24 C -2.058989 -5.571386 0.956595 0
M  V30 25 F -2.149738 -6.619515 1.809783 0
M  V30 26 C -1.025520 -5.551496 0.038905 0
M  V30 27 Cl 0.161235 -6.832191 -0.052468 0
M  V30 28 C -0.920940 -4.484955 -0.839894 0
M  V30 29 C -2.262156 -0.077536 -1.175606 0
M  V30 30 C -1.208151 0.009038 -0.286089 0
M  V30 31 H 1.393590 2.170323 3.972784 0
M  V30 32 H 1.952303 3.761645 3.477441 0
M  V30 33 H 2.727516 3.001166 4.876136 0
M  V30 34 H 4.191753 1.876672 3.581873 0
M  V30 35 H 3.780543 3.071092 2.353091 0
M  V30 36 H 3.543529 0.499858 0.184615 0
M  V30 37 H 4.881770 1.307293 1.120671 0
M  V30 38 H 5.033459 -0.522375 2.605741 0
M  V30 39 H 4.661566 -1.408420 1.030663 0
M  V30 40 H 2.501265 -1.847858 1.705276 0
M  V30 41 H 3.161348 -1.535034 3.348649 0
M  V30 42 H 1.733478 0.213422 3.503232 0
M  V30 43 H 1.316770 -0.399317 0.534057 0
M  V30 44 H 0.272039 -0.726533 1.938298 0
M  V30 45 H 0.344846 2.138470 1.813990 0
M  V30 46 H -1.544558 3.163821 0.685172 0
M  V30 47 H -3.391145 3.077206 -0.847605 0
M  V30 48 H -5.190669 -0.302753 -3.640937 0
M  V30 49 H -0.973623 -2.332070 -2.383383 0
M  V30 50 H -3.616843 -2.627801 0.144574 0
M  V30 51 H -3.791672 -4.572048 1.732735 0
M  V30 52 H -0.117265 -4.453790 -1.565095 0
M  V30 53 H -0.591642 -0.874444 -0.134210 0
M  V30 END ATOM
M  V30 BEGIN BOND
M  V30 1 1 1 2
M  V30 2 1 2 3
M  V30 3 1 3 4
M  V30 4 1 4 5
M  V30 5 1 5 6
M  V30 6 1 6 7
M  V30 7 1 7 8
M  V30 8 1 8 9
M  V30 9 1 9 10
M  V30 10 2 10 11
M  V30 11 1 11 12
M  V30 12 2 12 13
M  V30 13 1 13 14
M  V30 14 2 14 15
M  V30 15 1 15 16
M  V30 16 1 16 17
M  V30 17 3 17 18
M  V30 18 2 16 19
M  V30 19 1 19 20
M  V30 20 1 20 21
M  V30 21 2 21 22
M  V30 22 1 22 23
M  V30 23 2 23 24
M  V30 24 1 24 25
M  V30 25 1 24 26
M  V30 26 1 26 27
M  V30 27 2 26 28
M  V30 28 1 19 29
M  V30 29 2 29 30
M  V30 30 1 7 3
M  V30 31 1 30 10
M  V30 32 1 29 13
M  V30 33 1 28 21
M  V30 34 1 1 31
M  V30 35 1 1 32
M  V30 36 1 1 33
M  V30 37 1 2 34
M  V30 38 1 2 35
M  V30 39 1 4 36
M  V30 40 1 4 37
M  V30 41 1 5 38
M  V30 42 1 5 39
M  V30 43 1 6 40
M  V30 44 1 6 41
M  V30 45 1 7 42 CFG=1
M  V30 46 1 8 43
M  V30 47 1 8 44
M  V30 48 1 9 45
M  V30 49 1 11 46
M  V30 50 1 12 47
M  V30 51 1 15 48
M  V30 52 1 20 49
M  V30 53 1 22 50
M  V30 54 1 23 51
M  V30 55 1 28 52
M  V30 56 1 30 53
M  V30 END BOND
M  V30 END CTAB
M  END
>  <Dataset>  (875) 
ChEMBL_Kinases

>  <Ligand_Instance>  (875) 
nan

>  <PDB_ID>  (875) 
nan

>  <Standardized_SMILES>  (875) 
CCN1CCC[C@@H]1CNc1ccc2ncc(C#N)c(Nc3ccc(F)c(Cl)c3)c2c1

>  <Name>  (875) 
nan

>  <Pocket>  (875) 
nan

>  <ATP_Site>  (875) 
nan

>  <Peripheral>  (875) 
nan

>  <Num_H_Atoms_ProtBoundConf>  (875) 
nan

>  <Num_Resolved_Atoms>  (875) 
nan

>  <Num_Not_Resolved_Atoms>  (875) 
nan

$$$$
CHEMBL426852
     RDKit          3D

  0  0  0  0  0  0  0  0  0  0999 V3000
M  V30 BEGIN CTAB
M  V30 COUNTS 40 43 0 0 0
M  V30 BEGIN ATOM
M  V30 1 F 4.500049 -1.555637 -2.980338 0
M  V30 2 C 3.226079 -1.328048 -2.427058 0
M  V30 3 F 2.747175 -2.597027 -2.166478 0
M  V30 4 F 2.542275 -0.692425 -3.457560 0
M  V30 5 C 3.405719 -0.491956 -1.231814 0
M  V30 6 C 4.691735 -0.085380 -0.847075 0
M  V30 7 C 5.009282 0.693459 0.245367 0
M  V30 8 C 3.947071 1.113004 1.038113 0
M  V30 9 C 2.670735 0.729092 0.684934 0
M  V30 10 C 2.372876 -0.050121 -0.411376 0
M  V30 11 C 1.002056 -0.423124 -0.734384 0
M  V30 12 C -0.047709 -0.008370 0.056265 0
M  V30 13 C -1.373038 -0.311308 -0.169489 0
M  V30 14 C -2.477447 0.134181 0.675998 0
M  V30 15 C -3.421926 0.968047 0.065445 0
M  V30 16 N -4.359542 1.279422 0.978582 0
M  V30 17 N -4.055775 0.685933 2.132015 0
M  V30 18 C -2.909242 -0.022041 1.978108 0
M  V30 19 C -2.095804 -0.859033 2.853319 0
M  V30 20 C -1.566478 -0.229060 3.958928 0
M  V30 21 C -0.783732 -0.939670 4.845535 0
M  V30 22 C -0.598517 -2.266019 4.527514 0
M  V30 23 C -1.108872 -2.934551 3.433563 0
M  V30 24 N -1.866394 -2.160546 2.614892 0
M  V30 25 C -1.711001 -1.085802 -1.259540 0
M  V30 26 C -0.646923 -1.490040 -2.037104 0
M  V30 27 N 0.621744 -1.158195 -1.759055 0
M  V30 28 H 5.538300 -0.407031 -1.459848 0
M  V30 29 H 6.034841 0.949698 0.452093 0
M  V30 30 H 4.191803 1.722726 1.894216 0
M  V30 31 H 1.933750 1.114484 1.373430 0
M  V30 32 H 0.064887 0.600828 0.939653 0
M  V30 33 H -3.567187 1.401595 -0.926665 0
M  V30 34 H -5.235087 1.873783 0.938039 0
M  V30 35 H -1.743260 0.833990 4.169933 0
M  V30 36 H -0.337123 -0.508678 5.732764 0
M  V30 37 H 0.016131 -2.856759 5.209065 0
M  V30 38 H -0.912195 -3.980025 3.261079 0
M  V30 39 H -2.696289 -1.405045 -1.566499 0
M  V30 40 H -0.799484 -2.102796 -2.918738 0
M  V30 END ATOM
M  V30 BEGIN BOND
M  V30 1 1 1 2
M  V30 2 1 2 3
M  V30 3 1 2 4
M  V30 4 1 2 5
M  V30 5 2 5 6
M  V30 6 1 6 7
M  V30 7 2 7 8
M  V30 8 1 8 9
M  V30 9 2 9 10
M  V30 10 1 10 11
M  V30 11 2 11 12
M  V30 12 1 12 13
M  V30 13 1 13 14
M  V30 14 2 14 15
M  V30 15 1 15 16
M  V30 16 1 16 17
M  V30 17 2 17 18
M  V30 18 1 18 19
M  V30 19 2 19 20
M  V30 20 1 20 21
M  V30 21 2 21 22
M  V30 22 1 22 23
M  V30 23 2 23 24
M  V30 24 2 13 25
M  V30 25 1 25 26
M  V30 26 2 26 27
M  V30 27 1 10 5
M  V30 28 1 27 11
M  V30 29 1 18 14
M  V30 30 1 24 19
M  V30 31 1 6 28
M  V30 32 1 7 29
M  V30 33 1 8 30
M  V30 34 1 9 31
M  V30 35 1 12 32
M  V30 36 1 15 33
M  V30 37 1 16 34
M  V30 38 1 20 35
M  V30 39 1 21 36
M  V30 40 1 22 37
M  V30 41 1 23 38
M  V30 42 1 25 39
M  V30 43 1 26 40
M  V30 END BOND
M  V30 END CTAB
M  END
>  <Dataset>  (876) 
ChEMBL_Kinases

>  <Ligand_Instance>  (876) 
nan

>  <PDB_ID>  (876) 
nan

>  <Standardized_SMILES>  (876) 
FC(F)(F)c1ccccc1-c1cc(-c2c[nH]nc2-c2ccccn2)ccn1

>  <Name>  (876) 
nan

>  <Pocket>  (876) 
nan

>  <ATP_Site>  (876) 
nan

>  <Peripheral>  (876) 
nan

>  <Num_H_Atoms_ProtBoundConf>  (876) 
nan

>  <Num_Resolved_Atoms>  (876) 
nan

>  <Num_Not_Resolved_Atoms>  (876) 
nan

$$$$
CHEMBL427226
     RDKit          3D

  0  0  0  0  0  0  0  0  0  0999 V3000
M  V30 BEGIN CTAB
M  V30 COUNTS 67 71 0 0 0
M  V30 BEGIN ATOM
M  V30 1 C 7.866408 2.095011 6.350184 0
M  V30 2 N 7.783378 2.991622 5.207755 0
M  V30 3 C 6.509334 3.026703 4.568879 0
M  V30 4 N 5.543387 2.209992 5.017404 0
M  V30 5 C 4.291762 2.173934 4.502945 0
M  V30 6 C 3.936238 2.997710 3.463912 0
M  V30 7 C 2.717283 3.090165 2.845744 0
M  V30 8 C 2.396309 3.942754 1.808661 0
M  V30 9 C 1.016905 3.749182 1.420224 0
M  V30 10 C 0.588546 2.491655 1.077141 0
M  V30 11 C -0.643465 2.059380 0.688445 0
M  V30 12 C -0.981520 0.691290 0.323487 0
M  V30 13 O 0.075124 0.112688 -0.079098 0
M  V30 14 N -2.299286 0.223446 0.443361 0
M  V30 15 C -2.492822 -1.149363 0.026530 0
M  V30 16 C -3.108512 -1.217575 -1.220012 0
M  V30 17 C -3.325349 -2.474311 -1.729788 0
M  V30 18 C -2.993872 -3.665578 -1.131644 0
M  V30 19 O -3.194638 -4.954447 -1.588817 0
M  V30 20 C -3.906466 -5.332887 -2.724592 0
M  V30 21 C -3.114494 -5.815648 -3.886670 0
M  V30 22 C -2.491887 -7.152301 -3.584291 0
M  V30 23 N -3.520510 -8.157951 -3.504084 0
M  V30 24 C -3.145194 -9.207499 -2.580108 0
M  V30 25 C -4.822168 -7.623953 -3.269445 0
M  V30 26 C -4.861201 -6.451841 -2.319872 0
M  V30 27 C -2.389949 -3.505982 0.094521 0
M  V30 28 C -2.127173 -2.296950 0.696141 0
M  V30 29 C -1.606244 3.062265 0.637174 0
M  V30 30 C -1.256989 4.381152 0.969660 0
M  V30 31 C 0.016825 4.734294 1.352501 0
M  V30 32 C 0.457699 6.099295 1.711269 0
M  V30 33 C 3.407527 4.780143 1.357046 0
M  V30 34 C 4.660319 4.725863 1.947119 0
M  V30 35 C 4.950531 3.847424 3.000993 0
M  V30 36 N 6.184467 3.857241 3.535126 0
M  V30 37 H 7.318480 1.156844 6.184637 0
M  V30 38 H 8.939428 1.927860 6.552719 0
M  V30 39 H 7.400131 2.559698 7.253833 0
M  V30 40 H 8.560075 3.572866 4.861442 0
M  V30 41 H 3.518422 1.513824 4.866483 0
M  V30 42 H 2.045892 2.356823 3.321219 0
M  V30 43 H 1.334884 1.691050 1.119196 0
M  V30 44 H -3.022899 0.889926 0.811753 0
M  V30 45 H -3.415393 -0.364061 -1.795760 0
M  V30 46 H -3.802111 -2.572502 -2.695217 0
M  V30 47 H -4.488868 -4.431435 -3.084746 0
M  V30 48 H -3.872241 -6.008518 -4.711502 0
M  V30 49 H -2.404571 -5.086375 -4.311295 0
M  V30 50 H -1.781909 -7.463515 -4.404505 0
M  V30 51 H -1.981042 -7.136764 -2.610513 0
M  V30 52 H -3.574732 -10.202429 -2.895990 0
M  V30 53 H -3.456409 -8.916005 -1.562938 0
M  V30 54 H -2.031934 -9.311254 -2.610860 0
M  V30 55 H -5.305964 -7.383113 -4.256756 0
M  V30 56 H -5.508906 -8.386624 -2.802293 0
M  V30 57 H -4.575054 -6.852419 -1.314332 0
M  V30 58 H -5.877464 -6.037304 -2.343887 0
M  V30 59 H -2.080490 -4.368825 0.688367 0
M  V30 60 H -1.666489 -2.123403 1.638421 0
M  V30 61 H -2.634038 2.878648 0.346830 0
M  V30 62 H -1.991146 5.186054 0.932865 0
M  V30 63 H 1.015992 6.535606 0.852663 0
M  V30 64 H 1.182226 6.025521 2.561075 0
M  V30 65 H -0.422122 6.704928 1.996395 0
M  V30 66 H 3.074500 5.397921 0.554303 0
M  V30 67 H 5.394211 5.409839 1.535366 0
M  V30 END ATOM
M  V30 BEGIN BOND
M  V30 1 1 1 2
M  V30 2 1 2 3
M  V30 3 2 3 4
M  V30 4 1 4 5
M  V30 5 2 5 6
M  V30 6 1 6 7
M  V30 7 2 7 8
M  V30 8 1 8 9
M  V30 9 2 9 10
M  V30 10 1 10 11
M  V30 11 1 11 12
M  V30 12 2 12 13
M  V30 13 1 12 14
M  V30 14 1 14 15
M  V30 15 2 15 16
M  V30 16 1 16 17
M  V30 17 2 17 18
M  V30 18 1 18 19
M  V30 19 1 19 20
M  V30 20 1 20 21
M  V30 21 1 21 22
M  V30 22 1 22 23
M  V30 23 1 23 24
M  V30 24 1 23 25
M  V30 25 1 25 26
M  V30 26 1 18 27
M  V30 27 2 27 28
M  V30 28 2 11 29
M  V30 29 1 29 30
M  V30 30 2 30 31
M  V30 31 1 31 32
M  V30 32 1 8 33
M  V30 33 2 33 34
M  V30 34 1 34 35
M  V30 35 2 35 36
M  V30 36 1 36 3
M  V30 37 1 35 6
M  V30 38 1 31 9
M  V30 39 1 28 15
M  V30 40 1 26 20
M  V30 41 1 1 37
M  V30 42 1 1 38
M  V30 43 1 1 39
M  V30 44 1 2 40
M  V30 45 1 5 41
M  V30 46 1 7 42
M  V30 47 1 10 43
M  V30 48 1 14 44
M  V30 49 1 16 45
M  V30 50 1 17 46
M  V30 51 1 20 47
M  V30 52 1 21 48
M  V30 53 1 21 49
M  V30 54 1 22 50
M  V30 55 1 22 51
M  V30 56 1 24 52
M  V30 57 1 24 53
M  V30 58 1 24 54
M  V30 59 1 25 55
M  V30 60 1 25 56
M  V30 61 1 26 57
M  V30 62 1 26 58
M  V30 63 1 27 59
M  V30 64 1 28 60
M  V30 65 1 29 61
M  V30 66 1 30 62
M  V30 67 1 32 63
M  V30 68 1 32 64
M  V30 69 1 32 65
M  V30 70 1 33 66
M  V30 71 1 34 67
M  V30 END BOND
M  V30 END CTAB
M  END
>  <Dataset>  (877) 
ChEMBL_Kinases

>  <Ligand_Instance>  (877) 
nan

>  <PDB_ID>  (877) 
nan

>  <Standardized_SMILES>  (877) 
CNc1ncc2cc(-c3cc(C(=O)Nc4ccc(OC5CCN(C)CC5)cc4)ccc3C)ccc2n1

>  <Name>  (877) 
nan

>  <Pocket>  (877) 
nan

>  <ATP_Site>  (877) 
nan

>  <Peripheral>  (877) 
nan

>  <Num_H_Atoms_ProtBoundConf>  (877) 
nan

>  <Num_Resolved_Atoms>  (877) 
nan

>  <Num_Not_Resolved_Atoms>  (877) 
nan

$$$$
CHEMBL425155
     RDKit          3D

  0  0  0  0  0  0  0  0  0  0999 V3000
M  V30 BEGIN CTAB
M  V30 COUNTS 59 64 0 0 0
M  V30 BEGIN ATOM
M  V30 1 C 2.195506 -0.510747 5.476704 0
M  V30 2 C 2.407865 -1.116546 4.252305 0
M  V30 3 C 2.655676 -0.310225 3.159973 0
M  V30 4 C 2.690147 1.060348 3.287720 0
M  V30 5 C 2.962444 1.765789 2.048260 0
M  V30 6 C 4.149045 2.505102 2.076207 0
M  V30 7 C 4.470864 3.209357 0.917549 0
M  V30 8 C 5.688312 4.013582 0.836698 0
M  V30 9 N 6.264387 5.149394 1.284678 0
M  V30 10 N 7.473412 5.250512 0.755421 0
M  V30 11 N 7.698846 4.195612 -0.034442 0
M  V30 12 N 6.609108 3.445611 0.018473 0
M  V30 13 C 3.648778 3.170881 -0.198195 0
M  V30 14 N 2.501515 2.438949 -0.185559 0
M  V30 15 C 2.152423 1.735299 0.931362 0
M  V30 16 C 0.943971 0.924885 1.024715 0
M  V30 17 C -0.113828 1.078856 1.895627 0
M  V30 18 C -1.182751 0.210515 1.837874 0
M  V30 19 C -1.274938 -0.854198 0.926021 0
M  V30 20 C -2.501912 -1.640460 1.068575 0
M  V30 21 N -3.651221 -1.200923 0.394694 0
M  V30 22 C -3.741688 -1.218205 -1.004486 0
M  V30 23 C -3.777555 -2.561259 -1.648752 0
M  V30 24 C -5.036294 -3.165713 -1.759194 0
M  V30 25 C -5.215954 -4.401310 -2.342061 0
M  V30 26 C -4.158895 -5.118074 -2.853573 0
M  V30 27 C -4.340024 -6.423306 -3.470707 0
M  V30 28 C -5.596532 -7.037266 -3.586011 0
M  V30 29 S -5.180797 -8.653288 -4.445302 0
M  V30 30 N -3.397771 -8.193030 -4.484548 0
M  V30 31 N -3.315736 -7.050738 -3.933240 0
M  V30 32 C -2.940089 -4.489627 -2.725380 0
M  V30 33 C -2.709268 -3.261590 -2.153964 0
M  V30 34 C -0.189989 -0.954057 0.086291 0
M  V30 35 C 0.896447 -0.109680 0.109900 0
M  V30 36 C 2.473435 1.646114 4.529987 0
M  V30 37 C 2.223209 0.865411 5.640457 0
M  V30 38 H 1.992758 -1.039151 6.398854 0
M  V30 39 H 2.353656 -2.192209 4.290730 0
M  V30 40 H 2.813067 -0.859232 2.230776 0
M  V30 41 H 4.834698 2.587739 2.890344 0
M  V30 42 H 8.613166 4.122699 -0.530825 0
M  V30 43 H 3.926786 3.735044 -1.096110 0
M  V30 44 H -0.020768 1.902915 2.586553 0
M  V30 45 H -1.943406 0.460548 2.592126 0
M  V30 46 H -2.771709 -1.704897 2.165848 0
M  V30 47 H -2.241799 -2.693995 0.798235 0
M  V30 48 H -4.378302 -0.709319 0.920831 0
M  V30 49 H -2.979196 -0.562855 -1.500755 0
M  V30 50 H -4.718065 -0.718510 -1.279041 0
M  V30 51 H -5.907941 -2.627052 -1.363102 0
M  V30 52 H -6.214843 -4.757712 -2.368808 0
M  V30 53 H -6.659303 -6.529178 -3.176507 0
M  V30 54 H -2.045090 -5.002885 -3.111707 0
M  V30 55 H -1.739461 -2.815966 -2.085881 0
M  V30 56 H -0.272277 -1.779169 -0.602443 0
M  V30 57 H 1.669241 -0.322713 -0.618154 0
M  V30 58 H 2.517983 2.733612 4.544187 0
M  V30 59 H 2.059530 1.361372 6.590318 0
M  V30 END ATOM
M  V30 BEGIN BOND
M  V30 1 2 1 2
M  V30 2 1 2 3
M  V30 3 2 3 4
M  V30 4 1 4 5
M  V30 5 2 5 6
M  V30 6 1 6 7
M  V30 7 1 7 8
M  V30 8 1 8 9
M  V30 9 2 9 10
M  V30 10 1 10 11
M  V30 11 1 11 12
M  V30 12 2 7 13
M  V30 13 1 13 14
M  V30 14 2 14 15
M  V30 15 1 15 16
M  V30 16 2 16 17
M  V30 17 1 17 18
M  V30 18 2 18 19
M  V30 19 1 19 20
M  V30 20 1 20 21
M  V30 21 1 21 22
M  V30 22 1 22 23
M  V30 23 2 23 24
M  V30 24 1 24 25
M  V30 25 2 25 26
M  V30 26 1 26 27
M  V30 27 2 27 28
M  V30 28 1 28 29
M  V30 29 1 29 30
M  V30 30 2 30 31
M  V30 31 1 26 32
M  V30 32 2 32 33
M  V30 33 1 19 34
M  V30 34 2 34 35
M  V30 35 1 4 36
M  V30 36 2 36 37
M  V30 37 1 37 1
M  V30 38 1 15 5
M  V30 39 1 35 16
M  V30 40 2 12 8
M  V30 41 1 33 23
M  V30 42 1 31 27
M  V30 43 1 1 38
M  V30 44 1 2 39
M  V30 45 1 3 40
M  V30 46 1 6 41
M  V30 47 1 11 42
M  V30 48 1 13 43
M  V30 49 1 17 44
M  V30 50 1 18 45
M  V30 51 1 20 46
M  V30 52 1 20 47
M  V30 53 1 21 48
M  V30 54 1 22 49
M  V30 55 1 22 50
M  V30 56 1 24 51
M  V30 57 1 25 52
M  V30 58 1 28 53
M  V30 59 1 32 54
M  V30 60 1 33 55
M  V30 61 1 34 56
M  V30 62 1 35 57
M  V30 63 1 36 58
M  V30 64 1 37 59
M  V30 END BOND
M  V30 END CTAB
M  END
>  <Dataset>  (878) 
ChEMBL_Kinases

>  <Ligand_Instance>  (878) 
nan

>  <PDB_ID>  (878) 
nan

>  <Standardized_SMILES>  (878) 
c1ccc(-c2cc(-c3nn[nH]n3)cnc2-c2ccc(CNCc3ccc(-c4csnn4)cc3)cc2)cc1

>  <Name>  (878) 
nan

>  <Pocket>  (878) 
nan

>  <ATP_Site>  (878) 
nan

>  <Peripheral>  (878) 
nan

>  <Num_H_Atoms_ProtBoundConf>  (878) 
nan

>  <Num_Resolved_Atoms>  (878) 
nan

>  <Num_Not_Resolved_Atoms>  (878) 
nan

$$$$
CHEMBL4251448
     RDKit          3D

  0  0  0  0  0  0  0  0  0  0999 V3000
M  V30 BEGIN CTAB
M  V30 COUNTS 38 41 0 0 0
M  V30 BEGIN ATOM
M  V30 1 O 1.323236 -2.112190 0.087927 0
M  V30 2 C 0.234631 -2.435746 -0.449969 0
M  V30 3 C 0.234581 -3.919938 -0.191932 0
M  V30 4 C 1.484220 -4.244740 0.546568 0
M  V30 5 C 2.658656 -4.582897 -0.120107 0
M  V30 6 C 3.799818 -4.877956 0.619249 0
M  V30 7 C 3.718540 -4.822398 1.996072 0
M  V30 8 C 2.541952 -4.483584 2.665447 0
M  V30 9 C 1.393333 -4.186408 1.929169 0
M  V30 10 N -0.806190 -1.772015 -1.133451 0
M  V30 11 C -0.514551 -0.377409 -1.216760 0
M  V30 12 N -0.760232 0.544158 -0.510930 0
M  V30 13 C -0.437608 1.798369 -0.690579 0
M  V30 14 C -0.757750 2.898531 0.198646 0
M  V30 15 C -0.402908 4.209726 -0.019484 0
M  V30 16 C -0.724149 5.233504 0.848496 0
M  V30 17 N -1.417571 4.943846 1.964017 0
M  V30 18 C -1.797552 3.684248 2.241420 0
M  V30 19 N -2.484027 3.163957 3.274915 0
M  V30 20 C -2.631783 1.834628 3.128149 0
M  V30 21 C -1.988868 1.549662 1.926021 0
M  V30 22 C -1.464106 2.692454 1.361963 0
M  V30 23 C 0.313154 2.055150 -1.915727 0
M  V30 24 S 0.448476 0.333643 -2.672569 0
M  V30 25 H -0.670955 -4.243402 0.337953 0
M  V30 26 H 0.265717 -4.395393 -1.186844 0
M  V30 27 H 2.652876 -4.607617 -1.208703 0
M  V30 28 H 4.697985 -5.137223 0.082233 0
M  V30 29 H 4.623722 -5.056863 2.565067 0
M  V30 30 H 2.527086 -4.453098 3.758269 0
M  V30 31 H 0.505021 -3.930277 2.448030 0
M  V30 32 H -1.587381 -2.351702 -1.459033 0
M  V30 33 H 0.151194 4.489659 -0.896172 0
M  V30 34 H -0.420596 6.246420 0.628926 0
M  V30 35 H -2.852316 3.713625 4.080748 0
M  V30 36 H -3.126755 1.120004 3.770371 0
M  V30 37 H -1.937967 0.550885 1.534763 0
M  V30 38 H 0.683790 3.107254 -2.239979 0
M  V30 END ATOM
M  V30 BEGIN BOND
M  V30 1 2 1 2
M  V30 2 1 2 3
M  V30 3 1 3 4
M  V30 4 2 4 5
M  V30 5 1 5 6
M  V30 6 2 6 7
M  V30 7 1 7 8
M  V30 8 2 8 9
M  V30 9 1 2 10
M  V30 10 1 10 11
M  V30 11 2 11 12
M  V30 12 1 12 13
M  V30 13 1 13 14
M  V30 14 2 14 15
M  V30 15 1 15 16
M  V30 16 2 16 17
M  V30 17 1 17 18
M  V30 18 1 18 19
M  V30 19 1 19 20
M  V30 20 2 20 21
M  V30 21 1 21 22
M  V30 22 2 13 23
M  V30 23 1 23 24
M  V30 24 1 9 4
M  V30 25 1 24 11
M  V30 26 1 22 14
M  V30 27 2 22 18
M  V30 28 1 3 25
M  V30 29 1 3 26
M  V30 30 1 5 27
M  V30 31 1 6 28
M  V30 32 1 7 29
M  V30 33 1 8 30
M  V30 34 1 9 31
M  V30 35 1 10 32
M  V30 36 1 15 33
M  V30 37 1 16 34
M  V30 38 1 19 35
M  V30 39 1 20 36
M  V30 40 1 21 37
M  V30 41 1 23 38
M  V30 END BOND
M  V30 END CTAB
M  END
>  <Dataset>  (879) 
ChEMBL_Kinases

>  <Ligand_Instance>  (879) 
nan

>  <PDB_ID>  (879) 
nan

>  <Standardized_SMILES>  (879) 
O=C(Cc1ccccc1)Nc1nc(-c2ccnc3[nH]ccc23)cs1

>  <Name>  (879) 
nan

>  <Pocket>  (879) 
nan

>  <ATP_Site>  (879) 
nan

>  <Peripheral>  (879) 
nan

>  <Num_H_Atoms_ProtBoundConf>  (879) 
nan

>  <Num_Resolved_Atoms>  (879) 
nan

>  <Num_Not_Resolved_Atoms>  (879) 
nan

$$$$
CHEMBL4251352
     RDKit          3D

  0  0  0  0  0  0  0  0  0  0999 V3000
M  V30 BEGIN CTAB
M  V30 COUNTS 64 68 0 0 0
M  V30 BEGIN ATOM
M  V30 1 C 0.899434 0.144098 6.477817 0
M  V30 2 O 0.258197 -0.423736 5.351597 0
M  V30 3 C 0.727187 -0.273178 4.045353 0
M  V30 4 C 1.845006 0.436781 3.753583 0
M  V30 5 C 2.320254 0.595557 2.480283 0
M  V30 6 C 3.523582 1.369383 2.230787 0
M  V30 7 N 4.785123 0.989758 2.480033 0
M  V30 8 N 5.636865 1.946784 2.127598 0
M  V30 9 C 4.835104 2.931521 1.649879 0
M  V30 10 N 3.536945 2.604044 1.701582 0
M  V30 11 C 2.718421 3.657059 1.193246 0
M  V30 12 C 3.659844 4.682401 0.633475 0
M  V30 13 C 5.036995 4.283687 1.083363 0
M  V30 14 C 1.621524 0.002690 1.465011 0
M  V30 15 C 0.491076 -0.712846 1.779076 0
M  V30 16 C -0.034068 -0.904477 3.055174 0
M  V30 17 N -1.205297 -1.659330 3.236824 0
M  V30 18 C -2.072858 -2.358334 2.376518 0
M  V30 19 N -3.133189 -2.946363 2.969359 0
M  V30 20 C -4.049015 -3.647957 2.293774 0
M  V30 21 C -3.829049 -3.725577 0.946793 0
M  V30 22 C -4.732167 -4.429884 0.196085 0
M  V30 23 C -4.691126 -4.623522 -1.160929 0
M  V30 24 C -5.665751 -5.384273 -1.974741 0
M  V30 25 N -3.649134 -4.047538 -1.752675 0
M  V30 26 C -2.703206 -3.334133 -1.114856 0
M  V30 27 N -1.547216 -2.678197 -1.602439 0
M  V30 28 C -0.435195 -2.056045 -2.126780 0
M  V30 29 C -0.605512 -0.995610 -3.195081 0
M  V30 30 C -1.288088 -1.506687 -4.437708 0
M  V30 31 C -1.236188 0.260806 -2.701874 0
M  V30 32 C 0.807798 -0.628186 -3.604239 0
M  V30 33 C -2.750192 -3.138755 0.274520 0
M  V30 34 N -1.920455 -2.476418 1.049459 0
M  V30 35 H 0.686256 1.224512 6.574410 0
M  V30 36 H 1.995090 -0.017153 6.424859 0
M  V30 37 H 0.538827 -0.434983 7.353206 0
M  V30 38 H 2.339465 0.875575 4.626570 0
M  V30 39 H 2.024424 3.312680 0.396581 0
M  V30 40 H 2.096655 4.141737 1.975474 0
M  V30 41 H 3.397503 5.707109 0.993715 0
M  V30 42 H 3.584751 4.718445 -0.475483 0
M  V30 43 H 5.463655 4.964997 1.849262 0
M  V30 44 H 5.735577 4.294136 0.222209 0
M  V30 45 H 1.969875 0.110280 0.459926 0
M  V30 46 H -0.012427 -1.152035 0.945536 0
M  V30 47 H -1.423025 -1.659662 4.272107 0
M  V30 48 H -4.899464 -4.119105 2.766746 0
M  V30 49 H -5.577268 -4.896882 0.678318 0
M  V30 50 H -5.171389 -5.810668 -2.856980 0
M  V30 51 H -6.051537 -6.224390 -1.364541 0
M  V30 52 H -6.471450 -4.706364 -2.302024 0
M  V30 53 H -1.730890 -2.938904 -2.634136 0
M  V30 54 H 0.205227 -1.523203 -1.353389 0
M  V30 55 H 0.328987 -2.778068 -2.531534 0
M  V30 56 H -1.015904 -2.570380 -4.605634 0
M  V30 57 H -2.374106 -1.405224 -4.292299 0
M  V30 58 H -0.968524 -0.889667 -5.292379 0
M  V30 59 H -1.997160 0.139592 -1.922411 0
M  V30 60 H -1.728024 0.810531 -3.528941 0
M  V30 61 H -0.478175 0.989517 -2.291231 0
M  V30 62 H 1.446410 -1.557300 -3.681271 0
M  V30 63 H 0.835886 -0.150708 -4.606348 0
M  V30 64 H 1.305569 0.006681 -2.846475 0
M  V30 END ATOM
M  V30 BEGIN BOND
M  V30 1 1 1 2
M  V30 2 1 2 3
M  V30 3 2 3 4
M  V30 4 1 4 5
M  V30 5 1 5 6
M  V30 6 2 6 7
M  V30 7 1 7 8
M  V30 8 2 8 9
M  V30 9 1 9 10
M  V30 10 1 10 11
M  V30 11 1 11 12
M  V30 12 1 12 13
M  V30 13 2 5 14
M  V30 14 1 14 15
M  V30 15 2 15 16
M  V30 16 1 16 17
M  V30 17 1 17 18
M  V30 18 2 18 19
M  V30 19 1 19 20
M  V30 20 2 20 21
M  V30 21 1 21 22
M  V30 22 2 22 23
M  V30 23 1 23 24
M  V30 24 1 23 25
M  V30 25 2 25 26
M  V30 26 1 26 27
M  V30 27 1 27 28
M  V30 28 1 28 29
M  V30 29 1 29 30
M  V30 30 1 29 31
M  V30 31 1 29 32
M  V30 32 1 26 33
M  V30 33 2 33 34
M  V30 34 1 16 3
M  V30 35 1 34 18
M  V30 36 1 10 6
M  V30 37 1 33 21
M  V30 38 1 13 9
M  V30 39 1 1 35
M  V30 40 1 1 36
M  V30 41 1 1 37
M  V30 42 1 4 38
M  V30 43 1 11 39
M  V30 44 1 11 40
M  V30 45 1 12 41
M  V30 46 1 12 42
M  V30 47 1 13 43
M  V30 48 1 13 44
M  V30 49 1 14 45
M  V30 50 1 15 46
M  V30 51 1 17 47
M  V30 52 1 20 48
M  V30 53 1 22 49
M  V30 54 1 24 50
M  V30 55 1 24 51
M  V30 56 1 24 52
M  V30 57 1 27 53
M  V30 58 1 28 54
M  V30 59 1 28 55
M  V30 60 1 30 56
M  V30 61 1 30 57
M  V30 62 1 30 58
M  V30 63 1 31 59
M  V30 64 1 31 60
M  V30 65 1 31 61
M  V30 66 1 32 62
M  V30 67 1 32 63
M  V30 68 1 32 64
M  V30 END BOND
M  V30 END CTAB
M  END
>  <Dataset>  (880) 
ChEMBL_Kinases

>  <Ligand_Instance>  (880) 
nan

>  <PDB_ID>  (880) 
nan

>  <Standardized_SMILES>  (880) 
COc1cc(-c2nnc3n2CCC3)ccc1Nc1ncc2cc(C)nc(NCC(C)(C)C)c2n1

>  <Name>  (880) 
nan

>  <Pocket>  (880) 
nan

>  <ATP_Site>  (880) 
nan

>  <Peripheral>  (880) 
nan

>  <Num_H_Atoms_ProtBoundConf>  (880) 
nan

>  <Num_Resolved_Atoms>  (880) 
nan

>  <Num_Not_Resolved_Atoms>  (880) 
nan

$$$$
CHEMBL4251324
     RDKit          3D

  0  0  0  0  0  0  0  0  0  0999 V3000
M  V30 BEGIN CTAB
M  V30 COUNTS 59 62 0 0 0
M  V30 BEGIN ATOM
M  V30 1 O 1.478412 -3.076924 3.719884 0
M  V30 2 C 0.543312 -2.222854 3.512252 0
M  V30 3 C 1.035435 -0.856642 3.661903 0
M  V30 4 C 2.082247 -0.467410 2.683693 0
M  V30 5 C 3.398321 -0.862184 2.785858 0
M  V30 6 C 4.333877 -0.455260 1.843275 0
M  V30 7 C 3.893586 0.365548 0.792941 0
M  V30 8 C 2.556871 0.779830 0.671228 0
M  V30 9 O 2.508805 1.548795 -0.443346 0
M  V30 10 C 1.445604 2.245111 -1.039914 0
M  V30 11 C 0.869041 3.309329 -0.181927 0
M  V30 12 C -0.209729 4.172855 -0.712380 0
M  V30 13 C -1.504910 3.611684 -1.144663 0
M  V30 14 C -2.441166 4.762211 -1.605109 0
M  V30 15 C -3.811503 4.160700 -1.753617 0
M  V30 16 N -3.812188 3.021999 -2.615330 0
M  V30 17 C -2.563748 2.898404 -3.331571 0
M  V30 18 C -1.451333 2.690934 -2.315357 0
M  V30 19 C 1.683392 0.339306 1.638693 0
M  V30 20 N -0.711859 -2.803613 3.194064 0
M  V30 21 C -0.680915 -4.296546 3.178223 0
M  V30 22 N -0.432286 -5.044607 2.378099 0
M  V30 23 C -0.444569 -6.373097 2.461794 0
M  V30 24 C -0.089450 -7.291655 1.364043 0
M  V30 25 C 0.305715 -6.856256 0.116957 0
M  V30 26 C 0.641324 -7.706043 -0.924341 0
M  V30 27 N 0.584818 -9.034750 -0.726725 0
M  V30 28 C 0.206476 -9.518816 0.468413 0
M  V30 29 C -0.122393 -8.661061 1.488335 0
M  V30 30 C -0.815843 -6.900710 3.710636 0
M  V30 31 S -1.128771 -5.336594 4.699172 0
M  V30 32 H 0.189306 -0.148312 3.613444 0
M  V30 33 H 1.540289 -0.804484 4.675852 0
M  V30 34 H 3.650200 -1.490637 3.621560 0
M  V30 35 H 5.322856 -0.825819 2.027122 0
M  V30 36 H 4.778126 0.571978 0.163437 0
M  V30 37 H 1.778398 2.607588 -2.030998 0
M  V30 38 H 0.641842 1.467081 -1.251126 0
M  V30 39 H 0.578882 2.925204 0.838342 0
M  V30 40 H 1.744613 3.998562 0.096335 0
M  V30 41 H -0.450485 4.992144 0.044203 0
M  V30 42 H 0.195019 4.744017 -1.619072 0
M  V30 43 H -2.019425 3.176293 -0.272909 0
M  V30 44 H -2.094591 5.128252 -2.562179 0
M  V30 45 H -2.460768 5.566031 -0.836848 0
M  V30 46 H -4.168520 3.858073 -0.736231 0
M  V30 47 H -4.537696 4.908596 -2.166600 0
M  V30 48 H -3.947078 2.146496 -2.064865 0
M  V30 49 H -2.300994 3.732353 -3.973671 0
M  V30 50 H -2.553751 1.953737 -3.948484 0
M  V30 51 H -0.472501 2.776265 -2.809105 0
M  V30 52 H -1.531222 1.647290 -1.902738 0
M  V30 53 H 0.700886 0.690201 1.459842 0
M  V30 54 H -1.435259 -2.076754 3.024566 0
M  V30 55 H 0.366555 -5.793249 -0.083761 0
M  V30 56 H 0.944815 -7.295914 -1.881612 0
M  V30 57 H 0.179004 -10.587605 0.568565 0
M  V30 58 H -0.418392 -9.103900 2.428841 0
M  V30 59 H -0.897814 -7.920106 4.012455 0
M  V30 END ATOM
M  V30 BEGIN BOND
M  V30 1 2 1 2
M  V30 2 1 2 3
M  V30 3 1 3 4
M  V30 4 2 4 5
M  V30 5 1 5 6
M  V30 6 2 6 7
M  V30 7 1 7 8
M  V30 8 1 8 9
M  V30 9 1 9 10
M  V30 10 1 10 11
M  V30 11 1 11 12
M  V30 12 1 12 13
M  V30 13 1 13 14
M  V30 14 1 14 15
M  V30 15 1 15 16
M  V30 16 1 16 17
M  V30 17 1 17 18
M  V30 18 2 8 19
M  V30 19 1 2 20
M  V30 20 1 20 21
M  V30 21 2 21 22
M  V30 22 1 22 23
M  V30 23 1 23 24
M  V30 24 2 24 25
M  V30 25 1 25 26
M  V30 26 2 26 27
M  V30 27 1 27 28
M  V30 28 2 28 29
M  V30 29 2 23 30
M  V30 30 1 30 31
M  V30 31 1 19 4
M  V30 32 1 31 21
M  V30 33 1 18 13
M  V30 34 1 29 24
M  V30 35 1 3 32
M  V30 36 1 3 33
M  V30 37 1 5 34
M  V30 38 1 6 35
M  V30 39 1 7 36
M  V30 40 1 10 37
M  V30 41 1 10 38
M  V30 42 1 11 39
M  V30 43 1 11 40
M  V30 44 1 12 41
M  V30 45 1 12 42
M  V30 46 1 13 43
M  V30 47 1 14 44
M  V30 48 1 14 45
M  V30 49 1 15 46
M  V30 50 1 15 47
M  V30 51 1 16 48
M  V30 52 1 17 49
M  V30 53 1 17 50
M  V30 54 1 18 51
M  V30 55 1 18 52
M  V30 56 1 19 53
M  V30 57 1 20 54
M  V30 58 1 25 55
M  V30 59 1 26 56
M  V30 60 1 28 57
M  V30 61 1 29 58
M  V30 62 1 30 59
M  V30 END BOND
M  V30 END CTAB
M  END
>  <Dataset>  (881) 
ChEMBL_Kinases

>  <Ligand_Instance>  (881) 
nan

>  <PDB_ID>  (881) 
nan

>  <Standardized_SMILES>  (881) 
O=C(Cc1cccc(OCCCC2CCNCC2)c1)Nc1nc(-c2ccncc2)cs1

>  <Name>  (881) 
nan

>  <Pocket>  (881) 
nan

>  <ATP_Site>  (881) 
nan

>  <Peripheral>  (881) 
nan

>  <Num_H_Atoms_ProtBoundConf>  (881) 
nan

>  <Num_Resolved_Atoms>  (881) 
nan

>  <Num_Not_Resolved_Atoms>  (881) 
nan

$$$$
CHEMBL4250961
     RDKit          3D

  0  0  0  0  0  0  0  0  0  0999 V3000
M  V30 BEGIN CTAB
M  V30 COUNTS 67 71 0 0 0
M  V30 BEGIN ATOM
M  V30 1 C 2.818929 -1.178161 6.351753 0
M  V30 2 C 3.139812 -2.346463 5.467196 0
M  V30 3 O 2.244287 -2.537603 4.401199 0
M  V30 4 C 1.962219 -1.663062 3.391429 0
M  V30 5 C 2.610608 -0.446315 3.383188 0
M  V30 6 C 2.370655 0.479156 2.392978 0
M  V30 7 C 3.052325 1.767376 2.377976 0
M  V30 8 N 4.378812 1.906590 2.615232 0
M  V30 9 N 4.748221 3.172773 2.543150 0
M  V30 10 C 3.659588 3.874956 2.256547 0
M  V30 11 N 2.623150 3.024273 2.154675 0
M  V30 12 C 1.396570 3.738815 1.840448 0
M  V30 13 C 1.890040 5.058210 1.306011 0
M  V30 14 C 3.204642 5.255835 2.014407 0
M  V30 15 C 1.458404 0.161590 1.397758 0
M  V30 16 C 0.839189 -1.057083 1.446420 0
M  V30 17 C 1.032673 -2.026618 2.406133 0
M  V30 18 N 0.402615 -3.266283 2.455494 0
M  V30 19 C -0.551152 -3.812339 1.568110 0
M  V30 20 N -1.049543 -5.042244 1.786884 0
M  V30 21 C -1.955344 -5.657589 1.013695 0
M  V30 22 C -2.421246 -4.988594 -0.096241 0
M  V30 23 C -3.352238 -5.581185 -0.919956 0
M  V30 24 C -3.805751 -4.896380 -2.024922 0
M  V30 25 C -4.806391 -5.561733 -2.889533 0
M  V30 26 N -3.324314 -3.665144 -2.267468 0
M  V30 27 C -2.430085 -3.085311 -1.483947 0
M  V30 28 N -1.965047 -1.779495 -1.802031 0
M  V30 29 C -2.442047 -1.081007 -2.948643 0
M  V30 30 C -1.866777 0.291239 -3.163761 0
M  V30 31 C -2.135867 1.231246 -2.029274 0
M  V30 32 C -2.519426 0.856592 -4.414066 0
M  V30 33 C -0.380503 0.256380 -3.426469 0
M  V30 34 C -1.943682 -3.726371 -0.366375 0
M  V30 35 N -1.049125 -3.224566 0.473731 0
M  V30 36 H 3.682969 -0.491927 6.462886 0
M  V30 37 H 2.583335 -1.564150 7.383801 0
M  V30 38 H 1.921315 -0.624194 6.009513 0
M  V30 39 H 3.344172 -3.286330 6.018253 0
M  V30 40 H 4.128067 -2.112859 4.969835 0
M  V30 41 H 3.316897 -0.154450 4.119121 0
M  V30 42 H 0.785670 3.949310 2.742931 0
M  V30 43 H 0.818035 3.270652 1.026926 0
M  V30 44 H 1.233751 5.915580 1.624510 0
M  V30 45 H 1.972250 5.089276 0.206711 0
M  V30 46 H 3.882954 5.832847 1.355736 0
M  V30 47 H 3.084009 5.839788 2.964916 0
M  V30 48 H 1.275025 0.893579 0.623173 0
M  V30 49 H 0.158838 -1.230894 0.658644 0
M  V30 50 H 0.673513 -3.894150 3.273700 0
M  V30 51 H -2.329758 -6.638736 1.219366 0
M  V30 52 H -3.694070 -6.576421 -0.660328 0
M  V30 53 H -5.403892 -6.278652 -2.288234 0
M  V30 54 H -4.321128 -6.193845 -3.676231 0
M  V30 55 H -5.541276 -4.873590 -3.345811 0
M  V30 56 H -1.264782 -1.239100 -1.250336 0
M  V30 57 H -3.548008 -1.069137 -2.948802 0
M  V30 58 H -2.157456 -1.669401 -3.859155 0
M  V30 59 H -1.366025 2.037276 -2.073928 0
M  V30 60 H -3.105255 1.755288 -2.097024 0
M  V30 61 H -1.991547 0.720617 -1.055741 0
M  V30 62 H -1.894818 0.547869 -5.291357 0
M  V30 63 H -3.540825 0.442332 -4.472901 0
M  V30 64 H -2.544941 1.961766 -4.300383 0
M  V30 65 H 0.192078 0.251732 -2.469649 0
M  V30 66 H -0.133855 -0.690926 -3.953417 0
M  V30 67 H -0.038681 1.129151 -4.023677 0
M  V30 END ATOM
M  V30 BEGIN BOND
M  V30 1 1 1 2
M  V30 2 1 2 3
M  V30 3 1 3 4
M  V30 4 2 4 5
M  V30 5 1 5 6
M  V30 6 1 6 7
M  V30 7 2 7 8
M  V30 8 1 8 9
M  V30 9 2 9 10
M  V30 10 1 10 11
M  V30 11 1 11 12
M  V30 12 1 12 13
M  V30 13 1 13 14
M  V30 14 2 6 15
M  V30 15 1 15 16
M  V30 16 2 16 17
M  V30 17 1 17 18
M  V30 18 1 18 19
M  V30 19 2 19 20
M  V30 20 1 20 21
M  V30 21 2 21 22
M  V30 22 1 22 23
M  V30 23 2 23 24
M  V30 24 1 24 25
M  V30 25 1 24 26
M  V30 26 2 26 27
M  V30 27 1 27 28
M  V30 28 1 28 29
M  V30 29 1 29 30
M  V30 30 1 30 31
M  V30 31 1 30 32
M  V30 32 1 30 33
M  V30 33 1 27 34
M  V30 34 2 34 35
M  V30 35 1 17 4
M  V30 36 1 35 19
M  V30 37 1 11 7
M  V30 38 1 34 22
M  V30 39 1 14 10
M  V30 40 1 1 36
M  V30 41 1 1 37
M  V30 42 1 1 38
M  V30 43 1 2 39
M  V30 44 1 2 40
M  V30 45 1 5 41
M  V30 46 1 12 42
M  V30 47 1 12 43
M  V30 48 1 13 44
M  V30 49 1 13 45
M  V30 50 1 14 46
M  V30 51 1 14 47
M  V30 52 1 15 48
M  V30 53 1 16 49
M  V30 54 1 18 50
M  V30 55 1 21 51
M  V30 56 1 23 52
M  V30 57 1 25 53
M  V30 58 1 25 54
M  V30 59 1 25 55
M  V30 60 1 28 56
M  V30 61 1 29 57
M  V30 62 1 29 58
M  V30 63 1 31 59
M  V30 64 1 31 60
M  V30 65 1 31 61
M  V30 66 1 32 62
M  V30 67 1 32 63
M  V30 68 1 32 64
M  V30 69 1 33 65
M  V30 70 1 33 66
M  V30 71 1 33 67
M  V30 END BOND
M  V30 END CTAB
M  END
>  <Dataset>  (882) 
ChEMBL_Kinases

>  <Ligand_Instance>  (882) 
nan

>  <PDB_ID>  (882) 
nan

>  <Standardized_SMILES>  (882) 
CCOc1cc(-c2nnc3n2CCC3)ccc1Nc1ncc2cc(C)nc(NCC(C)(C)C)c2n1

>  <Name>  (882) 
nan

>  <Pocket>  (882) 
nan

>  <ATP_Site>  (882) 
nan

>  <Peripheral>  (882) 
nan

>  <Num_H_Atoms_ProtBoundConf>  (882) 
nan

>  <Num_Resolved_Atoms>  (882) 
nan

>  <Num_Not_Resolved_Atoms>  (882) 
nan

$$$$
CHEMBL425065
     RDKit          3D

  0  0  0  0  0  0  0  0  0  0999 V3000
M  V30 BEGIN CTAB
M  V30 COUNTS 22 23 0 0 0
M  V30 BEGIN ATOM
M  V30 1 N -0.968559 -1.179714 3.664302 0
M  V30 2 C 0.024418 -1.334406 3.037350 0
M  V30 3 C 1.238881 -1.513189 2.253888 0
M  V30 4 C 2.390217 -1.709154 2.941241 0
M  V30 5 O 2.777731 -1.802056 4.270771 0
M  V30 6 N 3.586871 -1.881297 2.298269 0
M  V30 7 S 3.049707 -1.755277 0.499554 0
M  V30 8 C 1.386679 -1.504087 0.901394 0
M  V30 9 N 0.159718 -1.302253 0.072704 0
M  V30 10 C -0.189826 0.066232 -0.115188 0
M  V30 11 C -1.401579 0.371604 -0.732800 0
M  V30 12 C -1.761244 1.690355 -0.921795 0
M  V30 13 C -0.948139 2.726511 -0.513722 0
M  V30 14 Cl -1.401707 4.421341 -0.750017 0
M  V30 15 C 0.243366 2.449035 0.093062 0
M  V30 16 C 0.594928 1.128384 0.277812 0
M  V30 17 H 2.798656 -0.947869 4.847351 0
M  V30 18 H -0.410341 -2.045708 -0.344699 0
M  V30 19 H -2.023393 -0.457549 -1.045184 0
M  V30 20 H -2.714221 1.917826 -1.405974 0
M  V30 21 H 0.904422 3.236585 0.427051 0
M  V30 22 H 1.549941 0.917106 0.760890 0
M  V30 END ATOM
M  V30 BEGIN BOND
M  V30 1 3 1 2
M  V30 2 1 2 3
M  V30 3 1 3 4
M  V30 4 1 4 5
M  V30 5 2 4 6
M  V30 6 1 6 7
M  V30 7 1 7 8
M  V30 8 1 8 9
M  V30 9 1 9 10
M  V30 10 2 10 11
M  V30 11 1 11 12
M  V30 12 2 12 13
M  V30 13 1 13 14
M  V30 14 1 13 15
M  V30 15 2 15 16
M  V30 16 2 8 3
M  V30 17 1 16 10
M  V30 18 1 5 17
M  V30 19 1 9 18
M  V30 20 1 11 19
M  V30 21 1 12 20
M  V30 22 1 15 21
M  V30 23 1 16 22
M  V30 END BOND
M  V30 END CTAB
M  END
>  <Dataset>  (883) 
ChEMBL_Kinases

>  <Ligand_Instance>  (883) 
nan

>  <PDB_ID>  (883) 
nan

>  <Standardized_SMILES>  (883) 
N#Cc1c(O)nsc1Nc1ccc(Cl)cc1

>  <Name>  (883) 
nan

>  <Pocket>  (883) 
nan

>  <ATP_Site>  (883) 
nan

>  <Peripheral>  (883) 
nan

>  <Num_H_Atoms_ProtBoundConf>  (883) 
nan

>  <Num_Resolved_Atoms>  (883) 
nan

>  <Num_Not_Resolved_Atoms>  (883) 
nan

$$$$
CHEMBL42501
     RDKit          3D

  0  0  0  0  0  0  0  0  0  0999 V3000
M  V30 BEGIN CTAB
M  V30 COUNTS 36 38 0 0 0
M  V30 BEGIN ATOM
M  V30 1 F 4.342342 -2.733969 3.661020 0
M  V30 2 C 3.138651 -2.362145 3.180360 0
M  V30 3 C 2.480088 -3.133787 2.245503 0
M  V30 4 C 1.263893 -2.733893 1.776517 0
M  V30 5 C 0.611999 -1.564341 2.183319 0
M  V30 6 C -0.704507 -1.194179 1.632533 0
M  V30 7 N -0.630434 -0.374859 0.437724 0
M  V30 8 C 0.035399 -0.905779 -0.703142 0
M  V30 9 N 1.316942 -1.050359 -0.466605 0
M  V30 10 C 1.991098 -1.592939 -1.635676 0
M  V30 11 C 0.874499 -2.135219 -2.523977 0
M  V30 12 N -0.238708 -1.339156 -2.041143 0
M  V30 13 C -1.164772 0.934186 0.280042 0
M  V30 14 C -0.538632 2.135853 0.537617 0
M  V30 15 Cl 1.100588 2.027032 1.125082 0
M  V30 16 C -1.195380 3.330705 0.332945 0
M  V30 17 C -2.474706 3.361418 -0.127017 0
M  V30 18 C -3.127631 2.174119 -0.393852 0
M  V30 19 C -2.462064 0.960607 -0.186502 0
M  V30 20 Cl -3.483342 -0.424039 -0.591188 0
M  V30 21 C 1.321909 -0.844020 3.114244 0
M  V30 22 C 2.546068 -1.196670 3.620656 0
M  V30 23 H 2.970782 -4.039560 1.921789 0
M  V30 24 H 0.774206 -3.371972 1.037081 0
M  V30 25 H -1.359138 -0.761061 2.400338 0
M  V30 26 H -1.175887 -2.160739 1.304613 0
M  V30 27 H 2.628061 -0.860106 -2.157177 0
M  V30 28 H 2.592890 -2.473862 -1.273609 0
M  V30 29 H 0.690420 -3.201381 -2.274672 0
M  V30 30 H 1.071700 -1.957642 -3.599463 0
M  V30 31 H -1.157035 -1.006638 -2.393256 0
M  V30 32 H -0.593788 4.211417 0.573113 0
M  V30 33 H -2.962114 4.322630 -0.276930 0
M  V30 34 H -4.140882 2.286995 -0.755785 0
M  V30 35 H 0.863161 0.080535 3.470471 0
M  V30 36 H 3.007990 -0.534055 4.360012 0
M  V30 END ATOM
M  V30 BEGIN BOND
M  V30 1 1 1 2
M  V30 2 2 2 3
M  V30 3 1 3 4
M  V30 4 2 4 5
M  V30 5 1 5 6
M  V30 6 1 6 7
M  V30 7 1 7 8
M  V30 8 2 8 9
M  V30 9 1 9 10
M  V30 10 1 10 11
M  V30 11 1 11 12
M  V30 12 1 7 13
M  V30 13 2 13 14
M  V30 14 1 14 15
M  V30 15 1 14 16
M  V30 16 2 16 17
M  V30 17 1 17 18
M  V30 18 2 18 19
M  V30 19 1 19 20
M  V30 20 1 5 21
M  V30 21 2 21 22
M  V30 22 1 22 2
M  V30 23 1 12 8
M  V30 24 1 19 13
M  V30 25 1 3 23
M  V30 26 1 4 24
M  V30 27 1 6 25
M  V30 28 1 6 26
M  V30 29 1 10 27
M  V30 30 1 10 28
M  V30 31 1 11 29
M  V30 32 1 11 30
M  V30 33 1 12 31
M  V30 34 1 16 32
M  V30 35 1 17 33
M  V30 36 1 18 34
M  V30 37 1 21 35
M  V30 38 1 22 36
M  V30 END BOND
M  V30 END CTAB
M  END
>  <Dataset>  (884) 
ChEMBL_Kinases

>  <Ligand_Instance>  (884) 
nan

>  <PDB_ID>  (884) 
nan

>  <Standardized_SMILES>  (884) 
Fc1ccc(CN(C2=NCCN2)c2c(Cl)cccc2Cl)cc1

>  <Name>  (884) 
nan

>  <Pocket>  (884) 
nan

>  <ATP_Site>  (884) 
nan

>  <Peripheral>  (884) 
nan

>  <Num_H_Atoms_ProtBoundConf>  (884) 
nan

>  <Num_Resolved_Atoms>  (884) 
nan

>  <Num_Not_Resolved_Atoms>  (884) 
nan

$$$$
CHEMBL424995
     RDKit          3D

  0  0  0  0  0  0  0  0  0  0999 V3000
M  V30 BEGIN CTAB
M  V30 COUNTS 33 34 0 0 0
M  V30 BEGIN ATOM
M  V30 1 O -0.343912 -0.402727 0.507691 0
M  V30 2 C -1.085351 -1.390706 0.739379 0
M  V30 3 N -0.544573 -2.599756 1.233941 0
M  V30 4 C 0.808706 -2.894482 1.532421 0
M  V30 5 S 1.097109 -4.382399 2.086236 0
M  V30 6 N 1.915285 -2.020250 1.392421 0
M  V30 7 C 2.382491 -0.751726 1.023254 0
M  V30 8 C 2.783559 -0.496938 -0.289582 0
M  V30 9 C 3.253128 0.753799 -0.712493 0
M  V30 10 N 3.660774 1.028997 -2.027701 0 CHG=1 VAL=4
M  V30 11 O 3.588675 0.079572 -2.848821 0
M  V30 12 O 4.095969 2.280402 -2.311922 0 CHG=-1 VAL=1
M  V30 13 C 3.272893 1.684090 0.296627 0
M  V30 14 C 2.911381 1.569285 1.615151 0
M  V30 15 C 2.462453 0.304393 1.938908 0
M  V30 16 O 2.058676 0.042942 3.256365 0
M  V30 17 C -2.486919 -1.125883 0.444042 0
M  V30 18 C -2.911559 -0.791425 -0.829906 0
M  V30 19 C -4.215929 -0.523755 -1.201453 0
M  V30 20 C -5.164441 -0.603130 -0.194095 0
M  V30 21 Cl -6.832734 -0.263551 -0.655792 0
M  V30 22 C -4.822853 -0.930931 1.104593 0
M  V30 23 C -3.487662 -1.190043 1.415518 0
M  V30 24 Cl -3.049672 -1.607570 3.067027 0
M  V30 25 H -1.317058 -3.287928 1.358220 0
M  V30 26 H 2.873734 -2.348077 1.645441 0
M  V30 27 H 2.729898 -1.303946 -1.018541 0
M  V30 28 H 3.639520 2.671225 -0.024252 0
M  V30 29 H 2.977533 2.380407 2.298541 0
M  V30 30 H 1.827568 -0.868432 3.574451 0
M  V30 31 H -2.123486 -0.741071 -1.594334 0
M  V30 32 H -4.419688 -0.272225 -2.237699 0
M  V30 33 H -5.592535 -0.980232 1.851471 0
M  V30 END ATOM
M  V30 BEGIN BOND
M  V30 1 2 1 2
M  V30 2 1 2 3
M  V30 3 1 3 4
M  V30 4 2 4 5
M  V30 5 1 4 6
M  V30 6 1 6 7
M  V30 7 2 7 8
M  V30 8 1 8 9
M  V30 9 1 9 10
M  V30 10 2 10 11
M  V30 11 1 10 12
M  V30 12 2 9 13
M  V30 13 1 13 14
M  V30 14 2 14 15
M  V30 15 1 15 16
M  V30 16 1 2 17
M  V30 17 2 17 18
M  V30 18 1 18 19
M  V30 19 2 19 20
M  V30 20 1 20 21
M  V30 21 1 20 22
M  V30 22 2 22 23
M  V30 23 1 23 24
M  V30 24 1 15 7
M  V30 25 1 23 17
M  V30 26 1 3 25
M  V30 27 1 6 26
M  V30 28 1 8 27
M  V30 29 1 13 28
M  V30 30 1 14 29
M  V30 31 1 16 30
M  V30 32 1 18 31
M  V30 33 1 19 32
M  V30 34 1 22 33
M  V30 END BOND
M  V30 END CTAB
M  END
>  <Dataset>  (885) 
ChEMBL_Kinases

>  <Ligand_Instance>  (885) 
nan

>  <PDB_ID>  (885) 
nan

>  <Standardized_SMILES>  (885) 
O=C(NC(=S)Nc1cc([N+](=O)[O-])ccc1O)c1ccc(Cl)cc1Cl

>  <Name>  (885) 
nan

>  <Pocket>  (885) 
nan

>  <ATP_Site>  (885) 
nan

>  <Peripheral>  (885) 
nan

>  <Num_H_Atoms_ProtBoundConf>  (885) 
nan

>  <Num_Resolved_Atoms>  (885) 
nan

>  <Num_Not_Resolved_Atoms>  (885) 
nan

$$$$
CHEMBL4249882
     RDKit          3D

  0  0  0  0  0  0  0  0  0  0999 V3000
M  V30 BEGIN CTAB
M  V30 COUNTS 66 69 0 0 0
M  V30 BEGIN ATOM
M  V30 1 C 3.126615 -0.225350 6.444643 0
M  V30 2 C 1.700773 0.267221 6.493832 0
M  V30 3 O 0.972019 -0.209647 5.402534 0
M  V30 4 C 1.284233 0.071187 4.088174 0
M  V30 5 C 2.352664 0.862647 3.730911 0
M  V30 6 C 2.681355 1.155983 2.420646 0
M  V30 7 C 3.815188 1.993182 2.100702 0
M  V30 8 N 5.084177 1.648223 2.467672 0
M  V30 9 N 5.944734 2.561070 2.067946 0
M  V30 10 C 5.199870 3.504372 1.433553 0
M  V30 11 N 3.895805 3.159123 1.452199 0
M  V30 12 C 2.748250 3.832204 0.916118 0
M  V30 13 C 1.875064 0.611406 1.428136 0
M  V30 14 C 0.808816 -0.179232 1.809923 0
M  V30 15 C 0.460265 -0.487142 3.120720 0
M  V30 16 N -0.637942 -1.298145 3.435841 0
M  V30 17 C -1.578943 -1.946582 2.601639 0
M  V30 18 N -2.555159 -2.678799 3.155376 0
M  V30 19 C -3.497365 -3.334347 2.474658 0
M  V30 20 C -3.465878 -3.254059 1.110896 0
M  V30 21 C -4.430377 -3.923963 0.389570 0
M  V30 22 C -4.419330 -3.858324 -0.976621 0
M  V30 23 C -5.455887 -4.577483 -1.769498 0
M  V30 24 N -3.463783 -3.139912 -1.558965 0
M  V30 25 C -2.509219 -2.475137 -0.886882 0
M  V30 26 N -1.516852 -1.725762 -1.574725 0
M  V30 27 C -1.543956 -1.684534 -3.017637 0 CFG=1
M  V30 28 C -2.852463 -1.090027 -3.510679 0
M  V30 29 C -0.386657 -0.883029 -3.532995 0
M  V30 30 C 0.912531 -1.498376 -3.093103 0
M  V30 31 C -0.488829 0.536512 -3.023005 0
M  V30 32 C -0.416306 -0.829340 -5.039706 0
M  V30 33 C -2.487599 -2.517478 0.488882 0
M  V30 34 N -1.589882 -1.898126 1.261670 0
M  V30 35 H 3.854557 0.618921 6.588153 0
M  V30 36 H 3.375206 -0.790133 5.537359 0
M  V30 37 H 3.294705 -0.950342 7.298699 0
M  V30 38 H 1.220686 -0.082388 7.443509 0
M  V30 39 H 1.669837 1.394767 6.521624 0
M  V30 40 H 2.996458 1.305896 4.475789 0
M  V30 41 H 5.567052 4.424971 0.962636 0
M  V30 42 H 3.101245 4.871629 0.663033 0
M  V30 43 H 1.929453 3.976983 1.624349 0
M  V30 44 H 2.432877 3.445340 -0.088179 0
M  V30 45 H 2.133613 0.841182 0.419609 0
M  V30 46 H 0.264512 -0.539822 0.973419 0
M  V30 47 H -0.776891 -1.443059 4.480524 0
M  V30 48 H -4.243184 -3.898019 2.998917 0
M  V30 49 H -5.170847 -4.483739 0.911932 0
M  V30 50 H -5.954555 -5.351721 -1.162572 0
M  V30 51 H -4.924002 -5.038281 -2.634185 0
M  V30 52 H -6.170727 -3.848228 -2.225385 0
M  V30 53 H -0.780109 -1.212724 -1.060319 0
M  V30 54 H -1.488593 -2.725425 -3.426191 0
M  V30 55 H -3.310854 -0.528119 -2.650964 0
M  V30 56 H -3.554385 -1.892530 -3.816867 0
M  V30 57 H -2.635117 -0.375282 -4.309492 0
M  V30 58 H 0.892399 -1.826532 -2.053790 0
M  V30 59 H 1.765062 -0.791284 -3.192133 0
M  V30 60 H 1.187644 -2.390318 -3.696503 0
M  V30 61 H -1.188165 0.644611 -2.179283 0
M  V30 62 H 0.513687 0.878607 -2.675145 0
M  V30 63 H -0.834745 1.221841 -3.821944 0
M  V30 64 H -0.987982 0.034702 -5.441488 0
M  V30 65 H -0.831804 -1.762592 -5.468500 0
M  V30 66 H 0.643816 -0.791548 -5.391804 0
M  V30 END ATOM
M  V30 BEGIN BOND
M  V30 1 1 1 2
M  V30 2 1 2 3
M  V30 3 1 3 4
M  V30 4 2 4 5
M  V30 5 1 5 6
M  V30 6 1 6 7
M  V30 7 2 7 8
M  V30 8 1 8 9
M  V30 9 2 9 10
M  V30 10 1 10 11
M  V30 11 1 11 12
M  V30 12 2 6 13
M  V30 13 1 13 14
M  V30 14 2 14 15
M  V30 15 1 15 16
M  V30 16 1 16 17
M  V30 17 2 17 18
M  V30 18 1 18 19
M  V30 19 2 19 20
M  V30 20 1 20 21
M  V30 21 2 21 22
M  V30 22 1 22 23
M  V30 23 1 22 24
M  V30 24 2 24 25
M  V30 25 1 25 26
M  V30 26 1 26 27
M  V30 27 1 27 28
M  V30 28 1 27 29
M  V30 29 1 29 30
M  V30 30 1 29 31
M  V30 31 1 29 32
M  V30 32 1 25 33
M  V30 33 2 33 34
M  V30 34 1 15 4
M  V30 35 1 34 17
M  V30 36 1 11 7
M  V30 37 1 33 20
M  V30 38 1 1 35
M  V30 39 1 1 36
M  V30 40 1 1 37
M  V30 41 1 2 38
M  V30 42 1 2 39
M  V30 43 1 5 40
M  V30 44 1 10 41
M  V30 45 1 12 42
M  V30 46 1 12 43
M  V30 47 1 12 44
M  V30 48 1 13 45
M  V30 49 1 14 46
M  V30 50 1 16 47
M  V30 51 1 19 48
M  V30 52 1 21 49
M  V30 53 1 23 50
M  V30 54 1 23 51
M  V30 55 1 23 52
M  V30 56 1 26 53
M  V30 57 1 27 54 CFG=3
M  V30 58 1 28 55
M  V30 59 1 28 56
M  V30 60 1 28 57
M  V30 61 1 30 58
M  V30 62 1 30 59
M  V30 63 1 30 60
M  V30 64 1 31 61
M  V30 65 1 31 62
M  V30 66 1 31 63
M  V30 67 1 32 64
M  V30 68 1 32 65
M  V30 69 1 32 66
M  V30 END BOND
M  V30 END CTAB
M  END
>  <Dataset>  (886) 
ChEMBL_Kinases

>  <Ligand_Instance>  (886) 
nan

>  <PDB_ID>  (886) 
nan

>  <Standardized_SMILES>  (886) 
CCOc1cc(-c2nncn2C)ccc1Nc1ncc2cc(C)nc(N[C@@H](C)C(C)(C)C)c2n1

>  <Name>  (886) 
nan

>  <Pocket>  (886) 
nan

>  <ATP_Site>  (886) 
nan

>  <Peripheral>  (886) 
nan

>  <Num_H_Atoms_ProtBoundConf>  (886) 
nan

>  <Num_Resolved_Atoms>  (886) 
nan

>  <Num_Not_Resolved_Atoms>  (886) 
nan

$$$$
CHEMBL4249679
     RDKit          3D

  0  0  0  0  0  0  0  0  0  0999 V3000
M  V30 BEGIN CTAB
M  V30 COUNTS 34 36 0 0 0
M  V30 BEGIN ATOM
M  V30 1 N -1.147453 -5.210668 3.969720 0
M  V30 2 C -1.450652 -4.068149 3.174067 0
M  V30 3 O -2.594169 -3.701132 3.503927 0
M  V30 4 C -0.485579 -3.560136 2.204743 0
M  V30 5 C 0.729380 -4.199713 2.065124 0
M  V30 6 C 1.604035 -3.674177 1.131621 0
M  V30 7 C 1.246435 -2.564677 0.394404 0
M  V30 8 C 0.056035 -1.926210 0.521215 0
M  V30 9 C -0.256941 -0.818898 -0.239088 0
M  V30 10 N 0.632654 -0.275849 -1.199385 0
M  V30 11 C 0.359421 0.884977 -2.025180 0
M  V30 12 C 0.140973 2.128493 -1.262133 0
M  V30 13 C -1.004956 2.732903 -0.788696 0
M  V30 14 C -0.955446 3.897500 -0.085811 0
M  V30 15 C 0.227000 4.547886 0.199266 0
M  V30 16 C 1.375972 3.975619 -0.255318 0
M  V30 17 F 2.531311 4.624076 0.030926 0
M  V30 18 C 1.338507 2.795579 -0.968525 0
M  V30 19 N -1.476430 -0.327682 0.028459 0
M  V30 20 N -2.316806 -0.824058 0.918146 0
M  V30 21 N -2.019993 -1.886044 1.649197 0
M  V30 22 C -0.814656 -2.451716 1.452474 0
M  V30 23 H -1.743889 -6.016138 4.259911 0
M  V30 24 H -0.238483 -5.476720 4.435156 0
M  V30 25 H 0.917018 -5.062945 2.689412 0
M  V30 26 H 2.551046 -4.190556 1.037881 0
M  V30 27 H 1.993654 -2.250018 -0.289587 0
M  V30 28 H 1.557547 -0.680269 -1.378656 0
M  V30 29 H 1.120046 1.047366 -2.799164 0
M  V30 30 H -0.585228 0.612173 -2.591905 0
M  V30 31 H -1.894682 2.178088 -1.050692 0
M  V30 32 H -1.925695 4.278328 0.235824 0
M  V30 33 H 0.200240 5.472331 0.763363 0
M  V30 34 H 2.328180 2.446952 -1.272454 0
M  V30 END ATOM
M  V30 BEGIN BOND
M  V30 1 1 1 2
M  V30 2 2 2 3
M  V30 3 1 2 4
M  V30 4 2 4 5
M  V30 5 1 5 6
M  V30 6 2 6 7
M  V30 7 1 7 8
M  V30 8 2 8 9
M  V30 9 1 9 10
M  V30 10 1 10 11
M  V30 11 1 11 12
M  V30 12 2 12 13
M  V30 13 1 13 14
M  V30 14 2 14 15
M  V30 15 1 15 16
M  V30 16 1 16 17
M  V30 17 2 16 18
M  V30 18 1 9 19
M  V30 19 2 19 20
M  V30 20 1 20 21
M  V30 21 2 21 22
M  V30 22 1 22 4
M  V30 23 1 22 8
M  V30 24 1 18 12
M  V30 25 1 1 23
M  V30 26 1 1 24
M  V30 27 1 5 25
M  V30 28 1 6 26
M  V30 29 1 7 27
M  V30 30 1 10 28
M  V30 31 1 11 29
M  V30 32 1 11 30
M  V30 33 1 13 31
M  V30 34 1 14 32
M  V30 35 1 15 33
M  V30 36 1 18 34
M  V30 END BOND
M  V30 END CTAB
M  END
>  <Dataset>  (887) 
ChEMBL_Kinases

>  <Ligand_Instance>  (887) 
nan

>  <PDB_ID>  (887) 
nan

>  <Standardized_SMILES>  (887) 
NC(=O)c1cccc2c(NCc3cccc(F)c3)nnnc12

>  <Name>  (887) 
nan

>  <Pocket>  (887) 
nan

>  <ATP_Site>  (887) 
nan

>  <Peripheral>  (887) 
nan

>  <Num_H_Atoms_ProtBoundConf>  (887) 
nan

>  <Num_Resolved_Atoms>  (887) 
nan

>  <Num_Not_Resolved_Atoms>  (887) 
nan

$$$$
CHEMBL4249658
     RDKit          3D

  0  0  0  0  0  0  0  0  0  0999 V3000
M  V30 BEGIN CTAB
M  V30 COUNTS 47 49 0 0 0
M  V30 BEGIN ATOM
M  V30 1 C 5.623389 -2.620491 0.535209 0
M  V30 2 O 4.938229 -1.675612 1.160116 0
M  V30 3 C 4.330395 -0.755600 1.784406 0
M  V30 4 C 5.042305 0.037427 2.653413 0
M  V30 5 C 4.485647 1.086023 3.398005 0
M  V30 6 O 5.271890 1.831215 4.245915 0
M  V30 7 C 3.156213 1.289724 3.211942 0
M  V30 8 C 2.483070 2.359507 3.938326 0
M  V30 9 N 3.164780 3.220276 4.838997 0
M  V30 10 O 1.277839 2.711265 3.923268 0
M  V30 11 C 2.408478 0.517648 2.351716 0
M  V30 12 O 1.108748 0.593823 2.064301 0
M  V30 13 C 0.796463 -0.326470 1.194494 0
M  V30 14 C -0.583158 -0.361178 0.787198 0
M  V30 15 O -1.384200 0.406721 1.417228 0
M  V30 16 N -1.235300 -1.102393 -0.207188 0
M  V30 17 C -2.576814 -1.153771 -0.618744 0
M  V30 18 C -2.948247 -2.015731 -1.665223 0
M  V30 19 C -4.244614 -2.095605 -2.103928 0
M  V30 20 C -5.251209 -1.346787 -1.554239 0
M  V30 21 C -6.624713 -1.486327 -2.077815 0
M  V30 22 C -4.938586 -0.480218 -0.518361 0
M  V30 23 C -6.001406 0.357463 0.108213 0
M  V30 24 F -6.572052 1.184350 -0.809872 0
M  V30 25 F -6.979844 -0.460313 0.688759 0
M  V30 26 F -5.459804 1.075746 1.146565 0
M  V30 27 C -3.615884 -0.441275 -0.117467 0
M  V30 28 C 1.935675 -1.027642 0.907415 0
M  V30 29 C 1.991524 -2.166085 -0.002735 0
M  V30 30 C 2.987801 -0.526817 1.617774 0
M  V30 31 H 6.700064 -2.346509 0.325632 0
M  V30 32 H 5.222532 -2.923695 -0.471443 0
M  V30 33 H 5.729928 -3.609645 1.095932 0
M  V30 34 H 6.117798 -0.117518 2.811443 0
M  V30 35 H 6.080186 2.376347 3.916256 0
M  V30 36 H 4.020817 3.462452 5.350719 0
M  V30 37 H 4.032513 3.463092 5.355778 0
M  V30 38 H -0.589569 -1.724081 -0.740583 0
M  V30 39 H -2.216444 -2.642203 -2.155188 0
M  V30 40 H -4.478428 -2.785222 -2.924363 0
M  V30 41 H -6.998605 -2.529164 -2.037363 0
M  V30 42 H -7.341064 -0.836721 -1.556647 0
M  V30 43 H -6.584895 -1.170268 -3.140589 0
M  V30 44 H -3.471853 0.256594 0.685664 0
M  V30 45 H 2.897440 -2.782179 0.045049 0
M  V30 46 H 1.757608 -1.813611 -1.024798 0
M  V30 47 H 1.125444 -2.850817 0.288407 0
M  V30 END ATOM
M  V30 BEGIN BOND
M  V30 1 1 1 2
M  V30 2 1 2 3
M  V30 3 2 3 4
M  V30 4 1 4 5
M  V30 5 1 5 6
M  V30 6 2 5 7
M  V30 7 1 7 8
M  V30 8 1 8 9
M  V30 9 2 8 10
M  V30 10 1 7 11
M  V30 11 1 11 12
M  V30 12 1 12 13
M  V30 13 1 13 14
M  V30 14 2 14 15
M  V30 15 1 14 16
M  V30 16 1 16 17
M  V30 17 2 17 18
M  V30 18 1 18 19
M  V30 19 2 19 20
M  V30 20 1 20 21
M  V30 21 1 20 22
M  V30 22 1 22 23
M  V30 23 1 23 24
M  V30 24 1 23 25
M  V30 25 1 23 26
M  V30 26 2 22 27
M  V30 27 2 13 28
M  V30 28 1 28 29
M  V30 29 1 28 30
M  V30 30 1 30 3
M  V30 31 2 30 11
M  V30 32 1 27 17
M  V30 33 1 1 31
M  V30 34 1 1 32
M  V30 35 1 1 33
M  V30 36 1 4 34
M  V30 37 1 6 35
M  V30 38 1 9 36
M  V30 39 1 9 37
M  V30 40 1 16 38
M  V30 41 1 18 39
M  V30 42 1 19 40
M  V30 43 1 21 41
M  V30 44 1 21 42
M  V30 45 1 21 43
M  V30 46 1 27 44
M  V30 47 1 29 45
M  V30 48 1 29 46
M  V30 49 1 29 47
M  V30 END BOND
M  V30 END CTAB
M  END
>  <Dataset>  (888) 
ChEMBL_Kinases

>  <Ligand_Instance>  (888) 
nan

>  <PDB_ID>  (888) 
nan

>  <Standardized_SMILES>  (888) 
COc1cc(O)c(C(N)=O)c2oc(C(=O)Nc3ccc(C)c(C(F)(F)F)c3)c(C)c12

>  <Name>  (888) 
nan

>  <Pocket>  (888) 
nan

>  <ATP_Site>  (888) 
nan

>  <Peripheral>  (888) 
nan

>  <Num_H_Atoms_ProtBoundConf>  (888) 
nan

>  <Num_Resolved_Atoms>  (888) 
nan

>  <Num_Not_Resolved_Atoms>  (888) 
nan

$$$$
CHEMBL425923
     RDKit          3D

  0  0  0  0  0  0  0  0  0  0999 V3000
M  V30 BEGIN CTAB
M  V30 COUNTS 65 69 0 0 0
M  V30 BEGIN ATOM
M  V30 1 O 0.744316 3.505105 4.060955 0
M  V30 2 C 1.457173 3.040280 2.944318 0
M  V30 3 C 2.925865 2.998048 3.305469 0
M  V30 4 O 3.078698 2.110076 4.401044 0
M  V30 5 C 4.305499 1.843545 4.983936 0
M  V30 6 C 4.532614 0.996082 6.046874 0
M  V30 7 C 5.751589 0.748649 6.605658 0
M  V30 8 C 6.842094 1.394537 6.067881 0
M  V30 9 C 6.675033 2.249720 5.008652 0
M  V30 10 C 5.419797 2.492187 4.448098 0
M  V30 11 C 0.957980 1.660020 2.535042 0
M  V30 12 N -0.414526 1.653345 2.186253 0
M  V30 13 C -0.808505 2.320748 1.008509 0
M  V30 14 C -1.148769 1.434190 -0.163761 0
M  V30 15 C -1.244894 0.024614 0.307426 0
M  V30 16 C -1.752496 -0.924192 -0.735364 0
M  V30 17 C -2.945731 -0.868063 -1.456599 0
M  V30 18 C -2.994567 -1.952754 -2.305718 0
M  V30 19 C -4.036421 -2.331866 -3.259887 0
M  V30 20 C -3.635538 -2.358453 -4.582965 0
M  V30 21 C -4.518908 -2.700497 -5.609811 0
M  V30 22 N -5.776906 -2.999427 -5.218332 0
M  V30 23 C -6.183584 -2.980384 -3.951969 0
M  V30 24 C -5.321688 -2.646625 -2.951388 0
M  V30 25 C -1.836074 -2.681417 -2.113990 0
M  V30 26 C -1.380782 -3.916816 -2.751984 0
M  V30 27 C -0.258679 -4.152327 -3.519872 0
M  V30 28 C -0.024663 -5.409651 -4.024741 0
M  V30 29 C -0.929279 -6.441448 -3.754408 0
M  V30 30 F -0.611521 -7.642475 -4.294755 0
M  V30 31 C -2.057509 -6.225936 -2.988551 0
M  V30 32 C -2.278091 -4.959809 -2.489585 0
M  V30 33 N -1.118151 -2.027276 -1.161403 0
M  V30 34 C -2.112454 0.002042 1.544467 0
M  V30 35 C -1.219866 0.589497 2.648343 0
M  V30 36 H 0.642625 2.737117 4.689739 0
M  V30 37 H 1.287762 3.713087 2.097130 0
M  V30 38 H 3.487411 2.574540 2.437830 0
M  V30 39 H 3.303302 3.974390 3.620766 0
M  V30 40 H 3.620179 0.528328 6.409562 0
M  V30 41 H 5.849040 0.064932 7.443828 0
M  V30 42 H 7.842823 1.228178 6.481699 0
M  V30 43 H 7.541034 2.751797 4.594795 0
M  V30 44 H 5.303615 3.178099 3.599899 0
M  V30 45 H 1.620600 1.378327 1.664975 0
M  V30 46 H 1.122866 0.993536 3.397985 0
M  V30 47 H -1.639555 3.039608 1.253059 0
M  V30 48 H 0.043409 2.965412 0.671103 0
M  V30 49 H -0.438304 1.523805 -1.010295 0
M  V30 50 H -2.152467 1.759196 -0.540031 0
M  V30 51 H -0.232584 -0.314624 0.646357 0
M  V30 52 H -3.702047 -0.098127 -1.359880 0
M  V30 53 H -2.603747 -2.110642 -4.880753 0
M  V30 54 H -4.188317 -2.716391 -6.640308 0
M  V30 55 H -7.223533 -3.235566 -3.716150 0
M  V30 56 H -5.613323 -2.618397 -1.899392 0
M  V30 57 H 0.345943 -3.265807 -3.645098 0
M  V30 58 H 0.871432 -5.528974 -4.618947 0
M  V30 59 H -2.662195 -7.099572 -2.860304 0
M  V30 60 H -3.191491 -4.896295 -1.900756 0
M  V30 61 H -0.192550 -2.317706 -0.787676 0
M  V30 62 H -2.476487 -0.999200 1.797596 0
M  V30 63 H -2.925925 0.735041 1.368911 0
M  V30 64 H -1.838158 0.851416 3.552848 0
M  V30 65 H -0.563471 -0.246583 2.968456 0
M  V30 END ATOM
M  V30 BEGIN BOND
M  V30 1 1 1 2
M  V30 2 1 2 3
M  V30 3 1 3 4
M  V30 4 1 4 5
M  V30 5 2 5 6
M  V30 6 1 6 7
M  V30 7 2 7 8
M  V30 8 1 8 9
M  V30 9 2 9 10
M  V30 10 1 2 11
M  V30 11 1 11 12
M  V30 12 1 12 13
M  V30 13 1 13 14
M  V30 14 1 14 15
M  V30 15 1 15 16
M  V30 16 2 16 17
M  V30 17 1 17 18
M  V30 18 1 18 19
M  V30 19 2 19 20
M  V30 20 1 20 21
M  V30 21 2 21 22
M  V30 22 1 22 23
M  V30 23 2 23 24
M  V30 24 2 18 25
M  V30 25 1 25 26
M  V30 26 2 26 27
M  V30 27 1 27 28
M  V30 28 2 28 29
M  V30 29 1 29 30
M  V30 30 1 29 31
M  V30 31 2 31 32
M  V30 32 1 25 33
M  V30 33 1 15 34
M  V30 34 1 34 35
M  V30 35 1 10 5
M  V30 36 1 35 12
M  V30 37 1 33 16
M  V30 38 1 24 19
M  V30 39 1 32 26
M  V30 40 1 1 36
M  V30 41 1 2 37
M  V30 42 1 3 38
M  V30 43 1 3 39
M  V30 44 1 6 40
M  V30 45 1 7 41
M  V30 46 1 8 42
M  V30 47 1 9 43
M  V30 48 1 10 44
M  V30 49 1 11 45
M  V30 50 1 11 46
M  V30 51 1 13 47
M  V30 52 1 13 48
M  V30 53 1 14 49
M  V30 54 1 14 50
M  V30 55 1 15 51
M  V30 56 1 17 52
M  V30 57 1 20 53
M  V30 58 1 21 54
M  V30 59 1 23 55
M  V30 60 1 24 56
M  V30 61 1 27 57
M  V30 62 1 28 58
M  V30 63 1 31 59
M  V30 64 1 32 60
M  V30 65 1 33 61
M  V30 66 1 34 62
M  V30 67 1 34 63
M  V30 68 1 35 64
M  V30 69 1 35 65
M  V30 END BOND
M  V30 END CTAB
M  END
>  <Dataset>  (889) 
ChEMBL_Kinases

>  <Ligand_Instance>  (889) 
nan

>  <PDB_ID>  (889) 
nan

>  <Standardized_SMILES>  (889) 
OC(COc1ccccc1)CN1CCC(c2cc(-c3ccncc3)c(-c3ccc(F)cc3)[nH]2)CC1

>  <Name>  (889) 
nan

>  <Pocket>  (889) 
nan

>  <ATP_Site>  (889) 
nan

>  <Peripheral>  (889) 
nan

>  <Num_H_Atoms_ProtBoundConf>  (889) 
nan

>  <Num_Resolved_Atoms>  (889) 
nan

>  <Num_Not_Resolved_Atoms>  (889) 
nan

$$$$
CHEMBL4249217
     RDKit          3D

  0  0  0  0  0  0  0  0  0  0999 V3000
M  V30 BEGIN CTAB
M  V30 COUNTS 37 39 0 0 0
M  V30 BEGIN ATOM
M  V30 1 N -0.754847 -5.729446 1.363490 0
M  V30 2 C 0.422029 -5.781409 0.580034 0
M  V30 3 O 1.048505 -6.853786 0.489388 0
M  V30 4 C 0.891669 -4.583153 -0.113462 0
M  V30 5 C 2.044708 -4.693165 -0.862568 0
M  V30 6 C 2.467850 -3.550284 -1.507166 0
M  V30 7 C 1.759242 -2.375330 -1.392777 0
M  V30 8 C 0.623730 -2.254387 -0.658997 0
M  V30 9 C -0.060566 -1.063672 -0.566036 0
M  V30 10 N 0.361079 0.111513 -1.223245 0
M  V30 11 C -0.307211 1.397206 -1.168970 0
M  V30 12 C -0.368745 1.968380 0.206688 0
M  V30 13 C 0.794229 2.697096 0.489758 0
M  V30 14 C 0.994431 3.339354 1.695221 0
M  V30 15 C 0.014119 3.264548 2.664030 0
M  V30 16 C 0.113730 3.917093 4.009588 0
M  V30 17 F -0.531518 3.180844 4.986493 0
M  V30 18 F -0.528925 5.150631 3.991366 0
M  V30 19 F 1.428639 4.019400 4.386267 0
M  V30 20 C -1.128780 2.546776 2.381723 0
M  V30 21 C -1.339850 1.901560 1.181777 0
M  V30 22 N -1.156227 -1.136464 0.201222 0
M  V30 23 N -1.555061 -2.229590 0.813763 0
M  V30 24 N -0.916517 -3.383220 0.740300 0
M  V30 25 C 0.210004 -3.402312 -0.019218 0
M  V30 26 H -0.817736 -5.293640 2.301557 0
M  V30 27 H -1.584623 -6.185179 0.896867 0
M  V30 28 H 2.558846 -5.642450 -0.915325 0
M  V30 29 H 3.383707 -3.649422 -2.098510 0
M  V30 30 H 2.184959 -1.565800 -1.934932 0
M  V30 31 H 1.215887 0.117253 -1.808753 0
M  V30 32 H -1.352854 1.198238 -1.518526 0
M  V30 33 H 0.119375 2.094634 -1.887858 0
M  V30 34 H 1.649207 2.840215 -0.180870 0
M  V30 35 H 1.858183 3.904553 1.959115 0
M  V30 36 H -1.956872 2.434312 3.089775 0
M  V30 37 H -2.186150 1.332679 0.871760 0
M  V30 END ATOM
M  V30 BEGIN BOND
M  V30 1 1 1 2
M  V30 2 2 2 3
M  V30 3 1 2 4
M  V30 4 2 4 5
M  V30 5 1 5 6
M  V30 6 2 6 7
M  V30 7 1 7 8
M  V30 8 2 8 9
M  V30 9 1 9 10
M  V30 10 1 10 11
M  V30 11 1 11 12
M  V30 12 2 12 13
M  V30 13 1 13 14
M  V30 14 2 14 15
M  V30 15 1 15 16
M  V30 16 1 16 17
M  V30 17 1 16 18
M  V30 18 1 16 19
M  V30 19 1 15 20
M  V30 20 2 20 21
M  V30 21 1 9 22
M  V30 22 2 22 23
M  V30 23 1 23 24
M  V30 24 2 24 25
M  V30 25 1 25 4
M  V30 26 1 25 8
M  V30 27 1 21 12
M  V30 28 1 1 26
M  V30 29 1 1 27
M  V30 30 1 5 28
M  V30 31 1 6 29
M  V30 32 1 7 30
M  V30 33 1 10 31
M  V30 34 1 11 32
M  V30 35 1 11 33
M  V30 36 1 13 34
M  V30 37 1 14 35
M  V30 38 1 20 36
M  V30 39 1 21 37
M  V30 END BOND
M  V30 END CTAB
M  END
>  <Dataset>  (890) 
ChEMBL_Kinases

>  <Ligand_Instance>  (890) 
nan

>  <PDB_ID>  (890) 
nan

>  <Standardized_SMILES>  (890) 
NC(=O)c1cccc2c(NCc3ccc(C(F)(F)F)cc3)nnnc12

>  <Name>  (890) 
nan

>  <Pocket>  (890) 
nan

>  <ATP_Site>  (890) 
nan

>  <Peripheral>  (890) 
nan

>  <Num_H_Atoms_ProtBoundConf>  (890) 
nan

>  <Num_Resolved_Atoms>  (890) 
nan

>  <Num_Not_Resolved_Atoms>  (890) 
nan

$$$$
CHEMBL4249151
     RDKit          3D

  0  0  0  0  0  0  0  0  0  0999 V3000
M  V30 BEGIN CTAB
M  V30 COUNTS 59 63 0 0 0
M  V30 BEGIN ATOM
M  V30 1 C 3.134729 -0.579104 5.008705 0
M  V30 2 C 1.870055 0.113252 5.405285 0
M  V30 3 O 0.885012 0.095140 4.394245 0
M  V30 4 C 1.050821 0.646224 3.140855 0
M  V30 5 C 2.207109 1.282223 2.734365 0
M  V30 6 C 2.367522 1.833549 1.475063 0
M  V30 7 C 3.637751 2.466494 1.198370 0
M  V30 8 N 4.442404 3.228996 1.966183 0
M  V30 9 N 5.514336 3.600356 1.310428 0
M  V30 10 C 5.436938 3.085381 0.086326 0
M  V30 11 N 4.274159 2.373815 -0.006458 0
M  V30 12 C 3.836475 1.669189 -1.178799 0
M  V30 13 C 1.331076 1.752239 0.570390 0
M  V30 14 C 0.182678 1.115951 0.986460 0
M  V30 15 C -0.019267 0.546994 2.246409 0
M  V30 16 N -1.270766 -0.090666 2.547819 0
M  V30 17 C -2.285657 -0.124009 1.551227 0
M  V30 18 N -3.277906 0.788473 1.364946 0
M  V30 19 C -4.164992 0.590538 0.348422 0
M  V30 20 C -4.066635 -0.512007 -0.481802 0
M  V30 21 C -4.965816 -0.724704 -1.523498 0
M  V30 22 C -4.796365 -1.849297 -2.304923 0
M  V30 23 C -5.722987 -2.135621 -3.433097 0
M  V30 24 N -3.786826 -2.734279 -2.078997 0
M  V30 25 C -2.902793 -2.547723 -1.073879 0
M  V30 26 N -1.858415 -3.496639 -0.868273 0
M  V30 27 C -1.398093 -4.733862 -1.471943 0
M  V30 28 C -0.006965 -4.390470 -0.985116 0
M  V30 29 C 0.805787 -3.534482 -1.909497 0
M  V30 30 C 0.740460 -5.541716 -0.497338 0
M  V30 31 N 1.344891 -6.441568 -0.100506 0
M  V30 32 C -0.770125 -3.619709 0.082189 0
M  V30 33 C -3.051208 -1.422133 -0.271247 0
M  V30 34 N -2.166315 -1.219608 0.747015 0
M  V30 35 H 4.056325 0.020980 5.186753 0
M  V30 36 H 3.075627 -1.000854 3.987587 0
M  V30 37 H 3.262812 -1.465821 5.695958 0
M  V30 38 H 1.452628 -0.284554 6.334347 0
M  V30 39 H 2.138832 1.196311 5.558152 0
M  V30 40 H 3.013105 1.336990 3.462667 0
M  V30 41 H 6.147314 3.180430 -0.741338 0
M  V30 42 H 3.332925 2.345134 -1.929961 0
M  V30 43 H 4.748841 1.329091 -1.725911 0
M  V30 44 H 3.280716 0.738234 -0.986049 0
M  V30 45 H 1.443707 2.172243 -0.400052 0
M  V30 46 H -0.637410 1.044634 0.288108 0
M  V30 47 H -1.315083 -0.492266 3.531195 0
M  V30 48 H -4.947000 1.319123 0.209782 0
M  V30 49 H -5.779228 -0.006685 -1.700872 0
M  V30 50 H -6.668492 -1.616129 -3.217101 0
M  V30 51 H -5.270045 -1.712849 -4.363591 0
M  V30 52 H -5.844538 -3.219818 -3.600555 0
M  V30 53 H -1.786485 -5.647103 -0.948005 0
M  V30 54 H -1.450875 -4.789385 -2.578156 0
M  V30 55 H 0.541212 -2.446673 -1.825481 0
M  V30 56 H 0.765768 -3.910329 -2.949833 0
M  V30 57 H 1.877873 -3.586523 -1.593119 0
M  V30 58 H -0.297221 -2.698572 0.424032 0
M  V30 59 H -1.023508 -4.311766 0.911666 0
M  V30 END ATOM
M  V30 BEGIN BOND
M  V30 1 1 1 2
M  V30 2 1 2 3
M  V30 3 1 3 4
M  V30 4 2 4 5
M  V30 5 1 5 6
M  V30 6 1 6 7
M  V30 7 2 7 8
M  V30 8 1 8 9
M  V30 9 2 9 10
M  V30 10 1 10 11
M  V30 11 1 11 12
M  V30 12 2 6 13
M  V30 13 1 13 14
M  V30 14 2 14 15
M  V30 15 1 15 16
M  V30 16 1 16 17
M  V30 17 2 17 18
M  V30 18 1 18 19
M  V30 19 2 19 20
M  V30 20 1 20 21
M  V30 21 2 21 22
M  V30 22 1 22 23
M  V30 23 1 22 24
M  V30 24 2 24 25
M  V30 25 1 25 26
M  V30 26 1 26 27
M  V30 27 1 27 28
M  V30 28 1 28 29
M  V30 29 1 28 30
M  V30 30 3 30 31
M  V30 31 1 28 32
M  V30 32 1 25 33
M  V30 33 2 33 34
M  V30 34 1 15 4
M  V30 35 1 34 17
M  V30 36 1 11 7
M  V30 37 1 33 20
M  V30 38 1 32 26
M  V30 39 1 1 35
M  V30 40 1 1 36
M  V30 41 1 1 37
M  V30 42 1 2 38
M  V30 43 1 2 39
M  V30 44 1 5 40
M  V30 45 1 10 41
M  V30 46 1 12 42
M  V30 47 1 12 43
M  V30 48 1 12 44
M  V30 49 1 13 45
M  V30 50 1 14 46
M  V30 51 1 16 47
M  V30 52 1 19 48
M  V30 53 1 21 49
M  V30 54 1 23 50
M  V30 55 1 23 51
M  V30 56 1 23 52
M  V30 57 1 27 53
M  V30 58 1 27 54
M  V30 59 1 29 55
M  V30 60 1 29 56
M  V30 61 1 29 57
M  V30 62 1 32 58
M  V30 63 1 32 59
M  V30 END BOND
M  V30 END CTAB
M  END
>  <Dataset>  (891) 
ChEMBL_Kinases

>  <Ligand_Instance>  (891) 
nan

>  <PDB_ID>  (891) 
nan

>  <Standardized_SMILES>  (891) 
CCOc1cc(-c2nncn2C)ccc1Nc1ncc2cc(C)nc(N3CC(C)(C#N)C3)c2n1

>  <Name>  (891) 
nan

>  <Pocket>  (891) 
nan

>  <ATP_Site>  (891) 
nan

>  <Peripheral>  (891) 
nan

>  <Num_H_Atoms_ProtBoundConf>  (891) 
nan

>  <Num_Resolved_Atoms>  (891) 
nan

>  <Num_Not_Resolved_Atoms>  (891) 
nan

$$$$
CHEMBL4249070
     RDKit          3D

  0  0  0  0  0  0  0  0  0  0999 V3000
M  V30 BEGIN CTAB
M  V30 COUNTS 52 55 0 0 0
M  V30 BEGIN ATOM
M  V30 1 C 3.065882 -2.038889 2.462369 0
M  V30 2 C 4.145932 -0.958324 2.604655 0
M  V30 3 C 4.621541 -0.967654 4.044019 0
M  V30 4 N 5.217812 -1.320013 1.726269 0
M  V30 5 S 5.505477 -0.110668 0.519200 0
M  V30 6 O 5.703062 1.224419 1.226056 0
M  V30 7 O 6.691174 -0.441179 -0.316530 0
M  V30 8 C 4.064296 0.065737 -0.466059 0
M  V30 9 C 4.043172 -0.772247 -1.580281 0
M  V30 10 C 2.990706 -0.787895 -2.489097 0
M  V30 11 C 1.925744 0.080021 -2.252434 0
M  V30 12 C 1.945365 0.920285 -1.136388 0
M  V30 13 C 0.849075 1.871606 -0.815096 0
M  V30 14 C -0.180348 1.206839 0.061969 0
M  V30 15 O 0.506690 0.151857 0.029674 0
M  V30 16 N -1.323200 1.872427 0.517721 0
M  V30 17 C -2.101672 0.965296 1.330365 0
M  V30 18 N -2.994884 0.202494 0.956570 0
M  V30 19 C -3.632939 -0.587756 1.830959 0
M  V30 20 C -4.701693 -1.493273 1.350563 0
M  V30 21 C -5.452059 -2.371054 2.111805 0
M  V30 22 N -6.343419 -3.051254 1.371614 0
M  V30 23 C -6.203774 -2.635418 0.085509 0
M  V30 24 N -6.839491 -2.987776 -1.040942 0
M  V30 25 C -6.526504 -2.431343 -2.218501 0
M  V30 26 C -5.520090 -1.467892 -2.269532 0
M  V30 27 C -4.847723 -1.086849 -1.115849 0
M  V30 28 C -5.204042 -1.690211 0.088533 0
M  V30 29 C -3.263621 -0.528346 3.176559 0
M  V30 30 S -1.919387 0.758680 3.093232 0
M  V30 31 C 3.004983 0.907727 -0.258518 0
M  V30 32 H 2.462317 -1.808588 1.556334 0
M  V30 33 H 2.418490 -2.062790 3.380380 0
M  V30 34 H 3.603435 -3.000393 2.403735 0
M  V30 35 H 3.671581 0.014590 2.390890 0
M  V30 36 H 5.396489 -1.757259 4.206788 0
M  V30 37 H 3.757477 -1.239686 4.716327 0
M  V30 38 H 5.037466 0.002681 4.377019 0
M  V30 39 H 6.090434 -1.621079 2.189822 0
M  V30 40 H 4.823803 -1.464395 -1.827213 0
M  V30 41 H 2.963574 -1.429169 -3.351107 0
M  V30 42 H 1.064351 0.140234 -2.900381 0
M  V30 43 H 0.346662 2.168037 -1.761750 0
M  V30 44 H 1.256632 2.763809 -0.298599 0
M  V30 45 H -1.416701 2.846572 0.215309 0
M  V30 46 H -5.351254 -2.514948 3.197650 0
M  V30 47 H -7.011265 -3.764831 1.743072 0
M  V30 48 H -7.057503 -2.736526 -3.112618 0
M  V30 49 H -5.253349 -1.003634 -3.226254 0
M  V30 50 H -4.054993 -0.337351 -1.114293 0
M  V30 51 H -3.699337 -1.107859 3.959849 0
M  V30 52 H 3.089970 1.516698 0.610314 0
M  V30 END ATOM
M  V30 BEGIN BOND
M  V30 1 1 1 2
M  V30 2 1 2 3
M  V30 3 1 2 4
M  V30 4 1 4 5
M  V30 5 2 5 6
M  V30 6 2 5 7
M  V30 7 1 5 8
M  V30 8 2 8 9
M  V30 9 1 9 10
M  V30 10 2 10 11
M  V30 11 1 11 12
M  V30 12 1 12 13
M  V30 13 1 13 14
M  V30 14 2 14 15
M  V30 15 1 14 16
M  V30 16 1 16 17
M  V30 17 2 17 18
M  V30 18 1 18 19
M  V30 19 1 19 20
M  V30 20 2 20 21
M  V30 21 1 21 22
M  V30 22 1 22 23
M  V30 23 2 23 24
M  V30 24 1 24 25
M  V30 25 2 25 26
M  V30 26 1 26 27
M  V30 27 2 27 28
M  V30 28 2 19 29
M  V30 29 1 29 30
M  V30 30 2 12 31
M  V30 31 1 31 8
M  V30 32 1 30 17
M  V30 33 1 28 20
M  V30 34 1 28 23
M  V30 35 1 1 32
M  V30 36 1 1 33
M  V30 37 1 1 34
M  V30 38 1 2 35
M  V30 39 1 3 36
M  V30 40 1 3 37
M  V30 41 1 3 38
M  V30 42 1 4 39
M  V30 43 1 9 40
M  V30 44 1 10 41
M  V30 45 1 11 42
M  V30 46 1 13 43
M  V30 47 1 13 44
M  V30 48 1 16 45
M  V30 49 1 21 46
M  V30 50 1 22 47
M  V30 51 1 25 48
M  V30 52 1 26 49
M  V30 53 1 27 50
M  V30 54 1 29 51
M  V30 55 1 31 52
M  V30 END BOND
M  V30 END CTAB
M  END
>  <Dataset>  (892) 
ChEMBL_Kinases

>  <Ligand_Instance>  (892) 
nan

>  <PDB_ID>  (892) 
nan

>  <Standardized_SMILES>  (892) 
CC(C)NS(=O)(=O)c1cccc(CC(=O)Nc2nc(-c3c[nH]c4ncccc34)cs2)c1

>  <Name>  (892) 
nan

>  <Pocket>  (892) 
nan

>  <ATP_Site>  (892) 
nan

>  <Peripheral>  (892) 
nan

>  <Num_H_Atoms_ProtBoundConf>  (892) 
nan

>  <Num_Resolved_Atoms>  (892) 
nan

>  <Num_Not_Resolved_Atoms>  (892) 
nan

$$$$
CHEMBL4763614
     RDKit          3D

  0  0  0  0  0  0  0  0  0  0999 V3000
M  V30 BEGIN CTAB
M  V30 COUNTS 44 47 0 0 0
M  V30 BEGIN ATOM
M  V30 1 C 1.641725 -5.622244 1.385865 0
M  V30 2 O 2.589370 -4.573431 1.312195 0
M  V30 3 C 2.375571 -3.452104 0.499077 0
M  V30 4 C 3.348554 -2.456357 0.472996 0
M  V30 5 C 3.191073 -1.335788 -0.305953 0
M  V30 6 C 2.052697 -1.183897 -1.080094 0
M  V30 7 N 1.744099 -0.084584 -1.936503 0
M  V30 8 C 2.152633 0.150684 -3.196852 0
M  V30 9 N 1.624052 1.313687 -3.644216 0
M  V30 10 C 0.856207 1.857685 -2.671953 0
M  V30 11 C 0.070251 2.972893 -2.467511 0
M  V30 12 N -0.569958 3.175610 -1.301630 0
M  V30 13 C -0.471577 2.290232 -0.271082 0
M  V30 14 N -1.152642 2.518643 0.951167 0
M  V30 15 C -1.004273 1.539588 2.000536 0 CFG=2
M  V30 16 C -1.489070 0.168760 1.583407 0
M  V30 17 C -1.719662 -0.518712 2.914062 0
M  V30 18 C -1.639896 0.541879 3.985291 0 CFG=1
M  V30 19 N -0.269406 0.638350 4.412037 0
M  V30 20 C -1.916617 1.811330 3.174564 0
M  V30 21 N 0.296765 1.206500 -0.480111 0
M  V30 22 C 0.950562 0.972498 -1.632538 0
M  V30 23 C 1.067448 -2.170532 -1.066921 0
M  V30 24 C 1.235045 -3.291407 -0.281734 0
M  V30 25 H 1.875891 -6.242492 2.262595 0
M  V30 26 H 0.636389 -5.162531 1.490839 0
M  V30 27 H 1.599985 -6.245701 0.481362 0
M  V30 28 H 4.248418 -2.550618 1.069179 0
M  V30 29 H 3.902753 -0.530654 -0.371949 0
M  V30 30 H 2.804235 -0.515780 -3.731865 0
M  V30 31 H 0.003869 3.671395 -3.306016 0
M  V30 32 H -1.728142 3.370876 1.050673 0
M  V30 33 H 0.030091 1.520093 2.354391 0
M  V30 34 H -2.472580 0.347723 1.070506 0
M  V30 35 H -0.752330 -0.357707 0.975403 0
M  V30 36 H -2.668167 -1.065962 2.977578 0
M  V30 37 H -0.866862 -1.237303 3.048356 0
M  V30 38 H -2.373277 0.381999 4.782618 0
M  V30 39 H -0.029987 1.464664 4.963765 0
M  V30 40 H 0.193313 -0.242929 4.646307 0
M  V30 41 H -2.984039 1.764303 2.887410 0
M  V30 42 H -1.637108 2.722440 3.738084 0
M  V30 43 H 0.150395 -2.152110 -1.627051 0
M  V30 44 H 0.502088 -4.079811 -0.238700 0
M  V30 END ATOM
M  V30 BEGIN BOND
M  V30 1 1 1 2
M  V30 2 1 2 3
M  V30 3 2 3 4
M  V30 4 1 4 5
M  V30 5 2 5 6
M  V30 6 1 6 7
M  V30 7 1 7 8
M  V30 8 2 8 9
M  V30 9 1 9 10
M  V30 10 2 10 11
M  V30 11 1 11 12
M  V30 12 2 12 13
M  V30 13 1 13 14
M  V30 14 1 14 15
M  V30 15 1 15 16
M  V30 16 1 16 17
M  V30 17 1 17 18
M  V30 18 1 18 19
M  V30 19 1 18 20
M  V30 20 1 13 21
M  V30 21 2 21 22
M  V30 22 1 6 23
M  V30 23 2 23 24
M  V30 24 1 24 3
M  V30 25 1 22 7
M  V30 26 1 22 10
M  V30 27 1 20 15
M  V30 28 1 1 25
M  V30 29 1 1 26
M  V30 30 1 1 27
M  V30 31 1 4 28
M  V30 32 1 5 29
M  V30 33 1 8 30
M  V30 34 1 11 31
M  V30 35 1 14 32
M  V30 36 1 15 33 CFG=1
M  V30 37 1 16 34
M  V30 38 1 16 35
M  V30 39 1 17 36
M  V30 40 1 17 37
M  V30 41 1 18 38 CFG=1
M  V30 42 1 19 39
M  V30 43 1 19 40
M  V30 44 1 20 41
M  V30 45 1 20 42
M  V30 46 1 23 43
M  V30 47 1 24 44
M  V30 END BOND
M  V30 END CTAB
M  END
>  <Dataset>  (893) 
ChEMBL_Kinases

>  <Ligand_Instance>  (893) 
nan

>  <PDB_ID>  (893) 
nan

>  <Standardized_SMILES>  (893) 
COc1ccc(-n2cnc3cnc(N[C@@H]4CC[C@@H](N)C4)nc32)cc1

>  <Name>  (893) 
nan

>  <Pocket>  (893) 
nan

>  <ATP_Site>  (893) 
nan

>  <Peripheral>  (893) 
nan

>  <Num_H_Atoms_ProtBoundConf>  (893) 
nan

>  <Num_Resolved_Atoms>  (893) 
nan

>  <Num_Not_Resolved_Atoms>  (893) 
nan

$$$$
CHEMBL424897
     RDKit          3D

  0  0  0  0  0  0  0  0  0  0999 V3000
M  V30 BEGIN CTAB
M  V30 COUNTS 50 52 0 0 0
M  V30 BEGIN ATOM
M  V30 1 C -0.039866 1.073662 2.840567 0
M  V30 2 C -0.048141 1.357304 1.369600 0
M  V30 3 C 1.222077 1.570517 0.807636 0
M  V30 4 C 1.269046 1.827744 -0.571537 0
M  V30 5 O 2.554937 2.024975 -1.019603 0
M  V30 6 C 3.414743 1.025864 -1.397208 0
M  V30 7 C 4.517328 1.103206 -0.523508 0
M  V30 8 C 5.610567 0.230156 -0.606276 0
M  V30 9 C 5.618881 -0.763587 -1.593272 0
M  V30 10 F 6.611974 -1.656780 -1.769002 0
M  V30 11 C 4.547658 -0.844549 -2.448970 0
M  V30 12 C 3.493848 0.026056 -2.340092 0
M  V30 13 Cl 2.074756 0.039804 -3.361412 0
M  V30 14 C 0.133740 1.870288 -1.337061 0
M  V30 15 C -1.099122 1.660766 -0.771525 0
M  V30 16 C -1.213539 1.402655 0.582755 0
M  V30 17 N -2.320657 1.217453 1.400530 0
M  V30 18 C -3.163805 0.560883 2.235078 0
M  V30 19 S -4.522991 1.422571 3.177863 0
M  V30 20 N -5.081921 -0.157921 3.974817 0
M  V30 21 C -4.200389 -1.085753 3.440490 0
M  V30 22 O -4.684485 -2.215173 4.080527 0
M  V30 23 C -3.221027 -0.744801 2.556229 0
M  V30 24 C -2.470058 -1.881956 2.094821 0
M  V30 25 N -2.629622 -3.208167 2.569909 0
M  V30 26 N -1.562313 -1.755204 1.200491 0
M  V30 27 C -0.792473 -2.892660 0.716343 0
M  V30 28 C -1.673702 -3.882012 -0.009198 0
M  V30 29 C 0.238044 -2.418181 -0.267033 0
M  V30 30 O 1.155137 -1.539014 0.247723 0
M  V30 31 H 0.793752 1.629589 3.312797 0
M  V30 32 H 0.151039 -0.005778 3.033596 0
M  V30 33 H -0.974944 1.420726 3.341462 0
M  V30 34 H 2.123304 1.532445 1.443115 0
M  V30 35 H 4.718350 1.787296 0.305859 0
M  V30 36 H 6.490977 0.212793 0.014808 0
M  V30 37 H 4.401162 -1.555300 -3.265161 0
M  V30 38 H 0.186377 2.076617 -2.393031 0
M  V30 39 H -2.051205 1.671837 -1.278582 0
M  V30 40 H -2.644703 2.221248 1.219529 0
M  V30 41 H -4.085752 -2.855344 4.626042 0
M  V30 42 H -2.020143 -4.034186 2.479456 0
M  V30 43 H -1.958086 -3.979453 2.427709 0
M  V30 44 H -0.265511 -3.405835 1.552062 0
M  V30 45 H -2.764878 -3.680749 0.203483 0
M  V30 46 H -1.557087 -3.730854 -1.097316 0
M  V30 47 H -1.411775 -4.936346 0.261000 0
M  V30 48 H -0.288058 -1.986350 -1.149612 0
M  V30 49 H 0.744172 -3.338011 -0.649386 0
M  V30 50 H 1.575906 -1.053930 -0.498248 0
M  V30 END ATOM
M  V30 BEGIN BOND
M  V30 1 1 1 2
M  V30 2 2 2 3
M  V30 3 1 3 4
M  V30 4 1 4 5
M  V30 5 1 5 6
M  V30 6 2 6 7
M  V30 7 1 7 8
M  V30 8 2 8 9
M  V30 9 1 9 10
M  V30 10 1 9 11
M  V30 11 2 11 12
M  V30 12 1 12 13
M  V30 13 2 4 14
M  V30 14 1 14 15
M  V30 15 2 15 16
M  V30 16 1 16 17
M  V30 17 1 17 18
M  V30 18 1 18 19
M  V30 19 1 19 20
M  V30 20 2 20 21
M  V30 21 1 21 22
M  V30 22 1 21 23
M  V30 23 1 23 24
M  V30 24 1 24 25
M  V30 25 2 24 26
M  V30 26 1 26 27
M  V30 27 1 27 28
M  V30 28 1 27 29
M  V30 29 1 29 30
M  V30 30 1 16 2
M  V30 31 2 23 18
M  V30 32 1 12 6
M  V30 33 1 1 31
M  V30 34 1 1 32
M  V30 35 1 1 33
M  V30 36 1 3 34
M  V30 37 1 7 35
M  V30 38 1 8 36
M  V30 39 1 11 37
M  V30 40 1 14 38
M  V30 41 1 15 39
M  V30 42 1 17 40
M  V30 43 1 22 41
M  V30 44 1 25 42
M  V30 45 1 25 43
M  V30 46 1 27 44
M  V30 47 1 28 45
M  V30 48 1 28 46
M  V30 49 1 28 47
M  V30 50 1 29 48
M  V30 51 1 29 49
M  V30 52 1 30 50
M  V30 END BOND
M  V30 END CTAB
M  END
>  <Dataset>  (894) 
ChEMBL_Kinases

>  <Ligand_Instance>  (894) 
nan

>  <PDB_ID>  (894) 
nan

>  <Standardized_SMILES>  (894) 
Cc1cc(Oc2ccc(F)cc2Cl)ccc1Nc1snc(O)c1/C(N)=N/C(C)CO

>  <Name>  (894) 
nan

>  <Pocket>  (894) 
nan

>  <ATP_Site>  (894) 
nan

>  <Peripheral>  (894) 
nan

>  <Num_H_Atoms_ProtBoundConf>  (894) 
nan

>  <Num_Resolved_Atoms>  (894) 
nan

>  <Num_Not_Resolved_Atoms>  (894) 
nan

$$$$
CHEMBL4248883
     RDKit          3D

  0  0  0  0  0  0  0  0  0  0999 V3000
M  V30 BEGIN CTAB
M  V30 COUNTS 41 45 0 0 0
M  V30 BEGIN ATOM
M  V30 1 O 1.716536 -0.875758 -0.692441 0
M  V30 2 C 1.785976 -0.053572 0.245855 0
M  V30 3 C 2.804221 1.034022 0.474775 0
M  V30 4 C 3.772868 0.978709 -0.652018 0
M  V30 5 C 4.936824 0.240832 -0.703590 0
M  V30 6 C 5.705120 0.322618 -1.841080 0
M  V30 7 C 5.352601 1.111002 -2.921283 0
M  V30 8 C 4.189084 1.848911 -2.870333 0
M  V30 9 C 3.393758 1.783760 -1.730676 0
M  V30 10 O 4.030198 2.567742 -4.062317 0
M  V30 11 C 4.978252 2.019744 -4.965955 0
M  V30 12 O 5.946954 1.356222 -4.154184 0
M  V30 13 N 0.800764 -0.104482 1.259578 0
M  V30 14 C -0.278020 -1.049534 1.272598 0
M  V30 15 N -1.247286 -1.325593 1.991200 0
M  V30 16 C -2.075590 -2.303769 1.689606 0
M  V30 17 C -3.212200 -2.595751 2.571441 0
M  V30 18 C -4.184013 -3.589927 2.406918 0
M  V30 19 N -5.077431 -3.585662 3.388489 0
M  V30 20 C -4.752951 -2.609458 4.238230 0
M  V30 21 N -5.315976 -2.171409 5.393894 0
M  V30 22 C -4.735791 -1.140763 6.031360 0
M  V30 23 C -3.600043 -0.473550 5.613368 0
M  V30 24 C -3.055441 -0.944955 4.436688 0
M  V30 25 C -3.627067 -2.009043 3.748612 0
M  V30 26 C -1.854861 -3.065833 0.508294 0
M  V30 27 S -0.393575 -2.274007 -0.111691 0
M  V30 28 H 2.361079 2.020265 0.600381 0
M  V30 29 H 3.375618 0.678654 1.372293 0
M  V30 30 H 5.140591 -0.344093 0.171464 0
M  V30 31 H 6.618321 -0.274301 -1.846634 0
M  V30 32 H 2.480183 2.393059 -1.748666 0
M  V30 33 H 5.522343 2.799996 -5.523280 0
M  V30 34 H 4.455748 1.300983 -5.619935 0
M  V30 35 H 0.757460 0.527803 2.086846 0
M  V30 36 H -4.236764 -4.302336 1.585656 0
M  V30 37 H -5.893332 -4.202807 3.518718 0
M  V30 38 H -5.214102 -0.817629 6.952674 0
M  V30 39 H -3.218127 0.345239 6.206146 0
M  V30 40 H -2.155806 -0.450488 4.063600 0
M  V30 41 H -2.443291 -3.860889 0.170480 0
M  V30 END ATOM
M  V30 BEGIN BOND
M  V30 1 2 1 2
M  V30 2 1 2 3
M  V30 3 1 3 4
M  V30 4 2 4 5
M  V30 5 1 5 6
M  V30 6 2 6 7
M  V30 7 1 7 8
M  V30 8 2 8 9
M  V30 9 1 8 10
M  V30 10 1 10 11
M  V30 11 1 11 12
M  V30 12 1 2 13
M  V30 13 1 13 14
M  V30 14 2 14 15
M  V30 15 1 15 16
M  V30 16 1 16 17
M  V30 17 2 17 18
M  V30 18 1 18 19
M  V30 19 1 19 20
M  V30 20 2 20 21
M  V30 21 1 21 22
M  V30 22 2 22 23
M  V30 23 1 23 24
M  V30 24 2 24 25
M  V30 25 2 16 26
M  V30 26 1 26 27
M  V30 27 1 9 4
M  V30 28 1 27 14
M  V30 29 1 12 7
M  V30 30 1 25 17
M  V30 31 1 25 20
M  V30 32 1 3 28
M  V30 33 1 3 29
M  V30 34 1 5 30
M  V30 35 1 6 31
M  V30 36 1 9 32
M  V30 37 1 11 33
M  V30 38 1 11 34
M  V30 39 1 13 35
M  V30 40 1 18 36
M  V30 41 1 19 37
M  V30 42 1 22 38
M  V30 43 1 23 39
M  V30 44 1 24 40
M  V30 45 1 26 41
M  V30 END BOND
M  V30 END CTAB
M  END
>  <Dataset>  (895) 
ChEMBL_Kinases

>  <Ligand_Instance>  (895) 
nan

>  <PDB_ID>  (895) 
nan

>  <Standardized_SMILES>  (895) 
O=C(Cc1ccc2c(c1)OCO2)Nc1nc(-c2c[nH]c3ncccc23)cs1

>  <Name>  (895) 
nan

>  <Pocket>  (895) 
nan

>  <ATP_Site>  (895) 
nan

>  <Peripheral>  (895) 
nan

>  <Num_H_Atoms_ProtBoundConf>  (895) 
nan

>  <Num_Resolved_Atoms>  (895) 
nan

>  <Num_Not_Resolved_Atoms>  (895) 
nan

$$$$
CHEMBL424888
     RDKit          3D

  0  0  0  0  0  0  0  0  0  0999 V3000
M  V30 BEGIN CTAB
M  V30 COUNTS 43 47 0 0 0
M  V30 BEGIN ATOM
M  V30 1 C 2.756220 -4.294025 1.384398 0
M  V30 2 O 2.063708 -3.139942 0.937755 0
M  V30 3 C 2.012542 -2.903562 -0.431482 0
M  V30 4 C 2.612755 -3.756664 -1.345712 0
M  V30 5 C 2.555169 -3.511732 -2.700170 0
M  V30 6 C 1.876006 -2.382666 -3.113732 0
M  V30 7 N 1.776767 -2.066921 -4.507827 0
M  V30 8 C 1.271964 -1.519957 -2.230468 0
M  V30 9 C 1.332444 -1.769144 -0.879182 0
M  V30 10 C 0.699331 -0.868453 0.077738 0
M  V30 11 C 1.432676 0.183936 0.586849 0
M  V30 12 C 0.840351 1.039417 1.491966 0
M  V30 13 N 1.325952 2.121673 2.126534 0
M  V30 14 C 0.315705 2.598910 2.912465 0
M  V30 15 C 0.366726 3.713930 3.751936 0
M  V30 16 C -0.746648 4.085131 4.498632 0
M  V30 17 C -1.893916 3.305525 4.371160 0
M  V30 18 O -3.006047 3.676389 5.117076 0
M  V30 19 C -1.864640 2.222434 3.523143 0
M  V30 20 C -0.806402 1.813821 2.770360 0
M  V30 21 C -0.463871 0.850993 1.885655 0
M  V30 22 C -1.186214 -0.181766 1.387148 0
M  V30 23 C -0.619147 -1.046658 0.485208 0
M  V30 24 C -1.532237 -2.099029 0.050415 0
M  V30 25 O -1.309898 -3.031687 -0.761328 0
M  V30 26 N -2.742439 -1.812663 0.771696 0
M  V30 27 C -2.525511 -0.662523 1.569715 0
M  V30 28 O -3.491584 -0.297741 2.250600 0
M  V30 29 H 3.847927 -4.080298 1.193350 0
M  V30 30 H 2.606492 -4.482313 2.458999 0
M  V30 31 H 2.456322 -5.214464 0.850843 0
M  V30 32 H 3.132609 -4.623795 -1.003545 0
M  V30 33 H 3.020543 -4.170300 -3.434486 0
M  V30 34 H 0.987414 -2.695383 -4.820624 0
M  V30 35 H 2.246499 -1.435585 -5.204873 0
M  V30 36 H 0.744750 -0.640033 -2.582079 0
M  V30 37 H 2.451771 0.348253 0.292418 0
M  V30 38 H 2.302333 2.487720 2.005449 0
M  V30 39 H 1.269743 4.292935 3.825551 0
M  V30 40 H -0.645518 4.942379 5.118447 0
M  V30 41 H -3.136681 3.373047 6.083797 0
M  V30 42 H -2.785770 1.695322 3.497071 0
M  V30 43 H -3.573228 -2.443895 0.627925 0
M  V30 END ATOM
M  V30 BEGIN BOND
M  V30 1 1 1 2
M  V30 2 1 2 3
M  V30 3 2 3 4
M  V30 4 1 4 5
M  V30 5 2 5 6
M  V30 6 1 6 7
M  V30 7 1 6 8
M  V30 8 2 8 9
M  V30 9 1 9 10
M  V30 10 2 10 11
M  V30 11 1 11 12
M  V30 12 1 12 13
M  V30 13 1 13 14
M  V30 14 2 14 15
M  V30 15 1 15 16
M  V30 16 2 16 17
M  V30 17 1 17 18
M  V30 18 1 17 19
M  V30 19 2 19 20
M  V30 20 1 20 21
M  V30 21 1 21 22
M  V30 22 2 22 23
M  V30 23 1 23 24
M  V30 24 2 24 25
M  V30 25 1 24 26
M  V30 26 1 26 27
M  V30 27 2 27 28
M  V30 28 1 9 3
M  V30 29 1 23 10
M  V30 30 2 21 12
M  V30 31 1 27 22
M  V30 32 1 20 14
M  V30 33 1 1 29
M  V30 34 1 1 30
M  V30 35 1 1 31
M  V30 36 1 4 32
M  V30 37 1 5 33
M  V30 38 1 7 34
M  V30 39 1 7 35
M  V30 40 1 8 36
M  V30 41 1 11 37
M  V30 42 1 13 38
M  V30 43 1 15 39
M  V30 44 1 16 40
M  V30 45 1 18 41
M  V30 46 1 19 42
M  V30 47 1 26 43
M  V30 END BOND
M  V30 END CTAB
M  END
>  <Dataset>  (896) 
ChEMBL_Kinases

>  <Ligand_Instance>  (896) 
nan

>  <PDB_ID>  (896) 
nan

>  <Standardized_SMILES>  (896) 
COc1ccc(N)cc1-c1cc2[nH]c3ccc(O)cc3c2c2c1C(=O)NC2=O

>  <Name>  (896) 
nan

>  <Pocket>  (896) 
nan

>  <ATP_Site>  (896) 
nan

>  <Peripheral>  (896) 
nan

>  <Num_H_Atoms_ProtBoundConf>  (896) 
nan

>  <Num_Resolved_Atoms>  (896) 
nan

>  <Num_Not_Resolved_Atoms>  (896) 
nan

$$$$
CHEMBL4248872
     RDKit          3D

  0  0  0  0  0  0  0  0  0  0999 V3000
M  V30 BEGIN CTAB
M  V30 COUNTS 58 62 0 0 0
M  V30 BEGIN ATOM
M  V30 1 C 2.965466 -0.610668 4.801019 0
M  V30 2 C 1.810980 0.268791 5.213775 0
M  V30 3 O 0.883012 0.317803 4.158295 0
M  V30 4 C 1.186806 0.793050 2.914395 0
M  V30 5 C 2.383866 1.295879 2.454192 0
M  V30 6 C 2.576046 1.749408 1.174387 0
M  V30 7 C 3.894964 2.255241 0.812916 0
M  V30 8 N 4.549221 3.428418 0.747660 0
M  V30 9 N 5.787338 3.236492 0.325214 0
M  V30 10 C 5.932312 1.905642 0.113504 0
M  V30 11 N 4.757204 1.289530 0.415365 0
M  V30 12 C 4.712343 -0.152012 0.250730 0
M  V30 13 C 1.539012 1.722449 0.251757 0
M  V30 14 C 0.340193 1.217418 0.717562 0
M  V30 15 C 0.124034 0.750751 2.015648 0
M  V30 16 N -1.186833 0.247193 2.340977 0
M  V30 17 C -2.240932 0.242522 1.359508 0
M  V30 18 N -3.183825 1.207957 1.158560 0
M  V30 19 C -4.079606 1.007197 0.180230 0
M  V30 20 C -4.105588 -0.102228 -0.625581 0
M  V30 21 C -5.013022 -0.330630 -1.636581 0
M  V30 22 C -4.935372 -1.502569 -2.391737 0
M  V30 23 C -5.902662 -1.770918 -3.487613 0
M  V30 24 N -3.971636 -2.396366 -2.121160 0
M  V30 25 C -3.062748 -2.223370 -1.147758 0
M  V30 26 N -2.088183 -3.234862 -0.950567 0
M  V30 27 C -1.949198 -4.472020 -1.734171 0
M  V30 28 C -0.486257 -4.311683 -2.172673 0
M  V30 29 C 0.182685 -3.567934 -1.009912 0
M  V30 30 C -0.986499 -3.456616 -0.040677 0
M  V30 31 C -3.142764 -1.064532 -0.403909 0
M  V30 32 N -2.268110 -0.848127 0.565792 0
M  V30 33 H 2.898129 -1.547461 5.428388 0
M  V30 34 H 2.824171 -0.977093 3.740973 0
M  V30 35 H 3.955244 -0.136599 4.912329 0
M  V30 36 H 1.358295 -0.105085 6.135058 0
M  V30 37 H 2.146106 1.308446 5.442197 0
M  V30 38 H 3.186386 1.317578 3.172361 0
M  V30 39 H 6.938543 1.645102 -0.242557 0
M  V30 40 H 5.054000 -0.403515 -0.788324 0
M  V30 41 H 3.678341 -0.547741 0.310572 0
M  V30 42 H 5.420024 -0.677465 0.927348 0
M  V30 43 H 1.665666 2.070538 -0.752068 0
M  V30 44 H -0.491204 1.183906 0.016617 0
M  V30 45 H -1.311228 -0.110369 3.334301 0
M  V30 46 H -4.825533 1.764556 0.017522 0
M  V30 47 H -5.773082 0.415007 -1.820874 0
M  V30 48 H -5.399912 -1.660299 -4.484991 0
M  V30 49 H -6.676348 -0.988143 -3.450202 0
M  V30 50 H -6.356616 -2.787431 -3.421744 0
M  V30 51 H -1.987764 -5.374900 -1.122449 0
M  V30 52 H -2.627877 -4.497888 -2.606991 0
M  V30 53 H -0.478971 -3.680552 -3.063569 0
M  V30 54 H 0.022814 -5.287265 -2.294178 0
M  V30 55 H 0.454561 -2.523543 -1.289518 0
M  V30 56 H 1.020061 -4.129439 -0.577598 0
M  V30 57 H -1.140518 -4.491195 0.390700 0
M  V30 58 H -0.830929 -2.708207 0.724816 0
M  V30 END ATOM
M  V30 BEGIN BOND
M  V30 1 1 1 2
M  V30 2 1 2 3
M  V30 3 1 3 4
M  V30 4 2 4 5
M  V30 5 1 5 6
M  V30 6 1 6 7
M  V30 7 2 7 8
M  V30 8 1 8 9
M  V30 9 2 9 10
M  V30 10 1 10 11
M  V30 11 1 11 12
M  V30 12 2 6 13
M  V30 13 1 13 14
M  V30 14 2 14 15
M  V30 15 1 15 16
M  V30 16 1 16 17
M  V30 17 2 17 18
M  V30 18 1 18 19
M  V30 19 2 19 20
M  V30 20 1 20 21
M  V30 21 2 21 22
M  V30 22 1 22 23
M  V30 23 1 22 24
M  V30 24 2 24 25
M  V30 25 1 25 26
M  V30 26 1 26 27
M  V30 27 1 27 28
M  V30 28 1 28 29
M  V30 29 1 29 30
M  V30 30 1 25 31
M  V30 31 2 31 32
M  V30 32 1 15 4
M  V30 33 1 32 17
M  V30 34 1 11 7
M  V30 35 1 31 20
M  V30 36 1 30 26
M  V30 37 1 1 33
M  V30 38 1 1 34
M  V30 39 1 1 35
M  V30 40 1 2 36
M  V30 41 1 2 37
M  V30 42 1 5 38
M  V30 43 1 10 39
M  V30 44 1 12 40
M  V30 45 1 12 41
M  V30 46 1 12 42
M  V30 47 1 13 43
M  V30 48 1 14 44
M  V30 49 1 16 45
M  V30 50 1 19 46
M  V30 51 1 21 47
M  V30 52 1 23 48
M  V30 53 1 23 49
M  V30 54 1 23 50
M  V30 55 1 27 51
M  V30 56 1 27 52
M  V30 57 1 28 53
M  V30 58 1 28 54
M  V30 59 1 29 55
M  V30 60 1 29 56
M  V30 61 1 30 57
M  V30 62 1 30 58
M  V30 END BOND
M  V30 END CTAB
M  END
>  <Dataset>  (897) 
ChEMBL_Kinases

>  <Ligand_Instance>  (897) 
nan

>  <PDB_ID>  (897) 
nan

>  <Standardized_SMILES>  (897) 
CCOc1cc(-c2nncn2C)ccc1Nc1ncc2cc(C)nc(N3CCCC3)c2n1

>  <Name>  (897) 
nan

>  <Pocket>  (897) 
nan

>  <ATP_Site>  (897) 
nan

>  <Peripheral>  (897) 
nan

>  <Num_H_Atoms_ProtBoundConf>  (897) 
nan

>  <Num_Resolved_Atoms>  (897) 
nan

>  <Num_Not_Resolved_Atoms>  (897) 
nan

$$$$
CHEMBL4248852
     RDKit          3D

  0  0  0  0  0  0  0  0  0  0999 V3000
M  V30 BEGIN CTAB
M  V30 COUNTS 54 57 0 0 0
M  V30 BEGIN ATOM
M  V30 1 O 0.331904 -2.210063 -0.025647 0
M  V30 2 C -0.358366 -2.410399 1.007118 0
M  V30 3 C 0.627150 -2.057788 2.048436 0
M  V30 4 C 1.918641 -1.646432 1.443661 0
M  V30 5 C 2.973474 -2.486781 1.163188 0
M  V30 6 C 4.150800 -2.025913 0.596332 0
M  V30 7 C 4.254194 -0.666699 0.307401 0
M  V30 8 C 3.207978 0.229340 0.574298 0
M  V30 9 O 3.580225 1.474673 0.195058 0
M  V30 10 C 2.924083 2.687033 0.252030 0
M  V30 11 C 2.536953 3.191558 1.597059 0
M  V30 12 N 1.846861 4.488955 1.508808 0
M  V30 13 C 1.497913 4.907592 2.850259 0
M  V30 14 C 0.035815 4.578891 3.151412 0
M  V30 15 O -0.838410 5.285071 2.360799 0
M  V30 16 C -0.434403 5.299586 1.047178 0
M  V30 17 C 0.656696 4.299382 0.732634 0
M  V30 18 C 2.076496 -0.315082 1.137152 0
M  V30 19 N -1.648707 -2.826153 1.368457 0
M  V30 20 C -2.634143 -3.179583 0.263848 0
M  V30 21 N -2.789176 -4.209515 -0.209273 0
M  V30 22 C -3.603439 -4.610840 -1.155616 0
M  V30 23 C -3.751777 -5.943661 -1.715012 0
M  V30 24 C -2.985748 -6.996186 -1.263819 0
M  V30 25 C -3.070839 -8.284132 -1.746093 0
M  V30 26 N -3.969615 -8.519212 -2.727605 0
M  V30 27 C -4.752245 -7.530660 -3.215226 0
M  V30 28 C -4.641755 -6.256996 -2.711636 0
M  V30 29 C -4.415237 -3.525137 -1.642516 0
M  V30 30 S -3.809314 -2.073155 -0.583996 0
M  V30 31 H 0.854489 -2.903268 2.728632 0
M  V30 32 H 0.298997 -1.227989 2.709862 0
M  V30 33 H 2.834749 -3.523958 1.408322 0
M  V30 34 H 4.896733 -2.766336 0.424520 0
M  V30 35 H 5.224685 -0.456567 -0.128976 0
M  V30 36 H 1.977448 2.701483 -0.370451 0
M  V30 37 H 3.532401 3.512532 -0.227105 0
M  V30 38 H 3.472190 3.414967 2.191604 0
M  V30 39 H 1.940721 2.506312 2.191018 0
M  V30 40 H 2.077012 4.350458 3.610875 0
M  V30 41 H 1.588818 6.000924 3.003922 0
M  V30 42 H -0.143241 3.474970 3.093816 0
M  V30 43 H -0.125531 4.859789 4.211510 0
M  V30 44 H -1.304180 5.017794 0.392249 0
M  V30 45 H -0.104813 6.310380 0.779640 0
M  V30 46 H 0.909130 4.444199 -0.338159 0
M  V30 47 H 0.291779 3.269207 0.897777 0
M  V30 48 H 1.313214 0.427521 1.307578 0
M  V30 49 H -1.875070 -2.874791 2.362055 0
M  V30 50 H -2.248444 -6.827138 -0.465856 0
M  V30 51 H -2.439901 -9.066632 -1.348463 0
M  V30 52 H -5.467940 -7.748736 -4.006566 0
M  V30 53 H -5.273518 -5.507521 -3.120267 0
M  V30 54 H -5.254779 -3.578745 -2.507531 0
M  V30 END ATOM
M  V30 BEGIN BOND
M  V30 1 2 1 2
M  V30 2 1 2 3
M  V30 3 1 3 4
M  V30 4 2 4 5
M  V30 5 1 5 6
M  V30 6 2 6 7
M  V30 7 1 7 8
M  V30 8 1 8 9
M  V30 9 1 9 10
M  V30 10 1 10 11
M  V30 11 1 11 12
M  V30 12 1 12 13
M  V30 13 1 13 14
M  V30 14 1 14 15
M  V30 15 1 15 16
M  V30 16 1 16 17
M  V30 17 2 8 18
M  V30 18 1 2 19
M  V30 19 1 19 20
M  V30 20 2 20 21
M  V30 21 1 21 22
M  V30 22 1 22 23
M  V30 23 2 23 24
M  V30 24 1 24 25
M  V30 25 2 25 26
M  V30 26 1 26 27
M  V30 27 2 27 28
M  V30 28 2 22 29
M  V30 29 1 29 30
M  V30 30 1 18 4
M  V30 31 1 30 20
M  V30 32 1 17 12
M  V30 33 1 28 23
M  V30 34 1 3 31
M  V30 35 1 3 32
M  V30 36 1 5 33
M  V30 37 1 6 34
M  V30 38 1 7 35
M  V30 39 1 10 36
M  V30 40 1 10 37
M  V30 41 1 11 38
M  V30 42 1 11 39
M  V30 43 1 13 40
M  V30 44 1 13 41
M  V30 45 1 14 42
M  V30 46 1 14 43
M  V30 47 1 16 44
M  V30 48 1 16 45
M  V30 49 1 17 46
M  V30 50 1 17 47
M  V30 51 1 18 48
M  V30 52 1 19 49
M  V30 53 1 24 50
M  V30 54 1 25 51
M  V30 55 1 27 52
M  V30 56 1 28 53
M  V30 57 1 29 54
M  V30 END BOND
M  V30 END CTAB
M  END
>  <Dataset>  (898) 
ChEMBL_Kinases

>  <Ligand_Instance>  (898) 
nan

>  <PDB_ID>  (898) 
nan

>  <Standardized_SMILES>  (898) 
O=C(Cc1cccc(OCCN2CCOCC2)c1)Nc1nc(-c2ccncc2)cs1

>  <Name>  (898) 
nan

>  <Pocket>  (898) 
nan

>  <ATP_Site>  (898) 
nan

>  <Peripheral>  (898) 
nan

>  <Num_H_Atoms_ProtBoundConf>  (898) 
nan

>  <Num_Resolved_Atoms>  (898) 
nan

>  <Num_Not_Resolved_Atoms>  (898) 
nan

$$$$
CHEMBL4248798
     RDKit          3D

  0  0  0  0  0  0  0  0  0  0999 V3000
M  V30 BEGIN CTAB
M  V30 COUNTS 62 65 0 0 0
M  V30 BEGIN ATOM
M  V30 1 C 3.951710 2.383656 6.921232 0
M  V30 2 O 3.139481 1.970863 5.864013 0
M  V30 3 C 3.539526 1.852168 4.546521 0
M  V30 4 C 4.826701 2.138564 4.123180 0
M  V30 5 C 5.202232 2.011029 2.794475 0
M  V30 6 O 6.513298 2.315008 2.433760 0
M  V30 7 C 4.259778 1.584708 1.867483 0
M  V30 8 C 4.627643 1.442661 0.465950 0
M  V30 9 N 3.644824 1.004906 -0.464568 0
M  V30 10 O 5.817619 1.721276 0.154271 0
M  V30 11 C 2.991899 1.308604 2.318548 0
M  V30 12 O 1.961101 0.891474 1.584085 0
M  V30 13 C 0.917115 0.734450 2.356538 0
M  V30 14 C -0.431714 0.297401 2.017332 0
M  V30 15 O -1.395855 0.168707 2.812121 0
M  V30 16 N -0.699664 -0.015987 0.671172 0
M  V30 17 C -1.961529 -0.473700 0.076748 0
M  V30 18 C -2.464122 0.446346 -0.991059 0
M  V30 19 C -3.173458 -0.414217 -2.035131 0
M  V30 20 N -2.147090 -1.064429 -2.788379 0
M  V30 21 C -2.598593 -1.935073 -3.829047 0
M  V30 22 C -3.444730 -3.059530 -3.370247 0
M  V30 23 C -4.820828 -2.969634 -3.277548 0
M  V30 24 C -5.621769 -4.024716 -2.846553 0
M  V30 25 C -5.006355 -5.217339 -2.495656 0
M  V30 26 C -3.622331 -5.341695 -2.577287 0
M  V30 27 C -2.990465 -6.625073 -2.197041 0
M  V30 28 F -3.887484 -7.678901 -2.297575 0
M  V30 29 F -2.503714 -6.607540 -0.896914 0
M  V30 30 F -1.906294 -6.912291 -2.999756 0
M  V30 31 C -2.874794 -4.266448 -3.010372 0
M  V30 32 C -1.115335 -1.580055 -1.946673 0
M  V30 33 C -1.645742 -1.812531 -0.564466 0
M  V30 34 C 1.229885 1.050626 3.662840 0
M  V30 35 C 0.531845 1.080724 4.952014 0
M  V30 36 C 2.579574 1.426153 3.649384 0
M  V30 37 H 5.001499 2.103099 6.865886 0
M  V30 38 H 3.553283 1.908329 7.853451 0
M  V30 39 H 3.929413 3.475831 7.125112 0
M  V30 40 H 5.534511 2.470470 4.886564 0
M  V30 41 H 7.226632 1.611055 2.261922 0
M  V30 42 H 3.076555 1.843410 -0.741644 0
M  V30 43 H 3.212547 1.953804 -0.601056 0
M  V30 44 H 0.053959 0.066772 -0.050170 0
M  V30 45 H -2.759839 -0.561130 0.842013 0
M  V30 46 H -1.675316 1.071585 -1.446637 0
M  V30 47 H -3.238295 1.144618 -0.565580 0
M  V30 48 H -3.846318 0.211545 -2.622052 0
M  V30 49 H -3.785801 -1.162605 -1.466022 0
M  V30 50 H -1.693500 -2.277905 -4.375472 0
M  V30 51 H -3.143680 -1.289107 -4.566427 0
M  V30 52 H -5.315255 -2.043676 -3.548399 0
M  V30 53 H -6.698686 -3.877415 -2.800201 0
M  V30 54 H -5.628389 -6.059402 -2.153453 0
M  V30 55 H -1.800458 -4.429976 -3.050995 0
M  V30 56 H -0.334871 -0.784662 -1.866299 0
M  V30 57 H -0.576036 -2.453697 -2.363436 0
M  V30 58 H -2.506259 -2.498938 -0.534293 0
M  V30 59 H -0.819432 -2.323635 0.001471 0
M  V30 60 H -0.421668 0.518464 4.897203 0
M  V30 61 H 0.300614 2.143112 5.247508 0
M  V30 62 H 1.131247 0.587648 5.771320 0
M  V30 END ATOM
M  V30 BEGIN BOND
M  V30 1 1 1 2
M  V30 2 1 2 3
M  V30 3 2 3 4
M  V30 4 1 4 5
M  V30 5 1 5 6
M  V30 6 2 5 7
M  V30 7 1 7 8
M  V30 8 1 8 9
M  V30 9 2 8 10
M  V30 10 1 7 11
M  V30 11 1 11 12
M  V30 12 1 12 13
M  V30 13 1 13 14
M  V30 14 2 14 15
M  V30 15 1 14 16
M  V30 16 1 16 17
M  V30 17 1 17 18
M  V30 18 1 18 19
M  V30 19 1 19 20
M  V30 20 1 20 21
M  V30 21 1 21 22
M  V30 22 2 22 23
M  V30 23 1 23 24
M  V30 24 2 24 25
M  V30 25 1 25 26
M  V30 26 1 26 27
M  V30 27 1 27 28
M  V30 28 1 27 29
M  V30 29 1 27 30
M  V30 30 2 26 31
M  V30 31 1 20 32
M  V30 32 1 32 33
M  V30 33 2 13 34
M  V30 34 1 34 35
M  V30 35 1 34 36
M  V30 36 1 36 3
M  V30 37 2 36 11
M  V30 38 1 33 17
M  V30 39 1 31 22
M  V30 40 1 1 37
M  V30 41 1 1 38
M  V30 42 1 1 39
M  V30 43 1 4 40
M  V30 44 1 6 41
M  V30 45 1 9 42
M  V30 46 1 9 43
M  V30 47 1 16 44
M  V30 48 1 17 45
M  V30 49 1 18 46
M  V30 50 1 18 47
M  V30 51 1 19 48
M  V30 52 1 19 49
M  V30 53 1 21 50
M  V30 54 1 21 51
M  V30 55 1 23 52
M  V30 56 1 24 53
M  V30 57 1 25 54
M  V30 58 1 31 55
M  V30 59 1 32 56
M  V30 60 1 32 57
M  V30 61 1 33 58
M  V30 62 1 33 59
M  V30 63 1 35 60
M  V30 64 1 35 61
M  V30 65 1 35 62
M  V30 END BOND
M  V30 END CTAB
M  END
>  <Dataset>  (899) 
ChEMBL_Kinases

>  <Ligand_Instance>  (899) 
nan

>  <PDB_ID>  (899) 
nan

>  <Standardized_SMILES>  (899) 
COc1cc(O)c(C(N)=O)c2oc(C(=O)NC3CCN(Cc4cccc(C(F)(F)F)c4)CC3)c(C)c12

>  <Name>  (899) 
nan

>  <Pocket>  (899) 
nan

>  <ATP_Site>  (899) 
nan

>  <Peripheral>  (899) 
nan

>  <Num_H_Atoms_ProtBoundConf>  (899) 
nan

>  <Num_Resolved_Atoms>  (899) 
nan

>  <Num_Not_Resolved_Atoms>  (899) 
nan

$$$$
CHEMBL4763627
     RDKit          3D

  0  0  0  0  0  0  0  0  0  0999 V3000
M  V30 BEGIN CTAB
M  V30 COUNTS 40 43 0 0 0
M  V30 BEGIN ATOM
M  V30 1 C 2.182050 -5.497271 3.072234 0
M  V30 2 O 2.030595 -4.120888 2.743205 0
M  V30 3 C 2.738650 -3.495474 1.729303 0
M  V30 4 C 2.481143 -2.150236 1.529527 0
M  V30 5 C 3.142824 -1.426231 0.531586 0
M  V30 6 C 2.875162 -0.007349 0.316456 0
M  V30 7 C 3.767041 1.032592 0.114532 0
M  V30 8 N 3.071787 2.186348 -0.040993 0
M  V30 9 N 1.768163 1.949231 0.049781 0
M  V30 10 C 0.623278 2.655390 -0.016177 0
M  V30 11 C -0.621150 2.076991 0.126547 0
M  V30 12 O -1.769884 2.842166 0.051331 0
M  V30 13 C -1.705346 4.235700 -0.173176 0
M  V30 14 C -0.746335 0.723721 0.347215 0
M  V30 15 C -2.005978 0.008651 0.512312 0
M  V30 16 C -3.301010 0.479781 0.489798 0
M  V30 17 C -4.179794 -0.588850 0.695786 0
M  V30 18 C -5.679038 -0.542034 0.749197 0
M  V30 19 N -3.343158 -1.639411 0.829256 0
M  V30 20 O -2.121946 -1.278636 0.722183 0
M  V30 21 N 0.419549 0.056124 0.406172 0
M  V30 22 C 1.629196 0.628036 0.265897 0
M  V30 23 C 4.060165 -2.116829 -0.239446 0
M  V30 24 C 4.267976 -3.458464 0.014320 0
M  V30 25 N 3.633295 -4.157056 0.973032 0
M  V30 26 H 1.479536 -6.129918 2.457107 0
M  V30 27 H 3.246939 -5.820001 2.941910 0
M  V30 28 H 1.936915 -5.583576 4.155303 0
M  V30 29 H 1.773649 -1.584441 2.112201 0
M  V30 30 H 4.860543 0.919168 0.088141 0
M  V30 31 H 0.731057 3.717550 -0.189843 0
M  V30 32 H -2.670730 4.737011 0.017763 0
M  V30 33 H -1.362275 4.486867 -1.205768 0
M  V30 34 H -0.925432 4.677553 0.511345 0
M  V30 35 H -3.619132 1.484962 0.342509 0
M  V30 36 H -6.023022 -0.991291 1.706005 0
M  V30 37 H -5.968571 0.515262 0.748661 0
M  V30 38 H -6.093679 -1.087511 -0.120274 0
M  V30 39 H 4.616191 -1.611775 -1.040688 0
M  V30 40 H 5.004257 -3.974309 -0.618423 0
M  V30 END ATOM
M  V30 BEGIN BOND
M  V30 1 1 1 2
M  V30 2 1 2 3
M  V30 3 2 3 4
M  V30 4 1 4 5
M  V30 5 1 5 6
M  V30 6 1 6 7
M  V30 7 2 7 8
M  V30 8 1 8 9
M  V30 9 1 9 10
M  V30 10 2 10 11
M  V30 11 1 11 12
M  V30 12 1 12 13
M  V30 13 1 11 14
M  V30 14 1 14 15
M  V30 15 2 15 16
M  V30 16 1 16 17
M  V30 17 1 17 18
M  V30 18 2 17 19
M  V30 19 1 19 20
M  V30 20 2 14 21
M  V30 21 1 21 22
M  V30 22 2 5 23
M  V30 23 1 23 24
M  V30 24 2 24 25
M  V30 25 1 25 3
M  V30 26 2 22 6
M  V30 27 1 22 9
M  V30 28 1 20 15
M  V30 29 1 1 26
M  V30 30 1 1 27
M  V30 31 1 1 28
M  V30 32 1 4 29
M  V30 33 1 7 30
M  V30 34 1 10 31
M  V30 35 1 13 32
M  V30 36 1 13 33
M  V30 37 1 13 34
M  V30 38 1 16 35
M  V30 39 1 18 36
M  V30 40 1 18 37
M  V30 41 1 18 38
M  V30 42 1 23 39
M  V30 43 1 24 40
M  V30 END BOND
M  V30 END CTAB
M  END
>  <Dataset>  (900) 
ChEMBL_Kinases

>  <Ligand_Instance>  (900) 
nan

>  <PDB_ID>  (900) 
nan

>  <Standardized_SMILES>  (900) 
COc1cc(-c2cnn3cc(OC)c(-c4cc(C)no4)nc23)ccn1

>  <Name>  (900) 
nan

>  <Pocket>  (900) 
nan

>  <ATP_Site>  (900) 
nan

>  <Peripheral>  (900) 
nan

>  <Num_H_Atoms_ProtBoundConf>  (900) 
nan

>  <Num_Resolved_Atoms>  (900) 
nan

>  <Num_Not_Resolved_Atoms>  (900) 
nan

$$$$
CHEMBL424815
     RDKit          3D

  0  0  0  0  0  0  0  0  0  0999 V3000
M  V30 BEGIN CTAB
M  V30 COUNTS 54 57 0 0 0
M  V30 BEGIN ATOM
M  V30 1 C 0.593593 -4.315772 3.136328 0
M  V30 2 N 1.970201 -4.478537 3.468747 0
M  V30 3 C 2.795516 -4.294639 2.327361 0
M  V30 4 C 3.964688 -3.425291 2.679484 0
M  V30 5 N 3.483079 -2.231519 3.325092 0
M  V30 6 C 2.638879 -1.402308 2.529532 0
M  V30 7 C 3.458866 -0.792934 1.408201 0
M  V30 8 C 2.595349 0.095964 0.530205 0
M  V30 9 N 2.003160 1.199782 1.224064 0
M  V30 10 C 1.137358 1.892885 0.296559 0
M  V30 11 N 1.523114 2.835188 -0.599100 0
M  V30 12 C 0.618749 3.410223 -1.409623 0
M  V30 13 C -0.686490 2.995741 -1.278930 0
M  V30 14 C -1.116880 2.057182 -0.398210 0
M  V30 15 C -2.459001 1.539908 -0.186018 0
M  V30 16 C -2.866339 1.436586 1.210191 0
M  V30 17 N -3.196402 1.340222 2.326425 0
M  V30 18 C -3.316374 1.170784 -1.105955 0
M  V30 19 N -3.142472 1.183730 -2.516090 0
M  V30 20 C -4.258662 0.747230 -3.258306 0
M  V30 21 C -4.362597 0.669177 -4.644830 0
M  V30 22 C -5.548434 0.222934 -5.189203 0
M  V30 23 C -6.654144 -0.157477 -4.434316 0
M  V30 24 C -6.545464 -0.079011 -3.068755 0
M  V30 25 C -5.376803 0.360998 -2.548906 0
M  V30 26 S -4.969144 0.549091 -0.792440 0
M  V30 27 N -0.148373 1.515554 0.392828 0
M  V30 28 C 2.926580 -2.509527 4.635541 0
M  V30 29 C 2.405365 -3.912754 4.693481 0
M  V30 30 H 0.263061 -3.315312 3.511934 0
M  V30 31 H 0.501639 -4.355349 2.011055 0
M  V30 32 H -0.019226 -5.143520 3.550466 0
M  V30 33 H 3.161032 -5.269540 1.909272 0
M  V30 34 H 2.212062 -3.747254 1.540314 0
M  V30 35 H 4.534680 -3.147134 1.779920 0
M  V30 36 H 4.629836 -3.945688 3.432025 0
M  V30 37 H 2.290901 -0.568147 3.209755 0
M  V30 38 H 1.709452 -1.858480 2.162913 0
M  V30 39 H 3.881322 -1.558011 0.733360 0
M  V30 40 H 4.291739 -0.241128 1.860637 0
M  V30 41 H 1.812692 -0.515270 0.018502 0
M  V30 42 H 3.264627 0.481322 -0.268633 0
M  V30 43 H 2.162337 1.466367 2.225248 0
M  V30 44 H 0.916281 4.154250 -2.117854 0
M  V30 45 H -1.419263 3.444328 -1.902996 0
M  V30 46 H -2.232748 1.496356 -2.918279 0
M  V30 47 H -3.585450 0.929556 -5.353533 0
M  V30 48 H -5.688928 0.140413 -6.276498 0
M  V30 49 H -7.587225 -0.507402 -4.851910 0
M  V30 50 H -7.372180 -0.362769 -2.462697 0
M  V30 51 H 2.211574 -1.742763 4.967939 0
M  V30 52 H 3.783123 -2.437136 5.362304 0
M  V30 53 H 1.523718 -3.963772 5.397662 0
M  V30 54 H 3.178982 -4.580780 5.134436 0
M  V30 END ATOM
M  V30 BEGIN BOND
M  V30 1 1 1 2
M  V30 2 1 2 3
M  V30 3 1 3 4
M  V30 4 1 4 5
M  V30 5 1 5 6
M  V30 6 1 6 7
M  V30 7 1 7 8
M  V30 8 1 8 9
M  V30 9 1 9 10
M  V30 10 2 10 11
M  V30 11 1 11 12
M  V30 12 2 12 13
M  V30 13 1 13 14
M  V30 14 1 14 15
M  V30 15 1 15 16
M  V30 16 3 16 17
M  V30 17 2 15 18
M  V30 18 1 18 19
M  V30 19 1 19 20
M  V30 20 2 20 21
M  V30 21 1 21 22
M  V30 22 2 22 23
M  V30 23 1 23 24
M  V30 24 2 24 25
M  V30 25 1 25 26
M  V30 26 2 14 27
M  V30 27 1 5 28
M  V30 28 1 28 29
M  V30 29 1 29 2
M  V30 30 1 27 10
M  V30 31 1 26 18
M  V30 32 1 25 20
M  V30 33 1 1 30
M  V30 34 1 1 31
M  V30 35 1 1 32
M  V30 36 1 3 33
M  V30 37 1 3 34
M  V30 38 1 4 35
M  V30 39 1 4 36
M  V30 40 1 6 37
M  V30 41 1 6 38
M  V30 42 1 7 39
M  V30 43 1 7 40
M  V30 44 1 8 41
M  V30 45 1 8 42
M  V30 46 1 9 43
M  V30 47 1 12 44
M  V30 48 1 13 45
M  V30 49 1 19 46
M  V30 50 1 21 47
M  V30 51 1 22 48
M  V30 52 1 23 49
M  V30 53 1 24 50
M  V30 54 1 28 51
M  V30 55 1 28 52
M  V30 56 1 29 53
M  V30 57 1 29 54
M  V30 END BOND
M  V30 END CTAB
M  END
>  <Dataset>  (901) 
ChEMBL_Kinases

>  <Ligand_Instance>  (901) 
nan

>  <PDB_ID>  (901) 
nan

>  <Standardized_SMILES>  (901) 
CN1CCN(CCCNc2nccc(/C(C#N)=C3\Nc4ccccc4S3)n2)CC1

>  <Name>  (901) 
nan

>  <Pocket>  (901) 
nan

>  <ATP_Site>  (901) 
nan

>  <Peripheral>  (901) 
nan

>  <Num_H_Atoms_ProtBoundConf>  (901) 
nan

>  <Num_Resolved_Atoms>  (901) 
nan

>  <Num_Not_Resolved_Atoms>  (901) 
nan

$$$$
CHEMBL4249314
     RDKit          3D

  0  0  0  0  0  0  0  0  0  0999 V3000
M  V30 BEGIN CTAB
M  V30 COUNTS 59 62 0 0 0
M  V30 BEGIN ATOM
M  V30 1 O 2.098576 -1.683119 2.078807 0
M  V30 2 C 1.175227 -1.434616 2.893474 0
M  V30 3 C 1.336846 0.032468 3.164176 0
M  V30 4 C 2.471770 0.602948 2.395182 0
M  V30 5 C 3.793024 0.689520 2.775290 0
M  V30 6 C 4.749071 1.250736 1.953959 0
M  V30 7 C 4.361687 1.747530 0.696020 0
M  V30 8 C 3.023008 1.685771 0.255211 0
M  V30 9 O 3.041735 2.239000 -0.953620 0
M  V30 10 C 2.187010 2.540741 -1.951968 0
M  V30 11 C 1.084144 3.511987 -1.733875 0
M  V30 12 C 0.054320 3.215565 -0.726878 0
M  V30 13 N -0.702805 2.005483 -0.970523 0
M  V30 14 C -1.652970 1.901742 0.135709 0
M  V30 15 C -2.545220 0.709544 0.054816 0
M  V30 16 C -3.172417 0.495020 -1.294848 0
M  V30 17 C -2.117236 0.680739 -2.355461 0
M  V30 18 C -1.467036 2.053964 -2.177092 0
M  V30 19 C 2.168819 1.107860 1.154835 0
M  V30 20 N 0.140915 -2.132005 3.539349 0
M  V30 21 C 0.038269 -3.575603 3.231786 0
M  V30 22 N -0.559028 -4.154954 2.395127 0
M  V30 23 C -0.560803 -5.473906 2.232612 0
M  V30 24 C -1.326574 -6.132378 1.172563 0
M  V30 25 C -2.112880 -5.458638 0.246578 0
M  V30 26 C -2.810007 -6.140991 -0.728208 0
M  V30 27 N -2.767733 -7.480488 -0.835490 0
M  V30 28 C -2.023531 -8.190547 0.031962 0
M  V30 29 C -1.332727 -7.501328 0.999792 0
M  V30 30 C 0.209892 -6.216209 3.131838 0
M  V30 31 S 0.906421 -4.877741 4.188105 0
M  V30 32 H 1.632937 0.093133 4.228970 0
M  V30 33 H 0.421155 0.573867 2.925444 0
M  V30 34 H 3.989301 0.277646 3.764025 0
M  V30 35 H 5.718081 1.231758 2.412226 0
M  V30 36 H 5.281270 2.136244 0.239889 0
M  V30 37 H 2.817535 3.011681 -2.789207 0
M  V30 38 H 1.822043 1.603856 -2.473652 0
M  V30 39 H 1.591169 4.471685 -1.394201 0
M  V30 40 H 0.672519 3.812023 -2.732077 0
M  V30 41 H 0.457597 3.273484 0.282806 0
M  V30 42 H -0.694365 4.068661 -0.779537 0
M  V30 43 H -1.121489 1.826752 1.115262 0
M  V30 44 H -2.308855 2.804830 0.125758 0
M  V30 45 H -3.404179 0.919383 0.753767 0
M  V30 46 H -2.121253 -0.234190 0.404833 0
M  V30 47 H -3.529741 -0.553422 -1.364357 0
M  V30 48 H -3.989995 1.205765 -1.524777 0
M  V30 49 H -2.523917 0.665708 -3.380902 0
M  V30 50 H -1.314559 -0.074214 -2.266584 0
M  V30 51 H -0.861993 2.217355 -3.087009 0
M  V30 52 H -2.278353 2.814316 -2.043674 0
M  V30 53 H 1.188051 1.074793 0.771489 0
M  V30 54 H -0.475873 -1.621763 4.172538 0
M  V30 55 H -2.160077 -4.379403 0.313808 0
M  V30 56 H -3.419953 -5.579659 -1.440312 0
M  V30 57 H -1.984129 -9.269290 -0.048399 0
M  V30 58 H -0.753659 -8.129632 1.667143 0
M  V30 59 H 0.329834 -7.274399 3.157051 0
M  V30 END ATOM
M  V30 BEGIN BOND
M  V30 1 2 1 2
M  V30 2 1 2 3
M  V30 3 1 3 4
M  V30 4 2 4 5
M  V30 5 1 5 6
M  V30 6 2 6 7
M  V30 7 1 7 8
M  V30 8 1 8 9
M  V30 9 1 9 10
M  V30 10 1 10 11
M  V30 11 1 11 12
M  V30 12 1 12 13
M  V30 13 1 13 14
M  V30 14 1 14 15
M  V30 15 1 15 16
M  V30 16 1 16 17
M  V30 17 1 17 18
M  V30 18 2 8 19
M  V30 19 1 2 20
M  V30 20 1 20 21
M  V30 21 2 21 22
M  V30 22 1 22 23
M  V30 23 1 23 24
M  V30 24 2 24 25
M  V30 25 1 25 26
M  V30 26 2 26 27
M  V30 27 1 27 28
M  V30 28 2 28 29
M  V30 29 2 23 30
M  V30 30 1 30 31
M  V30 31 1 19 4
M  V30 32 1 31 21
M  V30 33 1 18 13
M  V30 34 1 29 24
M  V30 35 1 3 32
M  V30 36 1 3 33
M  V30 37 1 5 34
M  V30 38 1 6 35
M  V30 39 1 7 36
M  V30 40 1 10 37
M  V30 41 1 10 38
M  V30 42 1 11 39
M  V30 43 1 11 40
M  V30 44 1 12 41
M  V30 45 1 12 42
M  V30 46 1 14 43
M  V30 47 1 14 44
M  V30 48 1 15 45
M  V30 49 1 15 46
M  V30 50 1 16 47
M  V30 51 1 16 48
M  V30 52 1 17 49
M  V30 53 1 17 50
M  V30 54 1 18 51
M  V30 55 1 18 52
M  V30 56 1 19 53
M  V30 57 1 20 54
M  V30 58 1 25 55
M  V30 59 1 26 56
M  V30 60 1 28 57
M  V30 61 1 29 58
M  V30 62 1 30 59
M  V30 END BOND
M  V30 END CTAB
M  END
>  <Dataset>  (902) 
ChEMBL_Kinases

>  <Ligand_Instance>  (902) 
nan

>  <PDB_ID>  (902) 
nan

>  <Standardized_SMILES>  (902) 
O=C(Cc1cccc(OCCCN2CCCCC2)c1)Nc1nc(-c2ccncc2)cs1

>  <Name>  (902) 
nan

>  <Pocket>  (902) 
nan

>  <ATP_Site>  (902) 
nan

>  <Peripheral>  (902) 
nan

>  <Num_H_Atoms_ProtBoundConf>  (902) 
nan

>  <Num_Resolved_Atoms>  (902) 
nan

>  <Num_Not_Resolved_Atoms>  (902) 
nan

$$$$
CHEMBL425909
     RDKit          3D

  0  0  0  0  0  0  0  0  0  0999 V3000
M  V30 BEGIN CTAB
M  V30 COUNTS 47 50 0 0 0
M  V30 BEGIN ATOM
M  V30 1 C 1.916413 -3.515194 6.167974 0
M  V30 2 C 2.214309 -2.045792 6.358334 0
M  V30 3 C 1.917773 -1.286438 5.055949 0
M  V30 4 N 2.494319 -0.984047 4.094018 0
M  V30 5 C 2.000145 -0.303438 3.074239 0
M  V30 6 C 2.876324 -0.000054 1.919922 0
M  V30 7 C 2.466957 -0.557433 0.726127 0
M  V30 8 C 3.139393 -0.399143 -0.467599 0
M  V30 9 C 4.285108 0.367825 -0.430343 0
M  V30 10 F 5.022347 0.586227 -1.552671 0
M  V30 11 C 4.717876 0.937248 0.749255 0
M  V30 12 C 4.025599 0.764154 1.936158 0
M  V30 13 C 0.653983 0.086980 3.168715 0
M  V30 14 C -0.023969 0.849323 2.106432 0
M  V30 15 C 0.455433 2.114948 1.826509 0
M  V30 16 C -0.217711 2.780413 0.822276 0
M  V30 17 N -1.261701 2.237145 0.165726 0
M  V30 18 C -1.693637 1.021663 0.460815 0
M  V30 19 N -2.817436 0.541982 -0.308022 0
M  V30 20 C -2.324149 -0.125708 -1.448071 0
M  V30 21 O -1.076685 -0.188176 -1.595597 0
M  V30 22 C -3.150049 -0.753285 -2.475769 0
M  V30 23 C -2.521764 -1.372965 -3.535272 0
M  V30 24 C -3.218803 -1.991348 -4.551405 0
M  V30 25 C -4.584826 -1.995517 -4.515967 0
M  V30 26 C -5.241993 -1.383765 -3.469007 0
M  V30 27 C -4.528499 -0.769717 -2.460658 0
M  V30 28 C -1.090909 0.269838 1.449374 0
M  V30 29 S 0.203259 -0.612646 4.829623 0
M  V30 30 H 1.285352 -3.913212 7.010353 0
M  V30 31 H 1.281480 -3.606698 5.262200 0
M  V30 32 H 2.825473 -4.120795 5.995440 0
M  V30 33 H 1.631155 -1.587132 7.182741 0
M  V30 34 H 3.274933 -1.919859 6.566386 0
M  V30 35 H 1.562349 -1.175354 0.645036 0
M  V30 36 H 2.787497 -0.854361 -1.394525 0
M  V30 37 H 5.606216 1.543633 0.827477 0
M  V30 38 H 4.284962 1.168144 2.904632 0
M  V30 39 H 1.281862 2.583042 2.324065 0
M  V30 40 H 0.116769 3.791967 0.553498 0
M  V30 41 H -3.867800 0.596471 -0.181313 0
M  V30 42 H -1.435406 -1.406302 -3.625249 0
M  V30 43 H -2.706942 -2.475954 -5.381317 0
M  V30 44 H -5.162338 -2.478313 -5.308389 0
M  V30 45 H -6.334833 -1.354719 -3.385971 0
M  V30 46 H -5.015359 -0.291958 -1.643710 0
M  V30 47 H -1.462390 -0.715949 1.669177 0
M  V30 END ATOM
M  V30 BEGIN BOND
M  V30 1 1 1 2
M  V30 2 1 2 3
M  V30 3 2 3 4
M  V30 4 1 4 5
M  V30 5 1 5 6
M  V30 6 2 6 7
M  V30 7 1 7 8
M  V30 8 2 8 9
M  V30 9 1 9 10
M  V30 10 1 9 11
M  V30 11 2 11 12
M  V30 12 2 5 13
M  V30 13 1 13 14
M  V30 14 2 14 15
M  V30 15 1 15 16
M  V30 16 2 16 17
M  V30 17 1 17 18
M  V30 18 1 18 19
M  V30 19 1 19 20
M  V30 20 2 20 21
M  V30 21 1 20 22
M  V30 22 2 22 23
M  V30 23 1 23 24
M  V30 24 2 24 25
M  V30 25 1 25 26
M  V30 26 2 26 27
M  V30 27 2 18 28
M  V30 28 1 13 29
M  V30 29 1 29 3
M  V30 30 1 12 6
M  V30 31 1 28 14
M  V30 32 1 27 22
M  V30 33 1 1 30
M  V30 34 1 1 31
M  V30 35 1 1 32
M  V30 36 1 2 33
M  V30 37 1 2 34
M  V30 38 1 7 35
M  V30 39 1 8 36
M  V30 40 1 11 37
M  V30 41 1 12 38
M  V30 42 1 15 39
M  V30 43 1 16 40
M  V30 44 1 19 41
M  V30 45 1 23 42
M  V30 46 1 24 43
M  V30 47 1 25 44
M  V30 48 1 26 45
M  V30 49 1 27 46
M  V30 50 1 28 47
M  V30 END BOND
M  V30 END CTAB
M  END
>  <Dataset>  (903) 
ChEMBL_Kinases

>  <Ligand_Instance>  (903) 
nan

>  <PDB_ID>  (903) 
nan

>  <Standardized_SMILES>  (903) 
CCc1nc(-c2ccc(F)cc2)c(-c2ccnc(NC(=O)c3ccccc3)c2)s1

>  <Name>  (903) 
nan

>  <Pocket>  (903) 
nan

>  <ATP_Site>  (903) 
nan

>  <Peripheral>  (903) 
nan

>  <Num_H_Atoms_ProtBoundConf>  (903) 
nan

>  <Num_Resolved_Atoms>  (903) 
nan

>  <Num_Not_Resolved_Atoms>  (903) 
nan

$$$$
CHEMBL425902
     RDKit          3D

  0  0  0  0  0  0  0  0  0  0999 V3000
M  V30 BEGIN CTAB
M  V30 COUNTS 26 28 0 0 0
M  V30 BEGIN ATOM
M  V30 1 N -2.763038 -1.697921 3.723257 0
M  V30 2 C -2.193005 -1.183463 2.858940 0
M  V30 3 C -1.455386 -0.526871 1.784107 0
M  V30 4 C -0.246523 -0.910472 1.419909 0
M  V30 5 N 0.663317 -0.459698 0.436419 0
M  V30 6 C 1.872573 -1.148057 0.382172 0
M  V30 7 C 2.885663 -0.851799 -0.514510 0
M  V30 8 C 4.060563 -1.610505 -0.481448 0
M  V30 9 C 4.132192 -2.613477 0.451431 0
M  V30 10 C 3.168488 -2.949853 1.358433 0
M  V30 11 C 2.035208 -2.170188 1.279273 0
M  V30 12 S 0.549698 -2.292283 2.272026 0
M  V30 13 C -2.066294 0.610725 1.099753 0
M  V30 14 C -1.588401 1.892039 0.788326 0
M  V30 15 C -2.476946 2.691863 0.073786 0
M  V30 16 Br -1.706241 4.414386 -0.297760 0
M  V30 17 N -3.682955 2.274838 -0.284249 0
M  V30 18 C -4.141090 1.064101 0.008523 0
M  V30 19 Cl -5.755767 0.608007 -0.515807 0
M  V30 20 N -3.318941 0.230541 0.707113 0
M  V30 21 H 0.318322 0.340384 -0.151384 0
M  V30 22 H 2.859945 -0.063784 -1.270118 0
M  V30 23 H 4.907052 -1.453586 -1.145562 0
M  V30 24 H 5.054340 -3.212026 0.480736 0
M  V30 25 H 3.261937 -3.746120 2.077359 0
M  V30 26 H -0.598757 2.026290 1.177417 0
M  V30 END ATOM
M  V30 BEGIN BOND
M  V30 1 3 1 2
M  V30 2 1 2 3
M  V30 3 2 3 4
M  V30 4 1 4 5
M  V30 5 1 5 6
M  V30 6 2 6 7
M  V30 7 1 7 8
M  V30 8 2 8 9
M  V30 9 1 9 10
M  V30 10 2 10 11
M  V30 11 1 11 12
M  V30 12 1 3 13
M  V30 13 2 13 14
M  V30 14 1 14 15
M  V30 15 1 15 16
M  V30 16 2 15 17
M  V30 17 1 17 18
M  V30 18 1 18 19
M  V30 19 2 18 20
M  V30 20 1 12 4
M  V30 21 1 20 13
M  V30 22 1 11 6
M  V30 23 1 5 21
M  V30 24 1 7 22
M  V30 25 1 8 23
M  V30 26 1 9 24
M  V30 27 1 10 25
M  V30 28 1 14 26
M  V30 END BOND
M  V30 END CTAB
M  END
>  <Dataset>  (904) 
ChEMBL_Kinases

>  <Ligand_Instance>  (904) 
nan

>  <PDB_ID>  (904) 
nan

>  <Standardized_SMILES>  (904) 
N#C/C(=C1/Nc2ccccc2S1)c1cc(Br)nc(Cl)n1

>  <Name>  (904) 
nan

>  <Pocket>  (904) 
nan

>  <ATP_Site>  (904) 
nan

>  <Peripheral>  (904) 
nan

>  <Num_H_Atoms_ProtBoundConf>  (904) 
nan

>  <Num_Resolved_Atoms>  (904) 
nan

>  <Num_Not_Resolved_Atoms>  (904) 
nan

$$$$
CHEMBL4763408
     RDKit          3D

  0  0  0  0  0  0  0  0  0  0999 V3000
M  V30 BEGIN CTAB
M  V30 COUNTS 63 65 0 0 0
M  V30 BEGIN ATOM
M  V30 1 C 7.311866 0.564923 0.013369 0
M  V30 2 C 6.875786 2.006681 0.139056 0
M  V30 3 C 5.411919 2.148291 0.521206 0
M  V30 4 C 5.146085 1.506993 1.836617 0
M  V30 5 O 5.463454 0.145700 1.743443 0
M  V30 6 C 5.081339 3.608935 0.451811 0
M  V30 7 N 3.714842 3.927958 0.797207 0
M  V30 8 C 2.609029 3.417645 0.110691 0
M  V30 9 O 2.889861 2.638914 -0.850718 0
M  V30 10 O 1.258140 3.431007 0.064501 0
M  V30 11 C 0.438424 2.753075 -0.824062 0 CFG=2
M  V30 12 C -0.492902 3.700210 -1.585073 0
M  V30 13 C -1.839209 3.011890 -1.665563 0
M  V30 14 C -1.491795 1.572711 -1.352451 0 CFG=2
M  V30 15 C -2.684368 0.795438 -0.923056 0
M  V30 16 C -3.113322 -0.442650 -1.397015 0
M  V30 17 C -4.266812 -0.743268 -0.693942 0
M  V30 18 N -5.001549 -1.962539 -0.917940 0
M  V30 19 C -4.683838 -3.117395 -0.156926 0
M  V30 20 O -3.996108 -3.671805 0.723835 0
M  V30 21 C -5.376646 -4.429789 -0.306836 0
M  V30 22 C -4.839854 -5.433728 0.623967 0
M  V30 23 C -3.819590 -6.325881 0.380590 0
M  V30 24 C -3.288914 -7.274724 1.254475 0
M  V30 25 C -3.905699 -7.276222 2.520135 0
M  V30 26 O -3.354946 -8.232969 3.368819 0
M  V30 27 C -3.776632 -8.455330 4.692127 0
M  V30 28 N -4.902033 -6.413453 2.773690 0
M  V30 29 C -5.379681 -5.524922 1.913318 0
M  V30 30 N -4.493557 0.297816 0.163369 0
M  V30 31 N -3.555468 1.200744 0.021081 0
M  V30 32 C -0.547482 1.809062 -0.168079 0
M  V30 33 H 8.213748 0.477726 -0.654099 0
M  V30 34 H 7.650610 0.172081 0.990127 0
M  V30 35 H 6.529095 -0.058862 -0.470601 0
M  V30 36 H 7.484641 2.525979 0.910680 0
M  V30 37 H 7.058908 2.511211 -0.852923 0
M  V30 38 H 4.853476 1.556253 -0.251290 0
M  V30 39 H 5.715159 1.976624 2.676255 0
M  V30 40 H 4.066258 1.568936 2.091848 0
M  V30 41 H 4.814498 -0.322067 1.164957 0
M  V30 42 H 5.311790 3.972566 -0.592139 0
M  V30 43 H 5.797534 4.158668 1.091347 0
M  V30 44 H 3.298774 4.551300 1.560555 0
M  V30 45 H 0.970528 2.138223 -1.577718 0
M  V30 46 H -0.061740 3.902625 -2.576056 0
M  V30 47 H -0.525520 4.651877 -1.015914 0
M  V30 48 H -2.461013 3.368026 -0.801569 0
M  V30 49 H -2.373131 3.162309 -2.600030 0
M  V30 50 H -0.932852 1.075175 -2.159566 0
M  V30 51 H -2.582778 -0.972448 -2.152952 0
M  V30 52 H -5.779811 -2.097686 -1.613041 0
M  V30 53 H -6.461222 -4.343383 -0.230961 0
M  V30 54 H -5.139755 -4.789218 -1.340268 0
M  V30 55 H -3.389645 -6.263490 -0.624508 0
M  V30 56 H -2.484020 -7.922486 0.945923 0
M  V30 57 H -2.949003 -8.873266 5.314464 0
M  V30 58 H -4.628522 -9.147738 4.782451 0
M  V30 59 H -4.034636 -7.475130 5.192719 0
M  V30 60 H -6.207675 -4.869017 2.241311 0
M  V30 61 H -3.567579 2.055673 0.590382 0
M  V30 62 H -1.128394 2.311210 0.594639 0
M  V30 63 H -0.103528 0.832441 0.114622 0
M  V30 END ATOM
M  V30 BEGIN BOND
M  V30 1 1 1 2
M  V30 2 1 2 3
M  V30 3 1 3 4
M  V30 4 1 4 5
M  V30 5 1 3 6
M  V30 6 1 6 7
M  V30 7 1 7 8
M  V30 8 2 8 9
M  V30 9 1 8 10
M  V30 10 1 10 11
M  V30 11 1 11 12
M  V30 12 1 12 13
M  V30 13 1 13 14
M  V30 14 1 14 15
M  V30 15 2 15 16
M  V30 16 1 16 17
M  V30 17 1 17 18
M  V30 18 1 18 19
M  V30 19 2 19 20
M  V30 20 1 19 21
M  V30 21 1 21 22
M  V30 22 2 22 23
M  V30 23 1 23 24
M  V30 24 2 24 25
M  V30 25 1 25 26
M  V30 26 1 26 27
M  V30 27 1 25 28
M  V30 28 2 28 29
M  V30 29 2 17 30
M  V30 30 1 30 31
M  V30 31 1 14 32
M  V30 32 1 32 11
M  V30 33 1 31 15
M  V30 34 1 29 22
M  V30 35 1 1 33
M  V30 36 1 1 34
M  V30 37 1 1 35
M  V30 38 1 2 36
M  V30 39 1 2 37
M  V30 40 1 3 38
M  V30 41 1 4 39
M  V30 42 1 4 40
M  V30 43 1 5 41
M  V30 44 1 6 42
M  V30 45 1 6 43
M  V30 46 1 7 44
M  V30 47 1 11 45 CFG=3
M  V30 48 1 12 46
M  V30 49 1 12 47
M  V30 50 1 13 48
M  V30 51 1 13 49
M  V30 52 1 14 50 CFG=3
M  V30 53 1 16 51
M  V30 54 1 18 52
M  V30 55 1 21 53
M  V30 56 1 21 54
M  V30 57 1 23 55
M  V30 58 1 24 56
M  V30 59 1 27 57
M  V30 60 1 27 58
M  V30 61 1 27 59
M  V30 62 1 29 60
M  V30 63 1 31 61
M  V30 64 1 32 62
M  V30 65 1 32 63
M  V30 END BOND
M  V30 END CTAB
M  END
>  <Dataset>  (905) 
ChEMBL_Kinases

>  <Ligand_Instance>  (905) 
nan

>  <PDB_ID>  (905) 
nan

>  <Standardized_SMILES>  (905) 
CCC(CO)CNC(=O)O[C@@H]1CC[C@H](c2cc(NC(=O)Cc3ccc(OC)nc3)n[nH]2)C1

>  <Name>  (905) 
nan

>  <Pocket>  (905) 
nan

>  <ATP_Site>  (905) 
nan

>  <Peripheral>  (905) 
nan

>  <Num_H_Atoms_ProtBoundConf>  (905) 
nan

>  <Num_Resolved_Atoms>  (905) 
nan

>  <Num_Not_Resolved_Atoms>  (905) 
nan

$$$$
CHEMBL425883
     RDKit          3D

  0  0  0  0  0  0  0  0  0  0999 V3000
M  V30 BEGIN CTAB
M  V30 COUNTS 54 57 0 0 0
M  V30 BEGIN ATOM
M  V30 1 N 2.815074 -4.271843 3.002489 0
M  V30 2 C 2.065181 -3.394290 2.835743 0
M  V30 3 C 1.159166 -2.305997 2.644034 0
M  V30 4 C 1.594938 -1.209023 1.891923 0
M  V30 5 C 2.972452 -1.142005 1.286351 0
M  V30 6 C 2.997397 -1.716395 -0.083186 0
M  V30 7 C 3.454943 -0.816899 -1.178716 0
M  V30 8 N 4.459230 0.139642 -0.750271 0
M  V30 9 C 3.797120 0.994426 0.216465 0
M  V30 10 C 3.570264 0.203881 1.463193 0
M  V30 11 C 0.684887 -0.205171 1.745877 0
M  V30 12 C -0.587827 -0.217552 2.279584 0
M  V30 13 C -1.437460 0.949105 2.023712 0
M  V30 14 C -1.489845 2.059503 2.841217 0
M  V30 15 O -0.688300 2.070543 3.974527 0
M  V30 16 C -2.318939 3.123539 2.531904 0
M  V30 17 C -3.109338 3.089242 1.395563 0
M  V30 18 C -3.047464 1.978282 0.590917 0
M  V30 19 C -2.220809 0.899805 0.885220 0
M  V30 20 O -2.244565 -0.171918 -0.008075 0
M  V30 21 C -3.053372 -0.190597 -1.157683 0
M  V30 22 C -2.846113 -1.465439 -1.889932 0
M  V30 23 C -1.896269 -1.683916 -2.886890 0
M  V30 24 C -1.813076 -2.929360 -3.488487 0
M  V30 25 C -2.666700 -3.932705 -3.095632 0
M  V30 26 C -3.615802 -3.758342 -2.117881 0
M  V30 27 C -3.675624 -2.514959 -1.539425 0
M  V30 28 N -0.952422 -1.299169 2.994207 0
M  V30 29 C -0.110031 -2.332549 3.183669 0
M  V30 30 N -0.542504 -3.461074 3.950841 0
M  V30 31 H 3.566448 -1.851801 1.935331 0
M  V30 32 H 3.570391 -2.685954 -0.159112 0
M  V30 33 H 1.945192 -2.020717 -0.346490 0
M  V30 34 H 2.637437 -0.225297 -1.650988 0
M  V30 35 H 3.912477 -1.418163 -1.991851 0
M  V30 36 H 4.653443 0.731107 -1.605887 0
M  V30 37 H 4.475414 1.838153 0.495217 0
M  V30 38 H 2.847579 1.346498 -0.210370 0
M  V30 39 H 4.521184 0.186265 2.070906 0
M  V30 40 H 2.876744 0.816700 2.101110 0
M  V30 41 H 1.008309 0.651062 1.165746 0
M  V30 42 H 0.283860 1.774288 3.974118 0
M  V30 43 H -2.354495 4.005336 3.189577 0
M  V30 44 H -3.759921 3.948952 1.172733 0
M  V30 45 H -3.672002 1.942424 -0.314004 0
M  V30 46 H -4.120786 -0.047046 -0.951932 0
M  V30 47 H -2.647456 0.606043 -1.840360 0
M  V30 48 H -1.270928 -0.829360 -3.124569 0
M  V30 49 H -1.048381 -3.035155 -4.261719 0
M  V30 50 H -2.566599 -4.888199 -3.591752 0
M  V30 51 H -4.276372 -4.539889 -1.816011 0
M  V30 52 H -4.437656 -2.386112 -0.759048 0
M  V30 53 H -0.483807 -3.700464 4.968459 0
M  V30 54 H -1.023312 -4.230889 3.418336 0
M  V30 END ATOM
M  V30 BEGIN BOND
M  V30 1 3 1 2
M  V30 2 1 2 3
M  V30 3 2 3 4
M  V30 4 1 4 5
M  V30 5 1 5 6
M  V30 6 1 6 7
M  V30 7 1 7 8
M  V30 8 1 8 9
M  V30 9 1 9 10
M  V30 10 1 4 11
M  V30 11 2 11 12
M  V30 12 1 12 13
M  V30 13 2 13 14
M  V30 14 1 14 15
M  V30 15 1 14 16
M  V30 16 2 16 17
M  V30 17 1 17 18
M  V30 18 2 18 19
M  V30 19 1 19 20
M  V30 20 1 20 21
M  V30 21 1 21 22
M  V30 22 2 22 23
M  V30 23 1 23 24
M  V30 24 2 24 25
M  V30 25 1 25 26
M  V30 26 2 26 27
M  V30 27 1 12 28
M  V30 28 2 28 29
M  V30 29 1 29 30
M  V30 30 1 29 3
M  V30 31 1 10 5
M  V30 32 1 19 13
M  V30 33 1 27 22
M  V30 34 1 5 31
M  V30 35 1 6 32
M  V30 36 1 6 33
M  V30 37 1 7 34
M  V30 38 1 7 35
M  V30 39 1 8 36
M  V30 40 1 9 37
M  V30 41 1 9 38
M  V30 42 1 10 39
M  V30 43 1 10 40
M  V30 44 1 11 41
M  V30 45 1 15 42
M  V30 46 1 16 43
M  V30 47 1 17 44
M  V30 48 1 18 45
M  V30 49 1 21 46
M  V30 50 1 21 47
M  V30 51 1 23 48
M  V30 52 1 24 49
M  V30 53 1 25 50
M  V30 54 1 26 51
M  V30 55 1 27 52
M  V30 56 1 30 53
M  V30 57 1 30 54
M  V30 END BOND
M  V30 END CTAB
M  END
>  <Dataset>  (906) 
ChEMBL_Kinases

>  <Ligand_Instance>  (906) 
nan

>  <PDB_ID>  (906) 
nan

>  <Standardized_SMILES>  (906) 
N#Cc1c(C2CCNCC2)cc(-c2c(O)cccc2OCc2ccccc2)nc1N

>  <Name>  (906) 
nan

>  <Pocket>  (906) 
nan

>  <ATP_Site>  (906) 
nan

>  <Peripheral>  (906) 
nan

>  <Num_H_Atoms_ProtBoundConf>  (906) 
nan

>  <Num_Resolved_Atoms>  (906) 
nan

>  <Num_Not_Resolved_Atoms>  (906) 
nan

$$$$
CHEMBL425834
     RDKit          3D

  0  0  0  0  0  0  0  0  0  0999 V3000
M  V30 BEGIN CTAB
M  V30 COUNTS 58 61 0 0 0
M  V30 BEGIN ATOM
M  V30 1 C 2.242044 -3.548175 3.253973 0
M  V30 2 N 2.330117 -2.732970 2.058696 0
M  V30 3 C 2.267521 -3.574588 0.902983 0
M  V30 4 C 3.525935 -1.903814 2.075526 0
M  V30 5 C 3.470208 -0.848398 3.128688 0
M  V30 6 C 2.307545 0.062834 2.888140 0
M  V30 7 N 2.370128 0.735425 1.621075 0
M  V30 8 C 1.867542 0.355274 0.448273 0
M  V30 9 C 2.181894 1.296043 -0.505055 0
M  V30 10 C 1.991870 1.595590 -1.948186 0
M  V30 11 N 0.838687 2.455829 -2.115930 0
M  V30 12 C -0.553439 2.279682 -1.956399 0
M  V30 13 C -1.376308 3.393807 -2.179497 0
M  V30 14 C -2.730813 3.299852 -2.071528 0
M  V30 15 Br -3.805662 4.838482 -2.382648 0
M  V30 16 C -3.288177 2.103266 -1.742272 0
M  V30 17 N -4.633889 2.052873 -1.656515 0
M  V30 18 C -5.239256 0.870372 -1.340034 0
M  V30 19 C -4.424402 -0.239458 -1.118928 0
M  V30 20 C -5.153756 -1.446944 -0.790860 0
M  V30 21 N -5.720093 -2.417720 -0.524154 0
M  V30 22 C -3.045012 -0.162693 -1.212498 0
M  V30 23 N -2.429226 -1.402050 -0.964625 0
M  V30 24 C -2.036146 -2.133904 0.170356 0
M  V30 25 C -2.114064 -1.584086 1.430070 0
M  V30 26 C -1.728365 -2.397559 2.476085 0
M  V30 27 C -1.286858 -3.702829 2.243626 0
M  V30 28 F -0.890369 -4.582036 3.198863 0
M  V30 29 C -1.220078 -4.227536 0.954406 0
M  V30 30 Cl -0.675198 -5.863512 0.619868 0
M  V30 31 C -1.604887 -3.416943 -0.092525 0
M  V30 32 C -2.446535 1.034252 -1.531615 0
M  V30 33 C -1.092730 1.046662 -1.618355 0
M  V30 34 N 2.894068 2.241738 0.180626 0
M  V30 35 N 2.984125 1.871045 1.445268 0
M  V30 36 H 3.157568 -3.417852 3.876309 0
M  V30 37 H 1.350744 -3.243773 3.832501 0
M  V30 38 H 2.126555 -4.607212 2.951404 0
M  V30 39 H 1.539350 -3.206034 0.145411 0
M  V30 40 H 3.250259 -3.666589 0.383864 0
M  V30 41 H 1.969410 -4.596668 1.209254 0
M  V30 42 H 3.703339 -1.487616 1.082450 0
M  V30 43 H 4.367290 -2.593251 2.315958 0
M  V30 44 H 3.284351 -1.327595 4.131711 0
M  V30 45 H 4.405632 -0.273102 3.218578 0
M  V30 46 H 1.360671 -0.525800 2.914777 0
M  V30 47 H 2.201480 0.837016 3.681573 0
M  V30 48 H 1.306359 -0.489376 0.145349 0
M  V30 49 H 1.691947 0.622092 -2.427330 0
M  V30 50 H 2.910943 1.962358 -2.402257 0
M  V30 51 H 1.184410 3.415609 -2.426307 0
M  V30 52 H -0.953975 4.361269 -2.443992 0
M  V30 53 H -6.318902 0.853248 -1.276963 0
M  V30 54 H -2.312692 -1.698672 -1.952759 0
M  V30 55 H -2.455046 -0.574432 1.614136 0
M  V30 56 H -1.747732 -2.072352 3.510991 0
M  V30 57 H -1.552203 -3.830097 -1.103238 0
M  V30 58 H -0.501570 0.173169 -1.439051 0
M  V30 END ATOM
M  V30 BEGIN BOND
M  V30 1 1 1 2
M  V30 2 1 2 3
M  V30 3 1 2 4
M  V30 4 1 4 5
M  V30 5 1 5 6
M  V30 6 1 6 7
M  V30 7 1 7 8
M  V30 8 2 8 9
M  V30 9 1 9 10
M  V30 10 1 10 11
M  V30 11 1 11 12
M  V30 12 2 12 13
M  V30 13 1 13 14
M  V30 14 1 14 15
M  V30 15 2 14 16
M  V30 16 1 16 17
M  V30 17 2 17 18
M  V30 18 1 18 19
M  V30 19 1 19 20
M  V30 20 3 20 21
M  V30 21 2 19 22
M  V30 22 1 22 23
M  V30 23 1 23 24
M  V30 24 2 24 25
M  V30 25 1 25 26
M  V30 26 2 26 27
M  V30 27 1 27 28
M  V30 28 1 27 29
M  V30 29 1 29 30
M  V30 30 2 29 31
M  V30 31 1 22 32
M  V30 32 2 32 33
M  V30 33 1 9 34
M  V30 34 2 34 35
M  V30 35 1 35 7
M  V30 36 1 33 12
M  V30 37 1 32 16
M  V30 38 1 31 24
M  V30 39 1 1 36
M  V30 40 1 1 37
M  V30 41 1 1 38
M  V30 42 1 3 39
M  V30 43 1 3 40
M  V30 44 1 3 41
M  V30 45 1 4 42
M  V30 46 1 4 43
M  V30 47 1 5 44
M  V30 48 1 5 45
M  V30 49 1 6 46
M  V30 50 1 6 47
M  V30 51 1 8 48
M  V30 52 1 10 49
M  V30 53 1 10 50
M  V30 54 1 11 51
M  V30 55 1 13 52
M  V30 56 1 18 53
M  V30 57 1 23 54
M  V30 58 1 25 55
M  V30 59 1 26 56
M  V30 60 1 31 57
M  V30 61 1 33 58
M  V30 END BOND
M  V30 END CTAB
M  END
>  <Dataset>  (907) 
ChEMBL_Kinases

>  <Ligand_Instance>  (907) 
nan

>  <PDB_ID>  (907) 
nan

>  <Standardized_SMILES>  (907) 
CN(C)CCCn1cc(CNc2cc(Br)c3ncc(C#N)c(Nc4ccc(F)c(Cl)c4)c3c2)nn1

>  <Name>  (907) 
nan

>  <Pocket>  (907) 
nan

>  <ATP_Site>  (907) 
nan

>  <Peripheral>  (907) 
nan

>  <Num_H_Atoms_ProtBoundConf>  (907) 
nan

>  <Num_Resolved_Atoms>  (907) 
nan

>  <Num_Not_Resolved_Atoms>  (907) 
nan

$$$$
CHEMBL425785
     RDKit          3D

  0  0  0  0  0  0  0  0  0  0999 V3000
M  V30 BEGIN CTAB
M  V30 COUNTS 42 45 0 0 0
M  V30 BEGIN ATOM
M  V30 1 C -0.340938 -0.749217 4.722009 0
M  V30 2 N 0.465942 0.227643 4.008260 0
M  V30 3 C 0.637272 0.133828 2.580751 0
M  V30 4 N 1.363153 1.009193 1.860327 0
M  V30 5 C 1.510457 0.902843 0.523977 0
M  V30 6 C 2.338748 1.928255 -0.093390 0
M  V30 7 C 1.732008 2.760048 -1.047567 0
M  V30 8 C 2.496963 3.773059 -1.641013 0
M  V30 9 C 3.829960 3.997580 -1.331671 0
M  V30 10 C 4.380797 3.155113 -0.388449 0
M  V30 11 C 3.651650 2.146498 0.214086 0
M  V30 12 Cl 4.403967 1.107584 1.407088 0
M  V30 13 C 0.903357 -0.134407 -0.144194 0
M  V30 14 C 0.162223 -1.023337 0.606113 0
M  V30 15 N 0.032890 -0.891928 1.936221 0
M  V30 16 N -0.529034 -2.126007 0.046381 0
M  V30 17 C -1.307237 -3.066415 0.795183 0
M  V30 18 C -0.730845 -4.221683 1.285147 0
M  V30 19 Cl 0.951669 -4.595844 1.027673 0
M  V30 20 C -1.572154 -5.053311 1.990122 0
M  V30 21 C -2.918951 -4.809980 2.230872 0
M  V30 22 C -3.398585 -3.619450 1.693502 0
M  V30 23 C -2.633513 -2.722001 0.972586 0
M  V30 24 Cl -3.329699 -1.243982 0.333002 0
M  V30 25 C -0.478586 -2.361854 -1.372192 0
M  V30 26 O -1.089682 -3.336835 -1.877804 0
M  V30 27 N 0.294812 -1.423675 -2.104383 0
M  V30 28 C 1.061463 -0.307857 -1.587673 0
M  V30 29 H -0.936384 -0.278052 5.547261 0
M  V30 30 H -1.121276 -1.164549 4.029096 0
M  V30 31 H 0.220360 -1.609060 5.093814 0
M  V30 32 H 0.957742 1.029638 4.459691 0
M  V30 33 H 0.718129 2.742664 -1.397895 0
M  V30 34 H 2.078358 4.450325 -2.390474 0
M  V30 35 H 4.393817 4.782436 -1.803617 0
M  V30 36 H 5.405231 3.306555 -0.131960 0
M  V30 37 H -1.165428 -5.978708 2.394392 0
M  V30 38 H -3.543041 -5.491552 2.792211 0
M  V30 39 H -4.456306 -3.440804 1.888596 0
M  V30 40 H 0.317584 -1.552872 -3.158438 0
M  V30 41 H 2.142625 -0.628917 -1.726995 0
M  V30 42 H 0.965374 0.586486 -2.208934 0
M  V30 END ATOM
M  V30 BEGIN BOND
M  V30 1 1 1 2
M  V30 2 1 2 3
M  V30 3 2 3 4
M  V30 4 1 4 5
M  V30 5 1 5 6
M  V30 6 2 6 7
M  V30 7 1 7 8
M  V30 8 2 8 9
M  V30 9 1 9 10
M  V30 10 2 10 11
M  V30 11 1 11 12
M  V30 12 2 5 13
M  V30 13 1 13 14
M  V30 14 2 14 15
M  V30 15 1 14 16
M  V30 16 1 16 17
M  V30 17 2 17 18
M  V30 18 1 18 19
M  V30 19 1 18 20
M  V30 20 2 20 21
M  V30 21 1 21 22
M  V30 22 2 22 23
M  V30 23 1 23 24
M  V30 24 1 16 25
M  V30 25 2 25 26
M  V30 26 1 25 27
M  V30 27 1 27 28
M  V30 28 1 15 3
M  V30 29 1 23 17
M  V30 30 1 11 6
M  V30 31 1 28 13
M  V30 32 1 1 29
M  V30 33 1 1 30
M  V30 34 1 1 31
M  V30 35 1 2 32
M  V30 36 1 7 33
M  V30 37 1 8 34
M  V30 38 1 9 35
M  V30 39 1 10 36
M  V30 40 1 20 37
M  V30 41 1 21 38
M  V30 42 1 22 39
M  V30 43 1 27 40
M  V30 44 1 28 41
M  V30 45 1 28 42
M  V30 END BOND
M  V30 END CTAB
M  END
>  <Dataset>  (908) 
ChEMBL_Kinases

>  <Ligand_Instance>  (908) 
nan

>  <PDB_ID>  (908) 
nan

>  <Standardized_SMILES>  (908) 
CNc1nc(-c2ccccc2Cl)c2c(n1)N(c1c(Cl)cccc1Cl)C(=O)NC2

>  <Name>  (908) 
nan

>  <Pocket>  (908) 
nan

>  <ATP_Site>  (908) 
nan

>  <Peripheral>  (908) 
nan

>  <Num_H_Atoms_ProtBoundConf>  (908) 
nan

>  <Num_Resolved_Atoms>  (908) 
nan

>  <Num_Not_Resolved_Atoms>  (908) 
nan

$$$$
CHEMBL425771
     RDKit          3D

  0  0  0  0  0  0  0  0  0  0999 V3000
M  V30 BEGIN CTAB
M  V30 COUNTS 38 40 0 0 0
M  V30 BEGIN ATOM
M  V30 1 C 3.616858 -5.108985 0.604467 0
M  V30 2 C 3.417552 -3.806409 1.285825 0
M  V30 3 O 3.496094 -3.789909 2.545646 0
M  V30 4 N 3.145388 -2.578662 0.626663 0
M  V30 5 C 2.997968 -1.470702 1.563051 0
M  V30 6 C 2.721993 -0.188300 1.016942 0
M  V30 7 C 1.587332 0.188177 0.219232 0
M  V30 8 N 1.532012 0.391486 -1.125884 0
M  V30 9 N 0.319013 0.726112 -1.506656 0
M  V30 10 C -0.138199 1.024116 -2.857635 0
M  V30 11 C -0.506676 0.766398 -0.442576 0
M  V30 12 C 0.299766 0.425908 0.642928 0
M  V30 13 C -0.312013 0.393801 1.866074 0
M  V30 14 O 0.362582 0.095250 2.869958 0
M  V30 15 C -1.652652 0.682566 2.017076 0
M  V30 16 C -2.299304 0.658096 3.245119 0
M  V30 17 C -3.643599 0.946700 3.404710 0
M  V30 18 Cl -4.416663 0.902269 4.974185 0
M  V30 19 C -4.343448 1.274094 2.239294 0
M  V30 20 C -3.741457 1.310816 0.998073 0
M  V30 21 C -2.397704 1.012194 0.908771 0
M  V30 22 N -1.830155 1.054851 -0.317206 0
M  V30 23 O -2.591154 1.383153 -1.405044 0
M  V30 24 H 2.742865 -5.784548 0.791497 0
M  V30 25 H 4.509621 -5.620015 1.046210 0
M  V30 26 H 3.758498 -4.994120 -0.487876 0
M  V30 27 H 3.078667 -2.573112 -0.393205 0
M  V30 28 H 4.040495 -1.441663 1.977218 0
M  V30 29 H 2.466811 -1.790108 2.497856 0
M  V30 30 H 2.728210 0.536496 1.881937 0
M  V30 31 H 3.633663 0.128444 0.452917 0
M  V30 32 H -0.377835 2.099074 -2.979017 0
M  V30 33 H 0.709526 0.828933 -3.547516 0
M  V30 34 H -0.962785 0.345370 -3.178357 0
M  V30 35 H -1.688612 0.397263 4.092876 0
M  V30 36 H -5.396866 1.496063 2.389705 0
M  V30 37 H -4.372239 1.575951 0.155287 0
M  V30 38 H -3.018833 0.681818 -1.990362 0
M  V30 END ATOM
M  V30 BEGIN BOND
M  V30 1 1 1 2
M  V30 2 2 2 3
M  V30 3 1 2 4
M  V30 4 1 4 5
M  V30 5 1 5 6
M  V30 6 1 6 7
M  V30 7 2 7 8
M  V30 8 1 8 9
M  V30 9 1 9 10
M  V30 10 1 9 11
M  V30 11 2 11 12
M  V30 12 1 12 13
M  V30 13 2 13 14
M  V30 14 1 13 15
M  V30 15 2 15 16
M  V30 16 1 16 17
M  V30 17 1 17 18
M  V30 18 2 17 19
M  V30 19 1 19 20
M  V30 20 2 20 21
M  V30 21 1 21 22
M  V30 22 1 22 23
M  V30 23 1 12 7
M  V30 24 1 21 15
M  V30 25 1 22 11
M  V30 26 1 1 24
M  V30 27 1 1 25
M  V30 28 1 1 26
M  V30 29 1 4 27
M  V30 30 1 5 28
M  V30 31 1 5 29
M  V30 32 1 6 30
M  V30 33 1 6 31
M  V30 34 1 10 32
M  V30 35 1 10 33
M  V30 36 1 10 34
M  V30 37 1 16 35
M  V30 38 1 19 36
M  V30 39 1 20 37
M  V30 40 1 23 38
M  V30 END BOND
M  V30 END CTAB
M  END
>  <Dataset>  (909) 
ChEMBL_Kinases

>  <Ligand_Instance>  (909) 
nan

>  <PDB_ID>  (909) 
nan

>  <Standardized_SMILES>  (909) 
CC(=O)NCCc1nn(C)c2c1c(=O)c1cc(Cl)ccc1n2O

>  <Name>  (909) 
nan

>  <Pocket>  (909) 
nan

>  <ATP_Site>  (909) 
nan

>  <Peripheral>  (909) 
nan

>  <Num_H_Atoms_ProtBoundConf>  (909) 
nan

>  <Num_Resolved_Atoms>  (909) 
nan

>  <Num_Not_Resolved_Atoms>  (909) 
nan

$$$$
CHEMBL4763427
     RDKit          3D

  0  0  0  0  0  0  0  0  0  0999 V3000
M  V30 BEGIN CTAB
M  V30 COUNTS 42 45 0 0 0
M  V30 BEGIN ATOM
M  V30 1 C 2.729482 -8.186106 -0.610014 0
M  V30 2 N 2.339641 -6.807270 -0.408144 0
M  V30 3 C 2.617423 -5.828218 -1.350173 0
M  V30 4 O 3.229684 -6.426776 -2.303875 0
M  V30 5 C 2.396069 -4.411943 -1.494162 0
M  V30 6 N 2.850449 -3.829187 -2.620050 0
M  V30 7 N 2.559792 -2.521650 -2.584256 0
M  V30 8 C 1.913185 -2.177822 -1.459887 0
M  V30 9 C 1.392291 -1.025581 -0.910637 0
M  V30 10 C 0.768734 -1.082550 0.331901 0
M  V30 11 C 0.237569 0.168657 0.860930 0
M  V30 12 C -0.484251 1.007611 0.035671 0
M  V30 13 C -1.023797 2.216788 0.462332 0
M  V30 14 C -0.779887 2.517881 1.789221 0
M  V30 15 N -1.304724 3.742385 2.290814 0
M  V30 16 C -2.274065 3.594909 3.236427 0
M  V30 17 C -2.897231 4.674005 3.834982 0
M  V30 18 C -2.541258 5.964621 3.477868 0
M  V30 19 C -1.549824 6.069094 2.511073 0
M  V30 20 C -0.942720 4.975831 1.928280 0
M  V30 21 O -0.055578 5.062204 1.063244 0
M  V30 22 C -0.066048 1.719985 2.662335 0
M  V30 23 C 0.444141 0.530766 2.176716 0
M  V30 24 Cl 1.350184 -0.489607 3.271154 0
M  V30 25 C 0.696389 -2.304456 0.971065 0
M  V30 26 C 1.213319 -3.461982 0.431711 0
M  V30 27 C 1.823727 -3.380384 -0.795140 0
M  V30 28 H 3.768488 -8.408620 -0.286847 0
M  V30 29 H 2.024607 -8.858749 -0.047751 0
M  V30 30 H 2.580491 -8.444221 -1.691761 0
M  V30 31 H 1.838506 -6.441218 0.423683 0
M  V30 32 H 2.818106 -1.868522 -3.355401 0
M  V30 33 H 1.490068 -0.112395 -1.473785 0
M  V30 34 H -0.653697 0.736505 -0.997167 0
M  V30 35 H -1.589757 2.875990 -0.182221 0
M  V30 36 H -2.626225 2.612939 3.587369 0
M  V30 37 H -3.660722 4.573195 4.579663 0
M  V30 38 H -2.963793 6.881808 3.882240 0
M  V30 39 H -1.245872 7.063358 2.207010 0
M  V30 40 H 0.094957 2.006591 3.695709 0
M  V30 41 H 0.213397 -2.335184 1.928033 0
M  V30 42 H 1.133640 -4.385230 0.963553 0
M  V30 END ATOM
M  V30 BEGIN BOND
M  V30 1 1 1 2
M  V30 2 1 2 3
M  V30 3 2 3 4
M  V30 4 1 3 5
M  V30 5 2 5 6
M  V30 6 1 6 7
M  V30 7 1 7 8
M  V30 8 2 8 9
M  V30 9 1 9 10
M  V30 10 1 10 11
M  V30 11 2 11 12
M  V30 12 1 12 13
M  V30 13 2 13 14
M  V30 14 1 14 15
M  V30 15 1 15 16
M  V30 16 2 16 17
M  V30 17 1 17 18
M  V30 18 2 18 19
M  V30 19 1 19 20
M  V30 20 2 20 21
M  V30 21 1 14 22
M  V30 22 2 22 23
M  V30 23 1 23 24
M  V30 24 2 10 25
M  V30 25 1 25 26
M  V30 26 2 26 27
M  V30 27 1 27 5
M  V30 28 1 27 8
M  V30 29 1 23 11
M  V30 30 1 20 15
M  V30 31 1 1 28
M  V30 32 1 1 29
M  V30 33 1 1 30
M  V30 34 1 2 31
M  V30 35 1 7 32
M  V30 36 1 9 33
M  V30 37 1 12 34
M  V30 38 1 13 35
M  V30 39 1 16 36
M  V30 40 1 17 37
M  V30 41 1 18 38
M  V30 42 1 19 39
M  V30 43 1 22 40
M  V30 44 1 25 41
M  V30 45 1 26 42
M  V30 END BOND
M  V30 END CTAB
M  END
>  <Dataset>  (910) 
ChEMBL_Kinases

>  <Ligand_Instance>  (910) 
nan

>  <PDB_ID>  (910) 
nan

>  <Standardized_SMILES>  (910) 
CNC(=O)c1n[nH]c2cc(-c3ccc(-n4ccccc4=O)cc3Cl)ccc12

>  <Name>  (910) 
nan

>  <Pocket>  (910) 
nan

>  <ATP_Site>  (910) 
nan

>  <Peripheral>  (910) 
nan

>  <Num_H_Atoms_ProtBoundConf>  (910) 
nan

>  <Num_Resolved_Atoms>  (910) 
nan

>  <Num_Not_Resolved_Atoms>  (910) 
nan

$$$$
CHEMBL425553
     RDKit          3D

  0  0  0  0  0  0  0  0  0  0999 V3000
M  V30 BEGIN CTAB
M  V30 COUNTS 42 44 0 0 0
M  V30 BEGIN ATOM
M  V30 1 C -0.553143 -4.079952 0.163322 0
M  V30 2 N 0.443966 -3.473481 1.012252 0
M  V30 3 C 1.002626 -4.373812 1.991115 0
M  V30 4 C 1.487998 -2.785113 0.277759 0
M  V30 5 C 2.464269 -2.186655 1.249067 0
M  V30 6 N 3.547698 -1.471929 0.600245 0
M  V30 7 C 3.289656 -0.342745 -0.239114 0
M  V30 8 N 4.267668 0.320754 -0.860957 0
M  V30 9 C 4.097322 1.371476 -1.655511 0
M  V30 10 C 2.796797 1.815028 -1.855135 0
M  V30 11 C 1.736831 1.165753 -1.235748 0
M  V30 12 C 0.324150 1.425586 -1.316719 0
M  V30 13 C -0.212019 1.703755 -2.631355 0
M  V30 14 N -0.624680 1.932384 -3.687254 0
M  V30 15 C -0.484350 1.422636 -0.301365 0
M  V30 16 N -0.202815 1.178694 1.081609 0
M  V30 17 C -1.282815 1.237194 1.964749 0
M  V30 18 C -1.247155 1.037109 3.338817 0
M  V30 19 C -2.431488 1.141771 4.027523 0
M  V30 20 C -3.672091 1.427156 3.505903 0
M  V30 21 C -3.676002 1.620309 2.144431 0
M  V30 22 C -2.509498 1.528868 1.377370 0
M  V30 23 S -2.249267 1.733116 -0.387717 0
M  V30 24 N 2.052509 0.122783 -0.462765 0
M  V30 25 H -1.457359 -4.242752 0.819805 0
M  V30 26 H -0.794392 -3.379929 -0.647008 0
M  V30 27 H -0.245244 -5.055070 -0.231199 0
M  V30 28 H 1.977085 -4.776229 1.661105 0
M  V30 29 H 1.127185 -3.769210 2.938080 0
M  V30 30 H 0.338612 -5.233756 2.193805 0
M  V30 31 H 1.024733 -1.995135 -0.326527 0
M  V30 32 H 2.058767 -3.460957 -0.392589 0
M  V30 33 H 1.894704 -1.397459 1.810198 0
M  V30 34 H 2.831349 -2.909555 1.996147 0
M  V30 35 H 4.546334 -1.754387 0.722722 0
M  V30 36 H 4.857738 1.934519 -2.175468 0
M  V30 37 H 2.462853 2.662900 -2.476069 0
M  V30 38 H 0.808931 0.971604 1.342262 0
M  V30 39 H -0.338860 0.804005 3.900331 0
M  V30 40 H -2.395336 0.979214 5.116910 0
M  V30 41 H -4.596190 1.508766 4.039481 0
M  V30 42 H -4.602187 1.850200 1.639203 0
M  V30 END ATOM
M  V30 BEGIN BOND
M  V30 1 1 1 2
M  V30 2 1 2 3
M  V30 3 1 2 4
M  V30 4 1 4 5
M  V30 5 1 5 6
M  V30 6 1 6 7
M  V30 7 2 7 8
M  V30 8 1 8 9
M  V30 9 2 9 10
M  V30 10 1 10 11
M  V30 11 1 11 12
M  V30 12 1 12 13
M  V30 13 3 13 14
M  V30 14 2 12 15
M  V30 15 1 15 16
M  V30 16 1 16 17
M  V30 17 2 17 18
M  V30 18 1 18 19
M  V30 19 2 19 20
M  V30 20 1 20 21
M  V30 21 2 21 22
M  V30 22 1 22 23
M  V30 23 2 11 24
M  V30 24 1 24 7
M  V30 25 1 23 15
M  V30 26 1 22 17
M  V30 27 1 1 25
M  V30 28 1 1 26
M  V30 29 1 1 27
M  V30 30 1 3 28
M  V30 31 1 3 29
M  V30 32 1 3 30
M  V30 33 1 4 31
M  V30 34 1 4 32
M  V30 35 1 5 33
M  V30 36 1 5 34
M  V30 37 1 6 35
M  V30 38 1 9 36
M  V30 39 1 10 37
M  V30 40 1 16 38
M  V30 41 1 18 39
M  V30 42 1 19 40
M  V30 43 1 20 41
M  V30 44 1 21 42
M  V30 END BOND
M  V30 END CTAB
M  END
>  <Dataset>  (911) 
ChEMBL_Kinases

>  <Ligand_Instance>  (911) 
nan

>  <PDB_ID>  (911) 
nan

>  <Standardized_SMILES>  (911) 
CN(C)CCNc1nccc(/C(C#N)=C2\Nc3ccccc3S2)n1

>  <Name>  (911) 
nan

>  <Pocket>  (911) 
nan

>  <ATP_Site>  (911) 
nan

>  <Peripheral>  (911) 
nan

>  <Num_H_Atoms_ProtBoundConf>  (911) 
nan

>  <Num_Resolved_Atoms>  (911) 
nan

>  <Num_Not_Resolved_Atoms>  (911) 
nan

$$$$
CHEMBL425422
     RDKit          3D

  0  0  0  0  0  0  0  0  0  0999 V3000
M  V30 BEGIN CTAB
M  V30 COUNTS 41 44 0 0 0
M  V30 BEGIN ATOM
M  V30 1 N 2.277353 1.127624 3.382312 0
M  V30 2 C 1.749852 0.497417 2.230075 0
M  V30 3 C 2.407614 0.407240 0.999164 0
M  V30 4 C 1.784020 -0.239793 -0.064610 0
M  V30 5 C 2.618018 -0.233646 -1.258499 0
M  V30 6 C 3.550604 -1.136057 -1.676798 0
M  V30 7 C 4.240221 -0.940534 -2.856030 0
M  V30 8 C 4.018870 0.164617 -3.655028 0
M  V30 9 C 3.077275 1.077374 -3.234331 0
M  V30 10 C 2.377607 0.893599 -2.052626 0
M  V30 11 Cl 1.224769 2.157667 -1.685278 0
M  V30 12 C 0.524015 -0.788496 0.096304 0
M  V30 13 C -0.100791 -0.686121 1.316443 0
M  V30 14 C 0.488441 -0.046779 2.406761 0
M  V30 15 N -1.397633 -1.262184 1.447654 0
M  V30 16 C -2.107615 -1.194404 2.686237 0
M  V30 17 C -2.038159 -2.132994 3.699002 0
M  V30 18 Cl -0.979397 -3.501138 3.393602 0
M  V30 19 C -2.768189 -1.949834 4.834464 0
M  V30 20 C -3.582337 -0.849901 5.010982 0
M  V30 21 C -3.661941 0.099663 4.003740 0
M  V30 22 C -2.924923 -0.070996 2.840074 0
M  V30 23 Cl -3.087273 1.184898 1.614171 0
M  V30 24 C -2.047754 -1.927435 0.367031 0
M  V30 25 O -3.193205 -2.451290 0.437113 0
M  V30 26 N -1.301567 -1.969329 -0.845383 0
M  V30 27 C -0.000116 -1.433979 -1.107334 0
M  V30 28 H 3.010261 0.671964 3.967990 0
M  V30 29 H 2.157997 2.006707 3.900748 0
M  V30 30 H 3.382385 0.868413 0.986440 0
M  V30 31 H 3.667062 -1.971785 -1.000063 0
M  V30 32 H 4.965399 -1.702823 -3.120199 0
M  V30 33 H 4.579775 0.275465 -4.565573 0
M  V30 34 H 2.931901 1.937375 -3.894369 0
M  V30 35 H -0.068370 -0.008595 3.332547 0
M  V30 36 H -2.692633 -2.705193 5.612982 0
M  V30 37 H -4.163351 -0.694193 5.902560 0
M  V30 38 H -4.296822 0.968249 4.128182 0
M  V30 39 H -1.740308 -2.450918 -1.673963 0
M  V30 40 H 0.663764 -2.308014 -1.358331 0
M  V30 41 H 0.008018 -0.777895 -1.993084 0
M  V30 END ATOM
M  V30 BEGIN BOND
M  V30 1 1 1 2
M  V30 2 2 2 3
M  V30 3 1 3 4
M  V30 4 1 4 5
M  V30 5 2 5 6
M  V30 6 1 6 7
M  V30 7 2 7 8
M  V30 8 1 8 9
M  V30 9 2 9 10
M  V30 10 1 10 11
M  V30 11 2 4 12
M  V30 12 1 12 13
M  V30 13 2 13 14
M  V30 14 1 13 15
M  V30 15 1 15 16
M  V30 16 2 16 17
M  V30 17 1 17 18
M  V30 18 1 17 19
M  V30 19 2 19 20
M  V30 20 1 20 21
M  V30 21 2 21 22
M  V30 22 1 22 23
M  V30 23 1 15 24
M  V30 24 2 24 25
M  V30 25 1 24 26
M  V30 26 1 26 27
M  V30 27 1 14 2
M  V30 28 1 22 16
M  V30 29 1 10 5
M  V30 30 1 27 12
M  V30 31 1 1 28
M  V30 32 1 1 29
M  V30 33 1 3 30
M  V30 34 1 6 31
M  V30 35 1 7 32
M  V30 36 1 8 33
M  V30 37 1 9 34
M  V30 38 1 14 35
M  V30 39 1 19 36
M  V30 40 1 20 37
M  V30 41 1 21 38
M  V30 42 1 26 39
M  V30 43 1 27 40
M  V30 44 1 27 41
M  V30 END BOND
M  V30 END CTAB
M  END
>  <Dataset>  (912) 
ChEMBL_Kinases

>  <Ligand_Instance>  (912) 
nan

>  <PDB_ID>  (912) 
nan

>  <Standardized_SMILES>  (912) 
Nc1cc(-c2ccccc2Cl)c2c(c1)N(c1c(Cl)cccc1Cl)C(=O)NC2

>  <Name>  (912) 
nan

>  <Pocket>  (912) 
nan

>  <ATP_Site>  (912) 
nan

>  <Peripheral>  (912) 
nan

>  <Num_H_Atoms_ProtBoundConf>  (912) 
nan

>  <Num_Resolved_Atoms>  (912) 
nan

>  <Num_Not_Resolved_Atoms>  (912) 
nan

$$$$
CHEMBL4763436
     RDKit          3D

  0  0  0  0  0  0  0  0  0  0999 V3000
M  V30 BEGIN CTAB
M  V30 COUNTS 49 52 0 0 0
M  V30 BEGIN ATOM
M  V30 1 C -3.617548 -3.604336 3.066474 0
M  V30 2 C -2.311238 -3.213315 2.483138 0
M  V30 3 S -1.294159 -1.947843 3.157254 0
M  V30 4 C 0.051166 -2.183867 1.804847 0
M  V30 5 N 1.253452 -1.430753 1.732649 0
M  V30 6 C 1.409338 -0.208234 1.030808 0
M  V30 7 O 0.404734 0.275513 0.406557 0
M  V30 8 C 2.788830 0.365706 1.125728 0
M  V30 9 C 2.890936 1.644383 0.374923 0
M  V30 10 C 3.219930 1.710139 -0.972671 0
M  V30 11 C 3.301827 2.920977 -1.612483 0
M  V30 12 C 3.059523 4.085261 -0.928530 0
M  V30 13 C 2.724717 4.116123 0.418892 0
M  V30 14 N 2.467685 5.272610 1.166769 0
M  V30 15 S 1.246215 5.668951 2.284944 0
M  V30 16 C 1.275393 4.588097 3.708132 0
M  V30 17 O 1.515915 7.050956 2.809097 0
M  V30 18 O -0.125023 5.697822 1.695844 0
M  V30 19 C 2.661546 2.865685 0.992665 0
M  V30 20 N -0.405845 -3.066737 1.132478 0
M  V30 21 C -1.569191 -3.661199 1.363589 0
M  V30 22 C -2.110092 -4.744072 0.527222 0
M  V30 23 C -2.501977 -5.955957 1.058637 0
M  V30 24 N -2.961546 -6.790247 0.109243 0
M  V30 25 C -2.878670 -6.138502 -1.064894 0
M  V30 26 N -3.180754 -6.440274 -2.350829 0
M  V30 27 C -2.962119 -5.523182 -3.294425 0
M  V30 28 C -2.446006 -4.262268 -3.095739 0
M  V30 29 C -2.127667 -3.920192 -1.804858 0
M  V30 30 C -2.358187 -4.883413 -0.821007 0
M  V30 31 H -3.969967 -4.564994 2.697138 0
M  V30 32 H -4.408441 -2.836020 2.858027 0
M  V30 33 H -3.491527 -3.601488 4.174299 0
M  V30 34 H 2.001888 -1.915673 2.274720 0
M  V30 35 H 3.508598 -0.344017 0.660845 0
M  V30 36 H 3.074277 0.516473 2.201687 0
M  V30 37 H 3.411787 0.793845 -1.515084 0
M  V30 38 H 3.553189 3.036258 -2.659753 0
M  V30 39 H 3.121989 5.062763 -1.431914 0
M  V30 40 H 3.233445 5.958543 0.914127 0
M  V30 41 H 0.847034 5.153528 4.568471 0
M  V30 42 H 0.645739 3.687624 3.541265 0
M  V30 43 H 2.325791 4.339475 3.980719 0
M  V30 44 H 2.404720 2.796194 2.052580 0
M  V30 45 H -2.508123 -6.357125 2.082227 0
M  V30 46 H -3.332513 -7.762485 0.144494 0
M  V30 47 H -3.229589 -5.836585 -4.313731 0
M  V30 48 H -2.296801 -3.571738 -3.914998 0
M  V30 49 H -1.719783 -2.949862 -1.573975 0
M  V30 END ATOM
M  V30 BEGIN BOND
M  V30 1 1 1 2
M  V30 2 1 2 3
M  V30 3 1 3 4
M  V30 4 1 4 5
M  V30 5 1 5 6
M  V30 6 2 6 7
M  V30 7 1 6 8
M  V30 8 1 8 9
M  V30 9 2 9 10
M  V30 10 1 10 11
M  V30 11 2 11 12
M  V30 12 1 12 13
M  V30 13 1 13 14
M  V30 14 1 14 15
M  V30 15 1 15 16
M  V30 16 2 15 17
M  V30 17 2 15 18
M  V30 18 2 13 19
M  V30 19 2 4 20
M  V30 20 1 20 21
M  V30 21 1 21 22
M  V30 22 2 22 23
M  V30 23 1 23 24
M  V30 24 1 24 25
M  V30 25 2 25 26
M  V30 26 1 26 27
M  V30 27 2 27 28
M  V30 28 1 28 29
M  V30 29 2 29 30
M  V30 30 2 21 2
M  V30 31 1 30 22
M  V30 32 1 19 9
M  V30 33 1 30 25
M  V30 34 1 1 31
M  V30 35 1 1 32
M  V30 36 1 1 33
M  V30 37 1 5 34
M  V30 38 1 8 35
M  V30 39 1 8 36
M  V30 40 1 10 37
M  V30 41 1 11 38
M  V30 42 1 12 39
M  V30 43 1 14 40
M  V30 44 1 16 41
M  V30 45 1 16 42
M  V30 46 1 16 43
M  V30 47 1 19 44
M  V30 48 1 23 45
M  V30 49 1 24 46
M  V30 50 1 27 47
M  V30 51 1 28 48
M  V30 52 1 29 49
M  V30 END BOND
M  V30 END CTAB
M  END
>  <Dataset>  (913) 
ChEMBL_Kinases

>  <Ligand_Instance>  (913) 
nan

>  <PDB_ID>  (913) 
nan

>  <Standardized_SMILES>  (913) 
Cc1sc(NC(=O)Cc2cccc(NS(C)(=O)=O)c2)nc1-c1c[nH]c2ncccc12

>  <Name>  (913) 
nan

>  <Pocket>  (913) 
nan

>  <ATP_Site>  (913) 
nan

>  <Peripheral>  (913) 
nan

>  <Num_H_Atoms_ProtBoundConf>  (913) 
nan

>  <Num_Resolved_Atoms>  (913) 
nan

>  <Num_Not_Resolved_Atoms>  (913) 
nan

$$$$
CHEMBL425177
     RDKit          3D

  0  0  0  0  0  0  0  0  0  0999 V3000
M  V30 BEGIN CTAB
M  V30 COUNTS 36 39 0 0 0
M  V30 BEGIN ATOM
M  V30 1 C 1.314762 -3.651099 -1.021230 0
M  V30 2 C 1.476784 -2.827825 0.214473 0
M  V30 3 C 1.845874 -3.487846 1.393188 0
M  V30 4 C 2.034251 -2.857813 2.622679 0
M  V30 5 C 1.832983 -1.493284 2.632780 0
M  V30 6 N 1.999700 -0.845508 3.784631 0
M  V30 7 C 1.812585 0.484774 3.839735 0
M  V30 8 C 1.442625 1.204090 2.696321 0
M  V30 9 C 1.268522 0.519806 1.488041 0
M  V30 10 C 0.893532 1.322841 0.389949 0
M  V30 11 S 1.783878 2.731808 -0.348052 0
M  V30 12 C 0.412700 2.996285 -1.661092 0
M  V30 13 N 0.399870 3.996497 -2.676755 0
M  V30 14 N -0.405375 2.122465 -1.406395 0
M  V30 15 C -0.219517 1.263381 -0.400087 0
M  V30 16 C -1.248855 0.227696 -0.147070 0
M  V30 17 C -1.981533 0.146822 1.038662 0
M  V30 18 C -2.917000 -0.876601 1.148697 0
M  V30 19 C -3.103834 -1.773047 0.114618 0
M  V30 20 C -2.364274 -1.664523 -1.041118 0
M  V30 21 N -1.457487 -0.672176 -1.147405 0
M  V30 22 C 1.469324 -0.848701 1.467632 0
M  V30 23 N 1.294693 -1.490243 0.290509 0
M  V30 24 H 1.939974 -4.561214 -0.916202 0
M  V30 25 H 0.262719 -4.020496 -1.149399 0
M  V30 26 H 1.683476 -3.111596 -1.925923 0
M  V30 27 H 1.994391 -4.559430 1.346605 0
M  V30 28 H 2.321083 -3.471499 3.471404 0
M  V30 29 H 1.941984 1.036237 4.765338 0
M  V30 30 H 1.300946 2.279923 2.782049 0
M  V30 31 H 0.976819 3.980437 -3.565014 0
M  V30 32 H -0.277094 4.739789 -2.383495 0
M  V30 33 H -1.781648 0.882637 1.805718 0
M  V30 34 H -3.491072 -0.952964 2.057927 0
M  V30 35 H -3.816904 -2.579530 0.159094 0
M  V30 36 H -2.425216 -2.316963 -1.925829 0
M  V30 END ATOM
M  V30 BEGIN BOND
M  V30 1 1 1 2
M  V30 2 2 2 3
M  V30 3 1 3 4
M  V30 4 2 4 5
M  V30 5 1 5 6
M  V30 6 2 6 7
M  V30 7 1 7 8
M  V30 8 2 8 9
M  V30 9 1 9 10
M  V30 10 1 10 11
M  V30 11 1 11 12
M  V30 12 1 12 13
M  V30 13 2 12 14
M  V30 14 1 14 15
M  V30 15 1 15 16
M  V30 16 2 16 17
M  V30 17 1 17 18
M  V30 18 2 18 19
M  V30 19 1 19 20
M  V30 20 2 20 21
M  V30 21 1 9 22
M  V30 22 2 22 23
M  V30 23 1 23 2
M  V30 24 1 22 5
M  V30 25 2 15 10
M  V30 26 1 21 16
M  V30 27 1 1 24
M  V30 28 1 1 25
M  V30 29 1 1 26
M  V30 30 1 3 27
M  V30 31 1 4 28
M  V30 32 1 7 29
M  V30 33 1 8 30
M  V30 34 1 13 31
M  V30 35 1 13 32
M  V30 36 1 17 33
M  V30 37 1 18 34
M  V30 38 1 19 35
M  V30 39 1 20 36
M  V30 END BOND
M  V30 END CTAB
M  END
>  <Dataset>  (914) 
ChEMBL_Kinases

>  <Ligand_Instance>  (914) 
nan

>  <PDB_ID>  (914) 
nan

>  <Standardized_SMILES>  (914) 
Cc1ccc2nccc(-c3sc(N)nc3-c3ccccn3)c2n1

>  <Name>  (914) 
nan

>  <Pocket>  (914) 
nan

>  <ATP_Site>  (914) 
nan

>  <Peripheral>  (914) 
nan

>  <Num_H_Atoms_ProtBoundConf>  (914) 
nan

>  <Num_Resolved_Atoms>  (914) 
nan

>  <Num_Not_Resolved_Atoms>  (914) 
nan

$$$$
CHEMBL425393
     RDKit          3D

  0  0  0  0  0  0  0  0  0  0999 V3000
M  V30 BEGIN CTAB
M  V30 COUNTS 58 62 0 0 0
M  V30 BEGIN ATOM
M  V30 1 C 1.929079 -1.856852 5.919376 0
M  V30 2 O 1.059210 -1.651070 4.842419 0
M  V30 3 C 1.122344 -0.627013 3.940189 0
M  V30 4 C 2.174396 0.239237 4.188675 0
M  V30 5 C 2.404016 1.332926 3.386287 0
M  V30 6 C 1.545396 1.532300 2.325806 0
M  V30 7 C 1.784110 2.711519 1.450377 0
M  V30 8 N 2.647896 2.295340 0.413513 0
M  V30 9 C 3.062155 3.178419 -0.579309 0
M  V30 10 C 3.979396 2.411841 -1.543244 0
M  V30 11 C 2.979692 1.694930 -2.455428 0
M  V30 12 C 1.793467 2.610106 -2.509462 0
M  V30 13 C 2.031853 3.720131 -1.508936 0
M  V30 14 C 0.518825 0.636373 2.132216 0
M  V30 15 C 0.237303 -0.467102 2.890058 0
M  V30 16 C -0.857187 -1.383414 2.720212 0
M  V30 17 N -1.196337 -2.245493 3.693220 0
M  V30 18 N -2.195291 -3.014140 3.344476 0
M  V30 19 C -2.601555 -2.707512 2.076844 0
M  V30 20 N -3.545595 -3.153036 1.211217 0
M  V30 21 C -3.694681 -2.635574 -0.020618 0
M  V30 22 N -4.696164 -3.128640 -0.902675 0
M  V30 23 C -4.137556 -4.176073 -1.689207 0
M  V30 24 C -4.141425 -3.981723 -3.074478 0
M  V30 25 C -3.640975 -4.887685 -4.004133 0
M  V30 26 C -3.104868 -6.056109 -3.528371 0
M  V30 27 F -2.606271 -6.965430 -4.404352 0
M  V30 28 C -3.088185 -6.273726 -2.166917 0
M  V30 29 C -3.590251 -5.360526 -1.267089 0
M  V30 30 F -3.592205 -5.538690 0.085942 0
M  V30 31 C -2.841122 -1.612520 -0.394898 0
M  V30 32 C -1.887325 -1.167219 0.489553 0
M  V30 33 C -1.744461 -1.691625 1.727514 0
M  V30 34 H 2.986270 -1.841397 5.552028 0
M  V30 35 H 1.882909 -1.004350 6.645611 0
M  V30 36 H 1.785773 -2.822331 6.402616 0
M  V30 37 H 2.866562 0.119042 5.004445 0
M  V30 38 H 3.224613 2.007632 3.580406 0
M  V30 39 H 2.281792 3.502582 2.054410 0
M  V30 40 H 0.783955 3.052125 1.136272 0
M  V30 41 H 2.368389 1.360949 -0.002162 0
M  V30 42 H 3.691618 3.989458 -0.154483 0
M  V30 43 H 4.638829 3.069373 -2.117463 0
M  V30 44 H 4.616666 1.686580 -0.993140 0
M  V30 45 H 3.439367 1.473326 -3.440817 0
M  V30 46 H 2.770363 0.706504 -1.994248 0
M  V30 47 H 1.673243 2.974867 -3.550946 0
M  V30 48 H 0.838101 2.122953 -2.236595 0
M  V30 49 H 1.135247 4.143912 -1.065763 0
M  V30 50 H 2.514625 4.536990 -2.104371 0
M  V30 51 H -0.069007 0.922186 1.300813 0
M  V30 52 H -0.948500 -2.530679 4.659164 0
M  V30 53 H -5.693268 -2.798330 -0.986981 0
M  V30 54 H -4.564581 -3.054793 -3.482515 0
M  V30 55 H -3.692591 -4.639058 -5.059801 0
M  V30 56 H -2.664062 -7.198238 -1.790065 0
M  V30 57 H -2.965701 -1.199653 -1.390053 0
M  V30 58 H -1.263688 -0.399452 0.132128 0
M  V30 END ATOM
M  V30 BEGIN BOND
M  V30 1 1 1 2
M  V30 2 1 2 3
M  V30 3 2 3 4
M  V30 4 1 4 5
M  V30 5 2 5 6
M  V30 6 1 6 7
M  V30 7 1 7 8
M  V30 8 1 8 9
M  V30 9 1 9 10
M  V30 10 1 10 11
M  V30 11 1 11 12
M  V30 12 1 12 13
M  V30 13 1 6 14
M  V30 14 2 14 15
M  V30 15 1 15 16
M  V30 16 1 16 17
M  V30 17 1 17 18
M  V30 18 2 18 19
M  V30 19 1 19 20
M  V30 20 2 20 21
M  V30 21 1 21 22
M  V30 22 1 22 23
M  V30 23 2 23 24
M  V30 24 1 24 25
M  V30 25 2 25 26
M  V30 26 1 26 27
M  V30 27 1 26 28
M  V30 28 2 28 29
M  V30 29 1 29 30
M  V30 30 1 21 31
M  V30 31 2 31 32
M  V30 32 1 32 33
M  V30 33 1 15 3
M  V30 34 2 33 16
M  V30 35 1 13 9
M  V30 36 1 33 19
M  V30 37 1 29 23
M  V30 38 1 1 34
M  V30 39 1 1 35
M  V30 40 1 1 36
M  V30 41 1 4 37
M  V30 42 1 5 38
M  V30 43 1 7 39
M  V30 44 1 7 40
M  V30 45 1 8 41
M  V30 46 1 9 42
M  V30 47 1 10 43
M  V30 48 1 10 44
M  V30 49 1 11 45
M  V30 50 1 11 46
M  V30 51 1 12 47
M  V30 52 1 12 48
M  V30 53 1 13 49
M  V30 54 1 13 50
M  V30 55 1 14 51
M  V30 56 1 17 52
M  V30 57 1 22 53
M  V30 58 1 24 54
M  V30 59 1 25 55
M  V30 60 1 28 56
M  V30 61 1 31 57
M  V30 62 1 32 58
M  V30 END BOND
M  V30 END CTAB
M  END
>  <Dataset>  (915) 
ChEMBL_Kinases

>  <Ligand_Instance>  (915) 
nan

>  <PDB_ID>  (915) 
nan

>  <Standardized_SMILES>  (915) 
COc1ccc(CNC2CCCC2)cc1-c1[nH]nc2nc(Nc3ccc(F)cc3F)ccc12

>  <Name>  (915) 
nan

>  <Pocket>  (915) 
nan

>  <ATP_Site>  (915) 
nan

>  <Peripheral>  (915) 
nan

>  <Num_H_Atoms_ProtBoundConf>  (915) 
nan

>  <Num_Resolved_Atoms>  (915) 
nan

>  <Num_Not_Resolved_Atoms>  (915) 
nan

$$$$
CHEMBL425346
     RDKit          3D

  0  0  0  0  0  0  0  0  0  0999 V3000
M  V30 BEGIN CTAB
M  V30 COUNTS 60 63 0 0 0
M  V30 BEGIN ATOM
M  V30 1 N 2.756972 -3.498823 4.881743 0
M  V30 2 C 2.016899 -2.801467 4.329573 0
M  V30 3 C 1.108354 -1.918486 3.652142 0
M  V30 4 C 1.614547 -1.000697 2.726888 0
M  V30 5 C 3.085448 -0.906017 2.412118 0
M  V30 6 C 3.474410 -1.792620 1.288075 0
M  V30 7 C 4.289119 -1.195202 0.202696 0
M  V30 8 C 4.986607 0.087517 0.583823 0
M  V30 9 N 3.911764 0.982589 1.041102 0
M  V30 10 C 3.532396 0.511892 2.333843 0
M  V30 11 C 0.736080 -0.154924 2.079595 0
M  V30 12 C -0.598129 -0.286630 2.404854 0
M  V30 13 C -1.531379 0.620183 1.705782 0
M  V30 14 C -1.689096 1.797946 2.454525 0
M  V30 15 O -1.085287 2.102475 3.661861 0
M  V30 16 C -2.538381 2.751837 1.926319 0
M  V30 17 C -3.220684 2.616592 0.739168 0
M  V30 18 C -3.004303 1.444713 0.087931 0
M  V30 19 C -2.193095 0.403165 0.481465 0
M  V30 20 O -1.843082 -0.765267 0.045079 0
M  V30 21 C -1.791557 -1.803931 -0.758996 0
M  V30 22 C -1.236581 -1.491368 -2.139064 0
M  V30 23 C -1.199384 -2.747371 -2.993810 0
M  V30 24 C -2.333585 -2.881803 -3.947313 0
M  V30 25 C -3.580535 -2.147049 -3.638450 0
M  V30 26 C -3.397054 -0.733281 -3.139773 0
M  V30 27 C -1.953424 -0.410774 -2.871998 0
M  V30 28 N -1.116202 -1.158658 3.289550 0
M  V30 29 C -0.245229 -1.974955 3.910846 0
M  V30 30 N -0.679185 -2.930190 4.859682 0
M  V30 31 H 3.566064 -1.318349 3.349947 0
M  V30 32 H 3.961255 -2.744933 1.653544 0
M  V30 33 H 2.513608 -2.172694 0.830211 0
M  V30 34 H 3.717675 -0.963383 -0.722367 0
M  V30 35 H 5.067301 -1.916345 -0.123442 0
M  V30 36 H 5.406001 0.521172 -0.351002 0
M  V30 37 H 5.756930 -0.018009 1.348055 0
M  V30 38 H 3.169762 1.023175 0.337290 0
M  V30 39 H 4.362852 0.763652 3.027502 0
M  V30 40 H 2.682662 1.169574 2.676969 0
M  V30 41 H 1.052978 0.564023 1.367033 0
M  V30 42 H -0.182972 1.684041 3.933615 0
M  V30 43 H -2.703336 3.684701 2.455918 0
M  V30 44 H -3.883972 3.361813 0.327678 0
M  V30 45 H -3.497099 1.243109 -0.844156 0
M  V30 46 H -2.805304 -2.293582 -0.859079 0
M  V30 47 H -1.156496 -2.677640 -0.404703 0
M  V30 48 H -0.188424 -1.170906 -1.981829 0
M  V30 49 H -1.066679 -3.607810 -2.299512 0
M  V30 50 H -0.272845 -2.698499 -3.604935 0
M  V30 51 H -2.598991 -3.975776 -3.970913 0
M  V30 52 H -2.036441 -2.644027 -5.011572 0
M  V30 53 H -4.210744 -2.762417 -2.931035 0
M  V30 54 H -4.180853 -2.077878 -4.571603 0
M  V30 55 H -3.971836 -0.643819 -2.196814 0
M  V30 56 H -3.798808 0.023547 -3.841538 0
M  V30 57 H -1.833635 0.542824 -2.354266 0
M  V30 58 H -1.425219 -0.277672 -3.858431 0
M  V30 59 H -1.186819 -3.711442 4.365887 0
M  V30 60 H -0.576363 -2.970808 5.909162 0
M  V30 END ATOM
M  V30 BEGIN BOND
M  V30 1 3 1 2
M  V30 2 1 2 3
M  V30 3 2 3 4
M  V30 4 1 4 5
M  V30 5 1 5 6
M  V30 6 1 6 7
M  V30 7 1 7 8
M  V30 8 1 8 9
M  V30 9 1 9 10
M  V30 10 1 4 11
M  V30 11 2 11 12
M  V30 12 1 12 13
M  V30 13 2 13 14
M  V30 14 1 14 15
M  V30 15 1 14 16
M  V30 16 2 16 17
M  V30 17 1 17 18
M  V30 18 2 18 19
M  V30 19 1 19 20
M  V30 20 1 20 21
M  V30 21 1 21 22
M  V30 22 1 22 23
M  V30 23 1 23 24
M  V30 24 1 24 25
M  V30 25 1 25 26
M  V30 26 1 26 27
M  V30 27 1 12 28
M  V30 28 2 28 29
M  V30 29 1 29 30
M  V30 30 1 29 3
M  V30 31 1 10 5
M  V30 32 1 19 13
M  V30 33 1 27 22
M  V30 34 1 5 31
M  V30 35 1 6 32
M  V30 36 1 6 33
M  V30 37 1 7 34
M  V30 38 1 7 35
M  V30 39 1 8 36
M  V30 40 1 8 37
M  V30 41 1 9 38
M  V30 42 1 10 39
M  V30 43 1 10 40
M  V30 44 1 11 41
M  V30 45 1 15 42
M  V30 46 1 16 43
M  V30 47 1 17 44
M  V30 48 1 18 45
M  V30 49 1 21 46
M  V30 50 1 21 47
M  V30 51 1 22 48
M  V30 52 1 23 49
M  V30 53 1 23 50
M  V30 54 1 24 51
M  V30 55 1 24 52
M  V30 56 1 25 53
M  V30 57 1 25 54
M  V30 58 1 26 55
M  V30 59 1 26 56
M  V30 60 1 27 57
M  V30 61 1 27 58
M  V30 62 1 30 59
M  V30 63 1 30 60
M  V30 END BOND
M  V30 END CTAB
M  END
>  <Dataset>  (916) 
ChEMBL_Kinases

>  <Ligand_Instance>  (916) 
nan

>  <PDB_ID>  (916) 
nan

>  <Standardized_SMILES>  (916) 
N#Cc1c(C2CCCNC2)cc(-c2c(O)cccc2OCC2CCCCC2)nc1N

>  <Name>  (916) 
nan

>  <Pocket>  (916) 
nan

>  <ATP_Site>  (916) 
nan

>  <Peripheral>  (916) 
nan

>  <Num_H_Atoms_ProtBoundConf>  (916) 
nan

>  <Num_Resolved_Atoms>  (916) 
nan

>  <Num_Not_Resolved_Atoms>  (916) 
nan

$$$$
CHEMBL425338
     RDKit          3D

  0  0  0  0  0  0  0  0  0  0999 V3000
M  V30 BEGIN CTAB
M  V30 COUNTS 66 71 0 0 0
M  V30 BEGIN ATOM
M  V30 1 C 2.720827 1.752032 4.592933 0
M  V30 2 C 3.350013 1.026253 3.481020 0
M  V30 3 N 4.617197 0.524120 3.579828 0
M  V30 4 C 4.918257 -0.083082 2.417452 0
M  V30 5 C 6.034789 -0.750716 1.957893 0
M  V30 6 C 6.075448 -1.286004 0.699792 0
M  V30 7 C 4.984922 -1.150170 -0.105732 0
M  V30 8 C 3.858326 -0.475337 0.361054 0
M  V30 9 C 3.813190 0.069459 1.637769 0
M  V30 10 N 2.810187 0.756615 2.263415 0
M  V30 11 C 1.521881 1.102442 1.764492 0
M  V30 12 C 0.350143 0.721602 2.599294 0
M  V30 13 C -0.670983 1.814803 2.748157 0
M  V30 14 N -0.994698 2.544779 1.586344 0
M  V30 15 C -2.310114 2.444757 1.068263 0
M  V30 16 C -2.751699 1.117392 0.640644 0
M  V30 17 C -2.456603 0.852519 -0.698524 0
M  V30 18 C -2.790420 -0.342371 -1.298909 0
M  V30 19 C -3.436200 -1.328042 -0.583649 0
M  V30 20 C -3.825611 -2.615922 -1.134989 0
M  V30 21 N -5.144526 -2.875432 -1.145244 0
M  V30 22 C -5.633191 -4.049024 -1.635467 0
M  V30 23 C -4.789187 -5.014882 -2.139773 0
M  V30 24 C -5.324374 -6.233368 -2.646554 0
M  V30 25 N -5.765085 -7.214146 -3.050548 0
M  V30 26 C -3.423901 -4.739056 -2.125869 0
M  V30 27 C -2.939093 -3.554916 -1.630647 0
M  V30 28 C -1.535202 -3.188272 -1.581582 0
M  V30 29 C -0.960277 -3.160467 -2.857982 0
M  V30 30 C 0.379164 -2.829707 -3.029465 0
M  V30 31 C 1.173976 -2.520706 -1.942347 0
M  V30 32 C 0.595378 -2.552307 -0.694561 0
M  V30 33 C -0.730609 -2.878125 -0.508906 0
M  V30 34 C -3.728511 -1.063231 0.746006 0
M  V30 35 C -3.396830 0.134837 1.357670 0
M  V30 36 C 0.039871 2.607081 0.590319 0
M  V30 37 C 1.379163 2.553252 1.340430 0
M  V30 38 H 2.479727 1.072447 5.462616 0
M  V30 39 H 3.510574 2.433697 5.029278 0
M  V30 40 H 1.895999 2.409643 4.335793 0
M  V30 41 H 6.905874 -0.854358 2.613429 0
M  V30 42 H 6.997294 -1.799730 0.410594 0
M  V30 43 H 5.048610 -1.584015 -1.093844 0
M  V30 44 H 2.996253 -0.374498 -0.291179 0
M  V30 45 H 1.394860 0.534580 0.792512 0
M  V30 46 H 0.637166 0.441017 3.652903 0
M  V30 47 H -0.190785 -0.175639 2.232780 0
M  V30 48 H -0.352120 2.570414 3.525756 0
M  V30 49 H -1.574137 1.349579 3.198106 0
M  V30 50 H -2.406193 3.212337 0.262632 0
M  V30 51 H -3.013676 2.788610 1.884882 0
M  V30 52 H -1.958009 1.515602 -1.391927 0
M  V30 53 H -2.589658 -0.603602 -2.325502 0
M  V30 54 H -6.725029 -4.165547 -1.599785 0
M  V30 55 H -2.730742 -5.455747 -2.505872 0
M  V30 56 H -1.492436 -3.387469 -3.793483 0
M  V30 57 H 0.844340 -2.803125 -4.014892 0
M  V30 58 H 2.232196 -2.257370 -2.054785 0
M  V30 59 H 1.157007 -2.320985 0.203913 0
M  V30 60 H -1.265852 -2.927954 0.429166 0
M  V30 61 H -4.231051 -1.815818 1.322585 0
M  V30 62 H -3.600070 0.389746 2.375856 0
M  V30 63 H 0.002364 1.672749 -0.025203 0
M  V30 64 H -0.009258 3.472278 -0.066407 0
M  V30 65 H 1.399092 3.271357 2.157155 0
M  V30 66 H 2.178826 2.700838 0.568137 0
M  V30 END ATOM
M  V30 BEGIN BOND
M  V30 1 1 1 2
M  V30 2 2 2 3
M  V30 3 1 3 4
M  V30 4 2 4 5
M  V30 5 1 5 6
M  V30 6 2 6 7
M  V30 7 1 7 8
M  V30 8 2 8 9
M  V30 9 1 9 10
M  V30 10 1 10 11
M  V30 11 1 11 12
M  V30 12 1 12 13
M  V30 13 1 13 14
M  V30 14 1 14 15
M  V30 15 1 15 16
M  V30 16 2 16 17
M  V30 17 1 17 18
M  V30 18 2 18 19
M  V30 19 1 19 20
M  V30 20 2 20 21
M  V30 21 1 21 22
M  V30 22 2 22 23
M  V30 23 1 23 24
M  V30 24 3 24 25
M  V30 25 1 23 26
M  V30 26 2 26 27
M  V30 27 1 27 28
M  V30 28 2 28 29
M  V30 29 1 29 30
M  V30 30 2 30 31
M  V30 31 1 31 32
M  V30 32 2 32 33
M  V30 33 1 19 34
M  V30 34 2 34 35
M  V30 35 1 14 36
M  V30 36 1 36 37
M  V30 37 1 10 2
M  V30 38 1 37 11
M  V30 39 1 9 4
M  V30 40 1 35 16
M  V30 41 1 27 20
M  V30 42 1 33 28
M  V30 43 1 1 38
M  V30 44 1 1 39
M  V30 45 1 1 40
M  V30 46 1 5 41
M  V30 47 1 6 42
M  V30 48 1 7 43
M  V30 49 1 8 44
M  V30 50 1 11 45
M  V30 51 1 12 46
M  V30 52 1 12 47
M  V30 53 1 13 48
M  V30 54 1 13 49
M  V30 55 1 15 50
M  V30 56 1 15 51
M  V30 57 1 17 52
M  V30 58 1 18 53
M  V30 59 1 22 54
M  V30 60 1 26 55
M  V30 61 1 29 56
M  V30 62 1 30 57
M  V30 63 1 31 58
M  V30 64 1 32 59
M  V30 65 1 33 60
M  V30 66 1 34 61
M  V30 67 1 35 62
M  V30 68 1 36 63
M  V30 69 1 36 64
M  V30 70 1 37 65
M  V30 71 1 37 66
M  V30 END BOND
M  V30 END CTAB
M  END
>  <Dataset>  (917) 
ChEMBL_Kinases

>  <Ligand_Instance>  (917) 
nan

>  <PDB_ID>  (917) 
nan

>  <Standardized_SMILES>  (917) 
Cc1nc2ccccc2n1C1CCN(Cc2ccc(-c3ncc(C#N)cc3-c3ccccc3)cc2)CC1

>  <Name>  (917) 
nan

>  <Pocket>  (917) 
nan

>  <ATP_Site>  (917) 
nan

>  <Peripheral>  (917) 
nan

>  <Num_H_Atoms_ProtBoundConf>  (917) 
nan

>  <Num_Resolved_Atoms>  (917) 
nan

>  <Num_Not_Resolved_Atoms>  (917) 
nan

$$$$
CHEMBL4763465
     RDKit          3D

  0  0  0  0  0  0  0  0  0  0999 V3000
M  V30 BEGIN CTAB
M  V30 COUNTS 51 54 0 0 0
M  V30 BEGIN ATOM
M  V30 1 O 2.838873 -0.662579 1.829568 0
M  V30 2 C 2.656380 -0.915618 3.044197 0
M  V30 3 N 3.684340 -1.732047 3.565623 0
M  V30 4 C 4.759117 -2.157303 2.703793 0
M  V30 5 C 5.943647 -1.489343 2.495388 0
M  V30 6 C 6.880548 -2.026018 1.635848 0
M  V30 7 C 6.672364 -3.218934 0.970910 0
M  V30 8 Cl 7.877872 -3.875547 -0.112928 0
M  V30 9 C 5.458610 -3.869970 1.206245 0
M  V30 10 C 4.500136 -3.355540 2.063005 0
M  V30 11 N 1.579107 -0.479591 3.875861 0
M  V30 12 C 0.608670 0.344846 3.207257 0
M  V30 13 C 0.653033 1.726103 3.112438 0
M  V30 14 C -0.348860 2.394010 2.438371 0
M  V30 15 C -1.411350 1.711929 1.846393 0
M  V30 16 C -2.444072 2.491283 1.143564 0
M  V30 17 C -2.096728 2.680246 -0.325964 0
M  V30 18 N -1.967521 1.419664 -1.024057 0
M  V30 19 C -3.073190 0.538704 -1.155006 0
M  V30 20 N -4.293962 0.803638 -0.663554 0
M  V30 21 N -5.339172 0.003908 -0.776799 0
M  V30 22 C -5.306758 -1.184906 -1.404610 0
M  V30 23 O -6.292463 -1.957261 -1.520856 0
M  V30 24 C -4.087622 -1.540255 -1.942616 0
M  V30 25 C -3.979603 -2.747051 -2.601608 0
M  V30 26 C -2.784167 -3.151521 -3.158217 0
M  V30 27 C -1.704923 -2.296625 -3.026119 0
M  V30 28 C -1.850370 -1.107193 -2.365321 0
M  V30 29 C -3.029056 -0.672790 -1.798002 0
M  V30 30 C -1.411070 0.332243 1.968478 0
M  V30 31 C -0.427842 -0.370743 2.634186 0
M  V30 32 H 3.698216 -2.049983 4.580776 0
M  V30 33 H 6.054006 -0.557621 3.043148 0
M  V30 34 H 7.803192 -1.468979 1.497497 0
M  V30 35 H 5.261559 -4.816116 0.696222 0
M  V30 36 H 3.587486 -3.939398 2.178426 0
M  V30 37 H 1.588677 -0.791997 4.881833 0
M  V30 38 H 1.498907 2.203709 3.589505 0
M  V30 39 H -0.252127 3.473850 2.402336 0
M  V30 40 H -3.402102 1.942598 1.182862 0
M  V30 41 H -2.541398 3.464941 1.660871 0
M  V30 42 H -1.130886 3.219870 -0.333717 0
M  V30 43 H -2.831004 3.347578 -0.825468 0
M  V30 44 H -1.040849 1.208177 -1.411413 0
M  V30 45 H -6.253826 0.318788 -0.348046 0
M  V30 46 H -4.866203 -3.374027 -2.670945 0
M  V30 47 H -2.733656 -4.095106 -3.663647 0
M  V30 48 H -0.780905 -2.644128 -3.474482 0
M  V30 49 H -0.945600 -0.529799 -2.326946 0
M  V30 50 H -2.226510 -0.219784 1.516670 0
M  V30 51 H -0.503242 -1.455018 2.683709 0
M  V30 END ATOM
M  V30 BEGIN BOND
M  V30 1 2 1 2
M  V30 2 1 2 3
M  V30 3 1 3 4
M  V30 4 2 4 5
M  V30 5 1 5 6
M  V30 6 2 6 7
M  V30 7 1 7 8
M  V30 8 1 7 9
M  V30 9 2 9 10
M  V30 10 1 2 11
M  V30 11 1 11 12
M  V30 12 2 12 13
M  V30 13 1 13 14
M  V30 14 2 14 15
M  V30 15 1 15 16
M  V30 16 1 16 17
M  V30 17 1 17 18
M  V30 18 1 18 19
M  V30 19 2 19 20
M  V30 20 1 20 21
M  V30 21 1 21 22
M  V30 22 2 22 23
M  V30 23 1 22 24
M  V30 24 2 24 25
M  V30 25 1 25 26
M  V30 26 2 26 27
M  V30 27 1 27 28
M  V30 28 2 28 29
M  V30 29 1 15 30
M  V30 30 2 30 31
M  V30 31 1 10 4
M  V30 32 1 31 12
M  V30 33 1 29 19
M  V30 34 1 29 24
M  V30 35 1 3 32
M  V30 36 1 5 33
M  V30 37 1 6 34
M  V30 38 1 9 35
M  V30 39 1 10 36
M  V30 40 1 11 37
M  V30 41 1 13 38
M  V30 42 1 14 39
M  V30 43 1 16 40
M  V30 44 1 16 41
M  V30 45 1 17 42
M  V30 46 1 17 43
M  V30 47 1 18 44
M  V30 48 1 21 45
M  V30 49 1 25 46
M  V30 50 1 26 47
M  V30 51 1 27 48
M  V30 52 1 28 49
M  V30 53 1 30 50
M  V30 54 1 31 51
M  V30 END BOND
M  V30 END CTAB
M  END
>  <Dataset>  (918) 
ChEMBL_Kinases

>  <Ligand_Instance>  (918) 
nan

>  <PDB_ID>  (918) 
nan

>  <Standardized_SMILES>  (918) 
O=C(Nc1ccc(Cl)cc1)Nc1ccc(CCNc2n[nH]c(=O)c3ccccc23)cc1

>  <Name>  (918) 
nan

>  <Pocket>  (918) 
nan

>  <ATP_Site>  (918) 
nan

>  <Peripheral>  (918) 
nan

>  <Num_H_Atoms_ProtBoundConf>  (918) 
nan

>  <Num_Resolved_Atoms>  (918) 
nan

>  <Num_Not_Resolved_Atoms>  (918) 
nan

$$$$
CHEMBL4763483
     RDKit          3D

  0  0  0  0  0  0  0  0  0  0999 V3000
M  V30 BEGIN CTAB
M  V30 COUNTS 56 60 0 0 0
M  V30 BEGIN ATOM
M  V30 1 O 2.475058 -5.491683 -0.060428 0
M  V30 2 C 2.132537 -5.551976 -1.281570 0
M  V30 3 N 2.921107 -4.635837 -2.062544 0
M  V30 4 C 3.829382 -3.965277 -1.184682 0
M  V30 5 C 5.103645 -4.397079 -0.864836 0
M  V30 6 N 5.588550 -3.452745 -0.006484 0
M  V30 7 N 4.671910 -2.512822 0.181547 0
M  V30 8 C 3.561030 -2.782844 -0.526843 0
M  V30 9 C 2.364088 -1.948579 -0.543660 0
M  V30 10 N 2.165514 -0.795295 0.128490 0
M  V30 11 C 0.938008 -0.312647 -0.137204 0
M  V30 12 C 0.306228 0.903410 0.370159 0
M  V30 13 C -0.974573 1.289236 0.014723 0
M  V30 14 C -1.549407 2.451602 0.514041 0
M  V30 15 C -0.859066 3.268021 1.387893 0
M  V30 16 C -1.461299 4.492579 1.916453 0
M  V30 17 N -2.181836 4.323071 3.136231 0
M  V30 18 C -3.284431 3.422634 3.106338 0
M  V30 19 C -4.606820 4.083047 2.795114 0
M  V30 20 O -4.825288 5.134029 3.644601 0
M  V30 21 C -3.795824 5.456141 4.491494 0
M  V30 22 C -2.458700 5.537086 3.834338 0
M  V30 23 C 0.416455 2.861538 1.727012 0
M  V30 24 C 1.024516 1.716684 1.255241 0
M  V30 25 C 0.316299 -1.181104 -1.012035 0
M  V30 26 N 1.224174 -2.156616 -1.226922 0
M  V30 27 C 1.091624 -6.408472 -1.880901 0
M  V30 28 C 0.745185 -6.451850 -3.203804 0
M  V30 29 C -0.256511 -7.317193 -3.588231 0
M  V30 30 C -0.939043 -8.152060 -2.709736 0
M  V30 31 Cl -2.189004 -9.194560 -3.362464 0
M  V30 32 C -0.564681 -8.087080 -1.364372 0
M  V30 33 C 0.429261 -7.226380 -0.992560 0
M  V30 34 H 2.743744 -4.577616 -3.108402 0
M  V30 35 H 5.547442 -5.305655 -1.257205 0
M  V30 36 H 6.558472 -3.535501 0.400365 0
M  V30 37 H -1.477267 0.627314 -0.666508 0
M  V30 38 H -2.553855 2.668279 0.177760 0
M  V30 39 H -2.061098 4.982873 1.106213 0
M  V30 40 H -0.646165 5.221397 2.128042 0
M  V30 41 H -3.402896 3.043271 4.164376 0
M  V30 42 H -3.088426 2.532794 2.512120 0
M  V30 43 H -4.706929 4.409695 1.762628 0
M  V30 44 H -5.377907 3.279562 2.971522 0
M  V30 45 H -4.055583 6.470947 4.913987 0
M  V30 46 H -3.736434 4.703851 5.302067 0
M  V30 47 H -2.376470 6.366418 3.102461 0
M  V30 48 H -1.702032 5.743390 4.614348 0
M  V30 49 H 1.010064 3.469396 2.415727 0
M  V30 50 H 2.017888 1.405832 1.523136 0
M  V30 51 H -0.676598 -1.098045 -1.431433 0
M  V30 52 H 0.996688 -2.951169 -1.864171 0
M  V30 53 H 1.281283 -5.803710 -3.858422 0
M  V30 54 H -0.519019 -7.340938 -4.633230 0
M  V30 55 H -1.124106 -8.753649 -0.726747 0
M  V30 56 H 0.614620 -7.281582 0.079813 0
M  V30 END ATOM
M  V30 BEGIN BOND
M  V30 1 2 1 2
M  V30 2 1 2 3
M  V30 3 1 3 4
M  V30 4 2 4 5
M  V30 5 1 5 6
M  V30 6 1 6 7
M  V30 7 2 7 8
M  V30 8 1 8 9
M  V30 9 2 9 10
M  V30 10 1 10 11
M  V30 11 1 11 12
M  V30 12 2 12 13
M  V30 13 1 13 14
M  V30 14 2 14 15
M  V30 15 1 15 16
M  V30 16 1 16 17
M  V30 17 1 17 18
M  V30 18 1 18 19
M  V30 19 1 19 20
M  V30 20 1 20 21
M  V30 21 1 21 22
M  V30 22 1 15 23
M  V30 23 2 23 24
M  V30 24 2 11 25
M  V30 25 1 25 26
M  V30 26 1 2 27
M  V30 27 2 27 28
M  V30 28 1 28 29
M  V30 29 2 29 30
M  V30 30 1 30 31
M  V30 31 1 30 32
M  V30 32 2 32 33
M  V30 33 1 8 4
M  V30 34 1 26 9
M  V30 35 1 33 27
M  V30 36 1 24 12
M  V30 37 1 22 17
M  V30 38 1 3 34
M  V30 39 1 5 35
M  V30 40 1 6 36
M  V30 41 1 13 37
M  V30 42 1 14 38
M  V30 43 1 16 39
M  V30 44 1 16 40
M  V30 45 1 18 41
M  V30 46 1 18 42
M  V30 47 1 19 43
M  V30 48 1 19 44
M  V30 49 1 21 45
M  V30 50 1 21 46
M  V30 51 1 22 47
M  V30 52 1 22 48
M  V30 53 1 23 49
M  V30 54 1 24 50
M  V30 55 1 25 51
M  V30 56 1 26 52
M  V30 57 1 28 53
M  V30 58 1 29 54
M  V30 59 1 32 55
M  V30 60 1 33 56
M  V30 END BOND
M  V30 END CTAB
M  END
>  <Dataset>  (919) 
ChEMBL_Kinases

>  <Ligand_Instance>  (919) 
nan

>  <PDB_ID>  (919) 
nan

>  <Standardized_SMILES>  (919) 
O=C(Nc1c[nH]nc1-c1nc(-c2ccc(CN3CCOCC3)cc2)c[nH]1)c1ccc(Cl)cc1

>  <Name>  (919) 
nan

>  <Pocket>  (919) 
nan

>  <ATP_Site>  (919) 
nan

>  <Peripheral>  (919) 
nan

>  <Num_H_Atoms_ProtBoundConf>  (919) 
nan

>  <Num_Resolved_Atoms>  (919) 
nan

>  <Num_Not_Resolved_Atoms>  (919) 
nan

$$$$
CHEMBL425280
     RDKit          3D

  0  0  0  0  0  0  0  0  0  0999 V3000
M  V30 BEGIN CTAB
M  V30 COUNTS 75 79 0 0 0
M  V30 BEGIN ATOM
M  V30 1 C -1.878895 5.193767 -0.629256 0
M  V30 2 O -1.285842 4.350784 0.314628 0
M  V30 3 C -0.457148 3.314953 -0.093007 0
M  V30 4 C -0.202500 3.102736 -1.458704 0
M  V30 5 C 0.651325 2.018229 -1.770050 0
M  V30 6 C 0.925675 1.754492 -3.117953 0
M  V30 7 N 0.276022 2.599079 -4.105535 0
M  V30 8 C -1.045977 2.047574 -4.259829 0
M  V30 9 C -1.723180 1.082870 -3.527825 0
M  V30 10 C -2.947882 0.810221 -4.087366 0
M  V30 11 C -3.958189 -0.186508 -3.603432 0
M  V30 12 C -3.270019 -1.535354 -3.609464 0
M  V30 13 O -3.455329 -2.240819 -2.551158 0
M  V30 14 N -2.466604 -2.121133 -4.596652 0
M  V30 15 C -1.841723 -3.387288 -4.578145 0
M  V30 16 C -2.539536 -4.444434 -5.146828 0
M  V30 17 C -1.939983 -5.682106 -5.137622 0
M  V30 18 C -0.702587 -5.988815 -4.613878 0
M  V30 19 C -0.064453 -4.898149 -4.064318 0
M  V30 20 C -0.574757 -3.635296 -4.026416 0
M  V30 21 F 0.096073 -2.599690 -3.461942 0
M  V30 22 N -2.997609 1.624426 -5.152004 0
M  V30 23 N -1.906340 2.352829 -5.274416 0
M  V30 24 N 1.724519 0.733244 -3.433007 0
M  V30 25 C 2.322252 -0.110060 -2.535817 0
M  V30 26 N 1.865292 0.414526 -1.554275 0
M  V30 27 C 1.233214 1.177680 -0.764698 0
M  V30 28 C 0.937461 1.455239 0.511529 0
M  V30 29 C 0.117127 2.485782 0.884112 0
M  V30 30 O -0.154526 2.709119 2.115921 0
M  V30 31 C -0.221110 2.615277 3.427645 0
M  V30 32 C 0.986802 2.510801 4.291224 0
M  V30 33 C 1.814159 1.277156 4.201024 0
M  V30 34 N 1.174115 0.036351 4.494990 0
M  V30 35 C 2.135239 -0.989242 4.916935 0
M  V30 36 C 1.507978 -2.372066 4.985324 0
M  V30 37 C 1.127084 -2.804372 3.565407 0
M  V30 38 C 2.043180 -3.852666 3.018983 0
M  V30 39 O 1.722967 -4.243794 1.707591 0
M  V30 40 C 1.057995 -1.563520 2.702333 0
M  V30 41 C 0.299491 -0.497698 3.488342 0
M  V30 42 H -2.651865 5.814487 -0.132507 0
M  V30 43 H -1.144567 5.809156 -1.170760 0
M  V30 44 H -2.386021 4.534749 -1.409593 0
M  V30 45 H -0.660546 3.755371 -2.169627 0
M  V30 46 H 0.511995 3.422979 -4.668296 0
M  V30 47 H -1.371034 0.594838 -2.627657 0
M  V30 48 H -4.144468 0.080352 -2.519642 0
M  V30 49 H -4.890299 -0.206912 -4.127050 0
M  V30 50 H -2.367263 -1.461963 -5.429200 0
M  V30 51 H -3.526287 -4.351893 -5.604217 0
M  V30 52 H -2.508938 -6.509620 -5.601408 0
M  V30 53 H -0.370823 -7.010446 -4.680470 0
M  V30 54 H 0.908265 -5.072389 -3.636760 0
M  V30 55 H -3.853985 1.632081 -5.784368 0
M  V30 56 H 2.915271 -0.830091 -3.027661 0
M  V30 57 H 1.463658 0.741742 1.118080 0
M  V30 58 H -1.021196 1.937700 3.877986 0
M  V30 59 H -0.706415 3.644545 3.783076 0
M  V30 60 H 0.713805 2.733643 5.353570 0
M  V30 61 H 1.606134 3.430200 4.015115 0
M  V30 62 H 2.623066 1.395063 5.001277 0
M  V30 63 H 2.378697 1.304494 3.236568 0
M  V30 64 H 3.014498 -0.945441 4.263055 0
M  V30 65 H 2.452092 -0.724257 5.938626 0
M  V30 66 H 0.629124 -2.401105 5.648294 0
M  V30 67 H 2.264824 -3.069060 5.346744 0
M  V30 68 H 0.102548 -3.221976 3.623237 0
M  V30 69 H 1.907673 -4.828860 3.604710 0
M  V30 70 H 3.109180 -3.622150 3.172472 0
M  V30 71 H 1.582607 -3.498094 1.091528 0
M  V30 72 H 0.518561 -1.722388 1.756652 0
M  V30 73 H 2.071201 -1.216619 2.478554 0
M  V30 74 H -0.062975 0.238819 2.818285 0
M  V30 75 H -0.561259 -0.997915 4.015521 0
M  V30 END ATOM
M  V30 BEGIN BOND
M  V30 1 1 1 2
M  V30 2 1 2 3
M  V30 3 2 3 4
M  V30 4 1 4 5
M  V30 5 2 5 6
M  V30 6 1 6 7
M  V30 7 1 7 8
M  V30 8 1 8 9
M  V30 9 2 9 10
M  V30 10 1 10 11
M  V30 11 1 11 12
M  V30 12 2 12 13
M  V30 13 1 12 14
M  V30 14 1 14 15
M  V30 15 2 15 16
M  V30 16 1 16 17
M  V30 17 2 17 18
M  V30 18 1 18 19
M  V30 19 2 19 20
M  V30 20 1 20 21
M  V30 21 1 10 22
M  V30 22 1 22 23
M  V30 23 1 6 24
M  V30 24 2 24 25
M  V30 25 1 25 26
M  V30 26 2 26 27
M  V30 27 1 27 28
M  V30 28 2 28 29
M  V30 29 1 29 30
M  V30 30 1 30 31
M  V30 31 1 31 32
M  V30 32 1 32 33
M  V30 33 1 33 34
M  V30 34 1 34 35
M  V30 35 1 35 36
M  V30 36 1 36 37
M  V30 37 1 37 38
M  V30 38 1 38 39
M  V30 39 1 37 40
M  V30 40 1 40 41
M  V30 41 1 29 3
M  V30 42 1 41 34
M  V30 43 1 27 5
M  V30 44 2 23 8
M  V30 45 1 20 15
M  V30 46 1 1 42
M  V30 47 1 1 43
M  V30 48 1 1 44
M  V30 49 1 4 45
M  V30 50 1 7 46
M  V30 51 1 9 47
M  V30 52 1 11 48
M  V30 53 1 11 49
M  V30 54 1 14 50
M  V30 55 1 16 51
M  V30 56 1 17 52
M  V30 57 1 18 53
M  V30 58 1 19 54
M  V30 59 1 22 55
M  V30 60 1 25 56
M  V30 61 1 28 57
M  V30 62 1 31 58
M  V30 63 1 31 59
M  V30 64 1 32 60
M  V30 65 1 32 61
M  V30 66 1 33 62
M  V30 67 1 33 63
M  V30 68 1 35 64
M  V30 69 1 35 65
M  V30 70 1 36 66
M  V30 71 1 36 67
M  V30 72 1 37 68
M  V30 73 1 38 69
M  V30 74 1 38 70
M  V30 75 1 39 71
M  V30 76 1 40 72
M  V30 77 1 40 73
M  V30 78 1 41 74
M  V30 79 1 41 75
M  V30 END BOND
M  V30 END CTAB
M  END
>  <Dataset>  (920) 
ChEMBL_Kinases

>  <Ligand_Instance>  (920) 
nan

>  <PDB_ID>  (920) 
nan

>  <Standardized_SMILES>  (920) 
COc1cc2c(Nc3cc(CC(=O)Nc4ccccc4F)[nH]n3)ncnc2cc1OCCCN1CCC(CO)CC1

>  <Name>  (920) 
nan

>  <Pocket>  (920) 
nan

>  <ATP_Site>  (920) 
nan

>  <Peripheral>  (920) 
nan

>  <Num_H_Atoms_ProtBoundConf>  (920) 
nan

>  <Num_Resolved_Atoms>  (920) 
nan

>  <Num_Not_Resolved_Atoms>  (920) 
nan

$$$$
CHEMBL4763505
     RDKit          3D

  0  0  0  0  0  0  0  0  0  0999 V3000
M  V30 BEGIN CTAB
M  V30 COUNTS 49 53 0 0 0
M  V30 BEGIN ATOM
M  V30 1 C 2.926292 2.890538 4.297269 0
M  V30 2 O 2.744034 2.345120 3.004973 0
M  V30 3 C 3.581861 1.323465 2.573813 0
M  V30 4 C 4.629340 0.706325 3.226750 0
M  V30 5 C 5.329608 -0.293641 2.602682 0
M  V30 6 C 5.004940 -0.700385 1.320528 0
M  V30 7 C 3.962036 -0.104726 0.636524 0
M  V30 8 F 3.684388 -0.534502 -0.607880 0
M  V30 9 C 3.261632 0.905304 1.278531 0
M  V30 10 C 2.173489 1.469368 0.461144 0
M  V30 11 C 0.912142 0.886046 0.560269 0
M  V30 12 C -0.110204 1.431073 -0.220440 0
M  V30 13 C 0.202321 2.503929 -1.030347 0
M  V30 14 C 1.463105 3.059130 -1.105860 0
M  V30 15 N 2.423477 2.516514 -0.346563 0
M  V30 16 C -0.999547 2.816400 -1.670449 0
M  V30 17 N -1.925801 1.961598 -1.236893 0
M  V30 18 N -1.423952 1.107665 -0.357579 0
M  V30 19 C -2.114536 0.059923 0.312884 0
M  V30 20 C -2.900417 0.236576 1.451141 0
M  V30 21 C -3.554279 -0.781907 2.078698 0
M  V30 22 C -3.456044 -2.079895 1.586649 0
M  V30 23 C -2.673590 -2.228709 0.460775 0
M  V30 24 N -2.532198 -3.530715 -0.092234 0
M  V30 25 C -3.096876 -4.792955 0.344794 0
M  V30 26 C -3.782806 -5.242046 -0.946408 0
M  V30 27 C -2.667908 -4.994189 -1.948992 0
M  V30 28 C -1.789975 -3.978499 -1.244251 0
M  V30 29 N -2.034845 -1.217683 -0.147861 0
M  V30 30 H 3.991352 2.942951 4.607637 0
M  V30 31 H 2.418139 2.246433 5.071838 0
M  V30 32 H 2.543567 3.949625 4.338336 0
M  V30 33 H 4.793534 1.104823 4.223281 0
M  V30 34 H 6.143493 -0.740200 3.169505 0
M  V30 35 H 5.609832 -1.507148 0.884396 0
M  V30 36 H 0.723250 0.046050 1.211828 0
M  V30 37 H 1.678840 3.906753 -1.755478 0
M  V30 38 H -1.143649 3.620732 -2.395953 0
M  V30 39 H -2.931201 1.277205 1.779102 0
M  V30 40 H -4.143199 -0.533362 2.963532 0
M  V30 41 H -3.975153 -2.887052 2.085264 0
M  V30 42 H -3.786520 -4.716824 1.189619 0
M  V30 43 H -2.285075 -5.550862 0.497764 0
M  V30 44 H -4.622418 -4.558039 -1.177927 0
M  V30 45 H -4.092850 -6.293962 -0.894072 0
M  V30 46 H -2.121319 -5.938731 -2.042393 0
M  V30 47 H -3.036618 -4.589621 -2.908282 0
M  V30 48 H -1.552968 -3.152530 -1.953930 0
M  V30 49 H -0.853822 -4.472815 -0.890133 0
M  V30 END ATOM
M  V30 BEGIN BOND
M  V30 1 1 1 2
M  V30 2 1 2 3
M  V30 3 2 3 4
M  V30 4 1 4 5
M  V30 5 2 5 6
M  V30 6 1 6 7
M  V30 7 1 7 8
M  V30 8 2 7 9
M  V30 9 1 9 10
M  V30 10 2 10 11
M  V30 11 1 11 12
M  V30 12 2 12 13
M  V30 13 1 13 14
M  V30 14 2 14 15
M  V30 15 1 13 16
M  V30 16 2 16 17
M  V30 17 1 17 18
M  V30 18 1 18 19
M  V30 19 2 19 20
M  V30 20 1 20 21
M  V30 21 2 21 22
M  V30 22 1 22 23
M  V30 23 1 23 24
M  V30 24 1 24 25
M  V30 25 1 25 26
M  V30 26 1 26 27
M  V30 27 1 27 28
M  V30 28 2 23 29
M  V30 29 1 9 3
M  V30 30 1 15 10
M  V30 31 1 29 19
M  V30 32 1 18 12
M  V30 33 1 28 24
M  V30 34 1 1 30
M  V30 35 1 1 31
M  V30 36 1 1 32
M  V30 37 1 4 33
M  V30 38 1 5 34
M  V30 39 1 6 35
M  V30 40 1 11 36
M  V30 41 1 14 37
M  V30 42 1 16 38
M  V30 43 1 20 39
M  V30 44 1 21 40
M  V30 45 1 22 41
M  V30 46 1 25 42
M  V30 47 1 25 43
M  V30 48 1 26 44
M  V30 49 1 26 45
M  V30 50 1 27 46
M  V30 51 1 27 47
M  V30 52 1 28 48
M  V30 53 1 28 49
M  V30 END BOND
M  V30 END CTAB
M  END
>  <Dataset>  (921) 
ChEMBL_Kinases

>  <Ligand_Instance>  (921) 
nan

>  <PDB_ID>  (921) 
nan

>  <Standardized_SMILES>  (921) 
COc1cccc(F)c1-c1cc2c(cn1)cnn2-c1cccc(N2CCCC2)n1

>  <Name>  (921) 
nan

>  <Pocket>  (921) 
nan

>  <ATP_Site>  (921) 
nan

>  <Peripheral>  (921) 
nan

>  <Num_H_Atoms_ProtBoundConf>  (921) 
nan

>  <Num_Resolved_Atoms>  (921) 
nan

>  <Num_Not_Resolved_Atoms>  (921) 
nan

$$$$
CHEMBL476351
     RDKit          3D

  0  0  0  0  0  0  0  0  0  0999 V3000
M  V30 BEGIN CTAB
M  V30 COUNTS 65 69 0 0 0
M  V30 BEGIN ATOM
M  V30 1 C 2.611917 -4.081764 3.307719 0
M  V30 2 C 2.364094 -2.671248 2.947762 0
M  V30 3 C 3.108662 -1.631273 3.464965 0
M  V30 4 C 2.846496 -0.326198 3.102825 0
M  V30 5 C 1.814703 -0.097170 2.206226 0
M  V30 6 N 1.597509 1.269853 1.876610 0
M  V30 7 C 2.225875 1.955320 0.800909 0
M  V30 8 O 3.036146 1.322447 0.077254 0
M  V30 9 C 1.979007 3.358682 0.491852 0
M  V30 10 C 2.663405 3.894026 -0.582926 0
M  V30 11 C 2.460360 5.232932 -0.918253 0
M  V30 12 N 1.604353 5.966302 -0.186785 0
M  V30 13 C 0.933167 5.457131 0.860315 0
M  V30 14 N 0.059909 6.335642 1.549414 0
M  V30 15 C -0.083630 7.702372 1.131783 0
M  V30 16 C -1.536191 8.099061 0.970640 0
M  V30 17 O -2.233280 7.818159 2.121282 0
M  V30 18 C -2.184608 6.448740 2.349651 0
M  V30 19 C -0.763445 6.048550 2.682991 0
M  V30 20 C 1.107025 4.138744 1.222578 0
M  V30 21 C 1.063812 -1.136865 1.683634 0
M  V30 22 C 1.338056 -2.438292 2.055625 0
M  V30 23 C 0.472197 -3.433359 1.433547 0
M  V30 24 C -0.149294 -4.486876 2.039490 0
M  V30 25 C -0.949736 -5.370072 1.347029 0
M  V30 26 C -1.154890 -5.217721 -0.008009 0
M  V30 27 C -2.012378 -6.184988 -0.682544 0
M  V30 28 O -2.519548 -7.104116 0.002934 0
M  V30 29 N -2.309993 -6.154177 -2.062011 0
M  V30 30 C -3.190961 -7.251387 -2.430852 0
M  V30 31 C -3.455902 -7.140658 -3.920786 0
M  V30 32 C -4.341446 -8.153433 -4.573416 0
M  V30 33 C -2.875896 -8.151634 -4.844077 0
M  V30 34 C -0.550860 -4.169941 -0.671125 0
M  V30 35 C 0.240602 -3.311127 0.058548 0
M  V30 36 H 2.334666 -4.790988 2.502753 0
M  V30 37 H 2.090533 -4.294372 4.276896 0
M  V30 38 H 3.705755 -4.275957 3.488647 0
M  V30 39 H 3.893512 -1.890430 4.156126 0
M  V30 40 H 3.455785 0.462506 3.532865 0
M  V30 41 H 0.925852 1.767329 2.488584 0
M  V30 42 H 3.366238 3.370438 -1.217610 0
M  V30 43 H 2.991288 5.678942 -1.765403 0
M  V30 44 H 0.367539 8.353599 1.933786 0
M  V30 45 H 0.420791 7.842660 0.169639 0
M  V30 46 H -1.558176 9.209950 0.809874 0
M  V30 47 H -1.908508 7.571655 0.071300 0
M  V30 48 H -2.445138 5.944101 1.406662 0
M  V30 49 H -2.868737 6.229712 3.176874 0
M  V30 50 H -0.735165 4.984457 2.994322 0
M  V30 51 H -0.477748 6.650702 3.580880 0
M  V30 52 H 0.569363 3.725167 2.063791 0
M  V30 53 H 0.296298 -0.791867 0.997744 0
M  V30 54 H 0.021602 -4.591311 3.101903 0
M  V30 55 H -1.397319 -6.173945 1.923599 0
M  V30 56 H -1.901808 -5.401876 -2.653329 0
M  V30 57 H -4.144700 -7.247860 -1.851877 0
M  V30 58 H -2.693865 -8.242840 -2.264364 0
M  V30 59 H -3.542090 -6.119136 -4.344306 0
M  V30 60 H -4.791263 -8.961719 -3.964113 0
M  V30 61 H -5.049740 -7.817473 -5.372624 0
M  V30 62 H -2.222250 -8.943552 -4.427718 0
M  V30 63 H -2.601717 -7.866854 -5.872660 0
M  V30 64 H -0.700469 -4.034823 -1.733490 0
M  V30 65 H 0.703170 -2.489681 -0.508760 0
M  V30 END ATOM
M  V30 BEGIN BOND
M  V30 1 1 1 2
M  V30 2 2 2 3
M  V30 3 1 3 4
M  V30 4 2 4 5
M  V30 5 1 5 6
M  V30 6 1 6 7
M  V30 7 2 7 8
M  V30 8 1 7 9
M  V30 9 2 9 10
M  V30 10 1 10 11
M  V30 11 2 11 12
M  V30 12 1 12 13
M  V30 13 1 13 14
M  V30 14 1 14 15
M  V30 15 1 15 16
M  V30 16 1 16 17
M  V30 17 1 17 18
M  V30 18 1 18 19
M  V30 19 2 13 20
M  V30 20 1 5 21
M  V30 21 2 21 22
M  V30 22 1 22 23
M  V30 23 2 23 24
M  V30 24 1 24 25
M  V30 25 2 25 26
M  V30 26 1 26 27
M  V30 27 2 27 28
M  V30 28 1 27 29
M  V30 29 1 29 30
M  V30 30 1 30 31
M  V30 31 1 31 32
M  V30 32 1 32 33
M  V30 33 1 26 34
M  V30 34 2 34 35
M  V30 35 1 22 2
M  V30 36 1 35 23
M  V30 37 1 20 9
M  V30 38 1 33 31
M  V30 39 1 19 14
M  V30 40 1 1 36
M  V30 41 1 1 37
M  V30 42 1 1 38
M  V30 43 1 3 39
M  V30 44 1 4 40
M  V30 45 1 6 41
M  V30 46 1 10 42
M  V30 47 1 11 43
M  V30 48 1 15 44
M  V30 49 1 15 45
M  V30 50 1 16 46
M  V30 51 1 16 47
M  V30 52 1 18 48
M  V30 53 1 18 49
M  V30 54 1 19 50
M  V30 55 1 19 51
M  V30 56 1 20 52
M  V30 57 1 21 53
M  V30 58 1 24 54
M  V30 59 1 25 55
M  V30 60 1 29 56
M  V30 61 1 30 57
M  V30 62 1 30 58
M  V30 63 1 31 59
M  V30 64 1 32 60
M  V30 65 1 32 61
M  V30 66 1 33 62
M  V30 67 1 33 63
M  V30 68 1 34 64
M  V30 69 1 35 65
M  V30 END BOND
M  V30 END CTAB
M  END
>  <Dataset>  (922) 
ChEMBL_Kinases

>  <Ligand_Instance>  (922) 
nan

>  <PDB_ID>  (922) 
nan

>  <Standardized_SMILES>  (922) 
Cc1ccc(NC(=O)c2ccnc(N3CCOCC3)c2)cc1-c1ccc(C(=O)NCC2CC2)cc1

>  <Name>  (922) 
GW775608X

>  <Pocket>  (922) 
nan

>  <ATP_Site>  (922) 
nan

>  <Peripheral>  (922) 
nan

>  <Num_H_Atoms_ProtBoundConf>  (922) 
nan

>  <Num_Resolved_Atoms>  (922) 
nan

>  <Num_Not_Resolved_Atoms>  (922) 
nan

$$$$
CHEMBL425265
     RDKit          3D

  0  0  0  0  0  0  0  0  0  0999 V3000
M  V30 BEGIN CTAB
M  V30 COUNTS 60 64 0 0 0
M  V30 BEGIN ATOM
M  V30 1 C 2.054960 -0.930369 5.428061 0
M  V30 2 C 2.975747 -1.695427 4.517574 0
M  V30 3 C 3.260264 -3.057495 5.157063 0
M  V30 4 N 2.541292 -1.834033 3.174644 0
M  V30 5 C 1.318870 -2.506267 2.940442 0
M  V30 6 C 0.187367 -1.698294 2.415484 0
M  V30 7 N 0.595318 -0.564175 1.633590 0
M  V30 8 C -0.061186 -0.214446 0.422221 0
M  V30 9 N 0.208232 0.853465 -0.350942 0
M  V30 10 C -0.437072 1.147276 -1.493711 0
M  V30 11 C 0.073492 2.353250 -2.125526 0
M  V30 12 C -0.559026 3.530613 -2.462996 0
M  V30 13 C 0.123604 4.571082 -3.054046 0
M  V30 14 C 1.470931 4.504026 -3.343600 0
M  V30 15 Cl 2.208939 5.901872 -4.096490 0
M  V30 16 C 2.127168 3.333399 -3.013608 0
M  V30 17 C 1.439276 2.292729 -2.421790 0
M  V30 18 Cl 2.427055 0.895102 -2.075965 0
M  V30 19 C -1.448077 0.316614 -1.930071 0
M  V30 20 C -1.734882 -0.781467 -1.149149 0
M  V30 21 N -1.048492 -1.010966 -0.018975 0
M  V30 22 N -2.756235 -1.668649 -1.581113 0
M  V30 23 C -3.097018 -2.833535 -0.808404 0
M  V30 24 C -4.013669 -3.015536 0.186101 0
M  V30 25 Cl -4.911216 -1.547382 0.552787 0
M  V30 26 C -4.149717 -4.240491 0.773434 0
M  V30 27 C -3.368120 -5.300624 0.371253 0
M  V30 28 C -2.417894 -5.156447 -0.643483 0
M  V30 29 C -2.297908 -3.902644 -1.224523 0
M  V30 30 Cl -1.064749 -3.863440 -2.486113 0
M  V30 31 C -3.496179 -1.480733 -2.780335 0
M  V30 32 O -4.402986 -2.212073 -3.221318 0
M  V30 33 N -3.121609 -0.330425 -3.505216 0
M  V30 34 C -2.117195 0.693871 -3.196691 0
M  V30 35 C 1.723820 0.220588 2.134528 0
M  V30 36 C 2.868097 -0.750425 2.311831 0
M  V30 37 H 1.006835 -1.246398 5.405469 0
M  V30 38 H 2.194623 0.176864 5.324713 0
M  V30 39 H 2.426809 -1.133898 6.473614 0
M  V30 40 H 3.946438 -1.142856 4.493542 0
M  V30 41 H 2.800156 -3.851512 4.529650 0
M  V30 42 H 4.367424 -3.249424 5.231680 0
M  V30 43 H 2.847098 -3.122477 6.176379 0
M  V30 44 H 1.528544 -3.336643 2.203756 0
M  V30 45 H 1.030847 -3.045543 3.866213 0
M  V30 46 H -0.443899 -2.372585 1.765547 0
M  V30 47 H -0.525829 -1.361515 3.202381 0
M  V30 48 H -1.594327 3.554497 -2.218420 0
M  V30 49 H -0.503872 5.431554 -3.260910 0
M  V30 50 H 3.179918 3.313348 -3.252642 0
M  V30 51 H -4.904449 -4.283791 1.552449 0
M  V30 52 H -3.515068 -6.249170 0.866561 0
M  V30 53 H -1.845873 -6.026324 -0.904022 0
M  V30 54 H -3.564329 -0.077000 -4.411377 0
M  V30 55 H -2.587055 1.676561 -3.203900 0
M  V30 56 H -1.345597 0.568268 -3.994113 0
M  V30 57 H 2.016704 0.936354 1.325893 0
M  V30 58 H 1.490580 0.813892 3.018273 0
M  V30 59 H 3.733859 -0.203736 2.759057 0
M  V30 60 H 3.115938 -1.131973 1.280128 0
M  V30 END ATOM
M  V30 BEGIN BOND
M  V30 1 1 1 2
M  V30 2 1 2 3
M  V30 3 1 2 4
M  V30 4 1 4 5
M  V30 5 1 5 6
M  V30 6 1 6 7
M  V30 7 1 7 8
M  V30 8 2 8 9
M  V30 9 1 9 10
M  V30 10 1 10 11
M  V30 11 2 11 12
M  V30 12 1 12 13
M  V30 13 2 13 14
M  V30 14 1 14 15
M  V30 15 1 14 16
M  V30 16 2 16 17
M  V30 17 1 17 18
M  V30 18 2 10 19
M  V30 19 1 19 20
M  V30 20 2 20 21
M  V30 21 1 20 22
M  V30 22 1 22 23
M  V30 23 2 23 24
M  V30 24 1 24 25
M  V30 25 1 24 26
M  V30 26 2 26 27
M  V30 27 1 27 28
M  V30 28 2 28 29
M  V30 29 1 29 30
M  V30 30 1 22 31
M  V30 31 2 31 32
M  V30 32 1 31 33
M  V30 33 1 33 34
M  V30 34 1 7 35
M  V30 35 1 35 36
M  V30 36 1 36 4
M  V30 37 1 21 8
M  V30 38 1 29 23
M  V30 39 1 17 11
M  V30 40 1 34 19
M  V30 41 1 1 37
M  V30 42 1 1 38
M  V30 43 1 1 39
M  V30 44 1 2 40
M  V30 45 1 3 41
M  V30 46 1 3 42
M  V30 47 1 3 43
M  V30 48 1 5 44
M  V30 49 1 5 45
M  V30 50 1 6 46
M  V30 51 1 6 47
M  V30 52 1 12 48
M  V30 53 1 13 49
M  V30 54 1 16 50
M  V30 55 1 26 51
M  V30 56 1 27 52
M  V30 57 1 28 53
M  V30 58 1 33 54
M  V30 59 1 34 55
M  V30 60 1 34 56
M  V30 61 1 35 57
M  V30 62 1 35 58
M  V30 63 1 36 59
M  V30 64 1 36 60
M  V30 END BOND
M  V30 END CTAB
M  END
>  <Dataset>  (923) 
ChEMBL_Kinases

>  <Ligand_Instance>  (923) 
nan

>  <PDB_ID>  (923) 
nan

>  <Standardized_SMILES>  (923) 
CC(C)N1CCN(c2nc(-c3ccc(Cl)cc3Cl)c3c(n2)N(c2c(Cl)cccc2Cl)C(=O)NC3)CC1

>  <Name>  (923) 
nan

>  <Pocket>  (923) 
nan

>  <ATP_Site>  (923) 
nan

>  <Peripheral>  (923) 
nan

>  <Num_H_Atoms_ProtBoundConf>  (923) 
nan

>  <Num_Resolved_Atoms>  (923) 
nan

>  <Num_Not_Resolved_Atoms>  (923) 
nan

$$$$
CHEMBL425242
     RDKit          3D

  0  0  0  0  0  0  0  0  0  0999 V3000
M  V30 BEGIN CTAB
M  V30 COUNTS 57 61 0 0 0
M  V30 BEGIN ATOM
M  V30 1 O 1.022388 0.010943 1.742792 0
M  V30 2 C 0.621878 1.175823 1.505825 0
M  V30 3 O 1.466507 2.206906 1.216872 0
M  V30 4 C 2.865514 2.084697 1.154074 0
M  V30 5 C 3.499136 1.642234 2.418612 0
M  V30 6 C 3.852795 0.376757 2.829689 0
M  V30 7 C 4.423729 0.129575 4.049549 0
M  V30 8 C 4.681587 1.141934 4.947826 0
M  V30 9 C 4.341262 2.423009 4.570926 0
M  V30 10 C 3.767268 2.651390 3.338642 0
M  V30 11 N -0.767430 1.542417 1.514853 0
M  V30 12 C -1.413517 2.824174 1.266834 0
M  V30 13 C -2.825745 2.502210 0.887145 0
M  V30 14 C -3.127982 1.214590 1.638626 0
M  V30 15 C -1.808728 0.544704 1.810983 0
M  V30 16 C -1.666566 -0.568685 0.803085 0
M  V30 17 C -1.694010 -1.933090 1.060265 0
M  V30 18 C -1.523448 -2.530450 -0.186649 0
M  V30 19 C -1.504382 -3.988970 -0.275743 0
M  V30 20 C -0.286348 -4.473056 -0.744230 0
M  V30 21 C -0.086971 -5.832250 -0.893036 0
M  V30 22 N -1.075046 -6.691836 -0.583619 0
M  V30 23 C -2.256760 -6.239223 -0.130082 0
M  V30 24 C -2.503294 -4.892081 0.035165 0
M  V30 25 C -1.399772 -1.542109 -1.145937 0
M  V30 26 C -1.211945 -1.978319 -2.526462 0
M  V30 27 C -2.272479 -2.720807 -3.050312 0
M  V30 28 C -2.244561 -3.207588 -4.351271 0
M  V30 29 C -1.153287 -2.966531 -5.170244 0
M  V30 30 F -1.143564 -3.449220 -6.435999 0
M  V30 31 C -0.112198 -2.230091 -4.636353 0
M  V30 32 C -0.127949 -1.741504 -3.346765 0
M  V30 33 N -1.490608 -0.351742 -0.515301 0
M  V30 34 H 3.343403 3.061376 0.871797 0
M  V30 35 H 3.147531 1.380853 0.316254 0
M  V30 36 H 3.656020 -0.407088 2.116899 0
M  V30 37 H 4.656838 -0.906740 4.258665 0
M  V30 38 H 5.133080 0.816401 5.871846 0
M  V30 39 H 4.552867 3.200953 5.291346 0
M  V30 40 H 3.546183 3.685508 3.156114 0
M  V30 41 H -0.894699 3.355353 0.420253 0
M  V30 42 H -1.347326 3.460886 2.167602 0
M  V30 43 H -2.946935 2.356628 -0.200722 0
M  V30 44 H -3.538073 3.269028 1.268765 0
M  V30 45 H -3.829373 0.593448 1.056267 0
M  V30 46 H -3.502152 1.477193 2.651669 0
M  V30 47 H -1.611265 0.129806 2.810037 0
M  V30 48 H -1.825571 -2.306989 2.054387 0
M  V30 49 H 0.565803 -3.863821 -1.018745 0
M  V30 50 H 0.851094 -6.245175 -1.256189 0
M  V30 51 H -3.096951 -6.870008 0.138573 0
M  V30 52 H -3.406851 -4.420429 0.389055 0
M  V30 53 H -3.162567 -2.961549 -2.496373 0
M  V30 54 H -3.062468 -3.779239 -4.752203 0
M  V30 55 H 0.755316 -2.025479 -5.253420 0
M  V30 56 H 0.652198 -1.168710 -2.892820 0
M  V30 57 H -1.419565 0.520232 -1.077728 0
M  V30 END ATOM
M  V30 BEGIN BOND
M  V30 1 2 1 2
M  V30 2 1 2 3
M  V30 3 1 3 4
M  V30 4 1 4 5
M  V30 5 2 5 6
M  V30 6 1 6 7
M  V30 7 2 7 8
M  V30 8 1 8 9
M  V30 9 2 9 10
M  V30 10 1 2 11
M  V30 11 1 11 12
M  V30 12 1 12 13
M  V30 13 1 13 14
M  V30 14 1 14 15
M  V30 15 1 15 16
M  V30 16 2 16 17
M  V30 17 1 17 18
M  V30 18 1 18 19
M  V30 19 2 19 20
M  V30 20 1 20 21
M  V30 21 2 21 22
M  V30 22 1 22 23
M  V30 23 2 23 24
M  V30 24 2 18 25
M  V30 25 1 25 26
M  V30 26 2 26 27
M  V30 27 1 27 28
M  V30 28 2 28 29
M  V30 29 1 29 30
M  V30 30 1 29 31
M  V30 31 2 31 32
M  V30 32 1 25 33
M  V30 33 1 10 5
M  V30 34 1 15 11
M  V30 35 1 33 16
M  V30 36 1 24 19
M  V30 37 1 32 26
M  V30 38 1 4 34
M  V30 39 1 4 35
M  V30 40 1 6 36
M  V30 41 1 7 37
M  V30 42 1 8 38
M  V30 43 1 9 39
M  V30 44 1 10 40
M  V30 45 1 12 41
M  V30 46 1 12 42
M  V30 47 1 13 43
M  V30 48 1 13 44
M  V30 49 1 14 45
M  V30 50 1 14 46
M  V30 51 1 15 47
M  V30 52 1 17 48
M  V30 53 1 20 49
M  V30 54 1 21 50
M  V30 55 1 23 51
M  V30 56 1 24 52
M  V30 57 1 27 53
M  V30 58 1 28 54
M  V30 59 1 31 55
M  V30 60 1 32 56
M  V30 61 1 33 57
M  V30 END BOND
M  V30 END CTAB
M  END
>  <Dataset>  (924) 
ChEMBL_Kinases

>  <Ligand_Instance>  (924) 
nan

>  <PDB_ID>  (924) 
nan

>  <Standardized_SMILES>  (924) 
O=C(OCc1ccccc1)N1CCCC1c1cc(-c2ccncc2)c(-c2ccc(F)cc2)[nH]1

>  <Name>  (924) 
nan

>  <Pocket>  (924) 
nan

>  <ATP_Site>  (924) 
nan

>  <Peripheral>  (924) 
nan

>  <Num_H_Atoms_ProtBoundConf>  (924) 
nan

>  <Num_Resolved_Atoms>  (924) 
nan

>  <Num_Not_Resolved_Atoms>  (924) 
nan

$$$$
CHEMBL425240
     RDKit          3D

  0  0  0  0  0  0  0  0  0  0999 V3000
M  V30 BEGIN CTAB
M  V30 COUNTS 35 38 0 0 0
M  V30 BEGIN ATOM
M  V30 1 N 0.053862 -2.659962 4.628365 0
M  V30 2 C 0.766373 -2.213425 3.477683 0
M  V30 3 N 2.107383 -2.244314 3.441340 0
M  V30 4 C 2.763129 -1.816665 2.341477 0
M  V30 5 C 2.037307 -1.344175 1.247291 0
M  V30 6 C 0.658939 -1.317074 1.295987 0
M  V30 7 C -0.228656 -0.857771 0.247384 0
M  V30 8 C -0.315693 0.416066 -0.281304 0
M  V30 9 C 0.463055 1.590546 0.091773 0
M  V30 10 C 1.239217 2.134080 -0.922409 0
M  V30 11 C 2.041514 3.246119 -0.754374 0
M  V30 12 C 2.042765 3.816119 0.502208 0
M  V30 13 F 2.792212 4.909020 0.778882 0
M  V30 14 C 1.285202 3.305577 1.536244 0
M  V30 15 C 0.489178 2.194060 1.351440 0
M  V30 16 N -1.266129 0.416899 -1.233929 0
M  V30 17 C -1.782430 -0.827327 -1.320067 0
M  V30 18 C -2.772616 -1.325817 -2.139484 0
M  V30 19 C -3.136295 -2.653740 -2.043712 0
M  V30 20 Cl -4.383642 -3.384862 -3.040118 0
M  V30 21 C -2.448053 -3.380713 -1.102177 0
M  V30 22 C -1.453563 -2.918792 -0.265757 0
M  V30 23 N -1.144847 -1.595821 -0.414884 0
M  V30 24 N 0.071409 -1.758426 2.423583 0
M  V30 25 H -0.119542 -3.658362 4.355198 0
M  V30 26 H -0.266937 -2.242622 5.530916 0
M  V30 27 H 3.838849 -1.817372 2.253460 0
M  V30 28 H 2.486190 -0.981749 0.324183 0
M  V30 29 H 1.257356 1.703214 -1.926564 0
M  V30 30 H 2.640884 3.653809 -1.564231 0
M  V30 31 H 1.267117 3.730788 2.527996 0
M  V30 32 H -0.141412 1.714432 2.091128 0
M  V30 33 H -3.286248 -0.701291 -2.870593 0
M  V30 34 H -2.695060 -4.431044 -0.985732 0
M  V30 35 H -0.966654 -3.570859 0.448088 0
M  V30 END ATOM
M  V30 BEGIN BOND
M  V30 1 1 1 2
M  V30 2 2 2 3
M  V30 3 1 3 4
M  V30 4 2 4 5
M  V30 5 1 5 6
M  V30 6 1 6 7
M  V30 7 2 7 8
M  V30 8 1 8 9
M  V30 9 2 9 10
M  V30 10 1 10 11
M  V30 11 2 11 12
M  V30 12 1 12 13
M  V30 13 1 12 14
M  V30 14 2 14 15
M  V30 15 1 8 16
M  V30 16 2 16 17
M  V30 17 1 17 18
M  V30 18 2 18 19
M  V30 19 1 19 20
M  V30 20 1 19 21
M  V30 21 2 21 22
M  V30 22 1 22 23
M  V30 23 2 6 24
M  V30 24 1 24 2
M  V30 25 1 23 7
M  V30 26 1 15 9
M  V30 27 1 23 17
M  V30 28 1 1 25
M  V30 29 1 1 26
M  V30 30 1 4 27
M  V30 31 1 5 28
M  V30 32 1 10 29
M  V30 33 1 11 30
M  V30 34 1 14 31
M  V30 35 1 15 32
M  V30 36 1 18 33
M  V30 37 1 21 34
M  V30 38 1 22 35
M  V30 END BOND
M  V30 END CTAB
M  END
>  <Dataset>  (925) 
ChEMBL_Kinases

>  <Ligand_Instance>  (925) 
nan

>  <PDB_ID>  (925) 
nan

>  <Standardized_SMILES>  (925) 
Nc1nccc(-c2c(-c3ccc(F)cc3)nc3cc(Cl)ccn23)n1

>  <Name>  (925) 
nan

>  <Pocket>  (925) 
nan

>  <ATP_Site>  (925) 
nan

>  <Peripheral>  (925) 
nan

>  <Num_H_Atoms_ProtBoundConf>  (925) 
nan

>  <Num_Resolved_Atoms>  (925) 
nan

>  <Num_Not_Resolved_Atoms>  (925) 
nan

$$$$
CHEMBL425213
     RDKit          3D

  0  0  0  0  0  0  0  0  0  0999 V3000
M  V30 BEGIN CTAB
M  V30 COUNTS 52 55 0 0 0
M  V30 BEGIN ATOM
M  V30 1 N -0.158218 -5.306781 3.260728 0
M  V30 2 C 0.447346 -4.514228 2.641555 0
M  V30 3 C 1.179198 -3.538888 1.862003 0
M  V30 4 C 2.546623 -3.560178 2.028060 0
M  V30 5 N 3.246630 -2.662518 1.314170 0
M  V30 6 C 2.643606 -1.797060 0.488825 0
M  V30 7 C 3.406006 -0.906761 -0.211180 0
M  V30 8 N 2.796467 -0.023773 -1.053284 0
M  V30 9 C 1.450641 -0.000794 -1.217441 0
M  V30 10 N 0.868391 0.943911 -2.127484 0
M  V30 11 C 0.968738 2.252139 -1.461116 0
M  V30 12 C 0.299316 2.216800 -0.098249 0
M  V30 13 C 0.389898 3.531561 0.596567 0
M  V30 14 N -0.165642 3.638980 1.883569 0
M  V30 15 C 0.468205 2.948116 2.939936 0
M  V30 16 C -0.390719 1.750354 3.223768 0
M  V30 17 C -1.703332 2.009506 2.531658 0
M  V30 18 C -1.575350 3.403027 1.998745 0
M  V30 19 C 0.594219 -0.874560 -0.540798 0
M  V30 20 C 1.273858 -1.737568 0.289618 0
M  V30 21 C 0.526050 -2.655381 1.014970 0
M  V30 22 N -0.882801 -2.785276 0.973507 0
M  V30 23 C -1.382657 -3.810372 0.086387 0
M  V30 24 C -0.514725 -4.562083 -0.689870 0
M  V30 25 C -0.932528 -5.563719 -1.545812 0
M  V30 26 C -2.288547 -5.847878 -1.649556 0
M  V30 27 F -2.718509 -6.820981 -2.476665 0
M  V30 28 C -3.173591 -5.112519 -0.886026 0
M  V30 29 Cl -4.891241 -5.483349 -1.026361 0
M  V30 30 C -2.742377 -4.103902 -0.025524 0
M  V30 31 H 3.073214 -4.243833 2.690062 0
M  V30 32 H 4.489180 -0.856270 -0.134802 0
M  V30 33 H 0.431342 0.902056 -3.071506 0
M  V30 34 H 0.528031 3.038195 -2.114081 0
M  V30 35 H 2.061491 2.457110 -1.402039 0
M  V30 36 H 0.793819 1.436509 0.516057 0
M  V30 37 H -0.738952 1.889326 -0.302221 0
M  V30 38 H 1.457738 3.864044 0.645938 0
M  V30 39 H -0.089021 4.300751 -0.065972 0
M  V30 40 H 0.436089 3.597131 3.856295 0
M  V30 41 H 1.540923 2.711684 2.800355 0
M  V30 42 H -0.516984 1.560435 4.307789 0
M  V30 43 H 0.059591 0.844101 2.766135 0
M  V30 44 H -1.851526 1.287121 1.695501 0
M  V30 45 H -2.539233 1.929240 3.272344 0
M  V30 46 H -2.020799 4.077183 2.770343 0
M  V30 47 H -2.098747 3.516686 1.022027 0
M  V30 48 H -0.479855 -0.901568 -0.635870 0
M  V30 49 H -1.619194 -2.252482 1.486796 0
M  V30 50 H 0.572226 -4.389592 -0.657766 0
M  V30 51 H -0.249758 -6.161189 -2.156062 0
M  V30 52 H -3.460187 -3.529009 0.569667 0
M  V30 END ATOM
M  V30 BEGIN BOND
M  V30 1 3 1 2
M  V30 2 1 2 3
M  V30 3 2 3 4
M  V30 4 1 4 5
M  V30 5 2 5 6
M  V30 6 1 6 7
M  V30 7 2 7 8
M  V30 8 1 8 9
M  V30 9 1 9 10
M  V30 10 1 10 11
M  V30 11 1 11 12
M  V30 12 1 12 13
M  V30 13 1 13 14
M  V30 14 1 14 15
M  V30 15 1 15 16
M  V30 16 1 16 17
M  V30 17 1 17 18
M  V30 18 2 9 19
M  V30 19 1 19 20
M  V30 20 2 20 21
M  V30 21 1 21 22
M  V30 22 1 22 23
M  V30 23 2 23 24
M  V30 24 1 24 25
M  V30 25 2 25 26
M  V30 26 1 26 27
M  V30 27 1 26 28
M  V30 28 1 28 29
M  V30 29 2 28 30
M  V30 30 1 21 3
M  V30 31 1 30 23
M  V30 32 1 20 6
M  V30 33 1 18 14
M  V30 34 1 4 31
M  V30 35 1 7 32
M  V30 36 1 10 33
M  V30 37 1 11 34
M  V30 38 1 11 35
M  V30 39 1 12 36
M  V30 40 1 12 37
M  V30 41 1 13 38
M  V30 42 1 13 39
M  V30 43 1 15 40
M  V30 44 1 15 41
M  V30 45 1 16 42
M  V30 46 1 16 43
M  V30 47 1 17 44
M  V30 48 1 17 45
M  V30 49 1 18 46
M  V30 50 1 18 47
M  V30 51 1 19 48
M  V30 52 1 22 49
M  V30 53 1 24 50
M  V30 54 1 25 51
M  V30 55 1 30 52
M  V30 END BOND
M  V30 END CTAB
M  END
>  <Dataset>  (926) 
ChEMBL_Kinases

>  <Ligand_Instance>  (926) 
nan

>  <PDB_ID>  (926) 
nan

>  <Standardized_SMILES>  (926) 
N#Cc1cnc2cnc(NCCCN3CCCC3)cc2c1Nc1ccc(F)c(Cl)c1

>  <Name>  (926) 
nan

>  <Pocket>  (926) 
nan

>  <ATP_Site>  (926) 
nan

>  <Peripheral>  (926) 
nan

>  <Num_H_Atoms_ProtBoundConf>  (926) 
nan

>  <Num_Resolved_Atoms>  (926) 
nan

>  <Num_Not_Resolved_Atoms>  (926) 
nan

$$$$
CHEMBL425401
     RDKit          3D

  0  0  0  0  0  0  0  0  0  0999 V3000
M  V30 BEGIN CTAB
M  V30 COUNTS 56 59 0 0 0
M  V30 BEGIN ATOM
M  V30 1 C 3.599959 -3.832837 -0.913299 0
M  V30 2 N 4.506695 -3.729180 0.203307 0
M  V30 3 C 3.978239 -4.202223 1.430050 0
M  V30 4 C 3.654024 -3.170063 2.469266 0
M  V30 5 N 3.698133 -1.895779 1.810865 0
M  V30 6 C 2.969324 -0.859712 2.410206 0
M  V30 7 C 2.901186 0.456219 1.746146 0
M  V30 8 C 2.291679 0.485541 0.406526 0
M  V30 9 C 2.920424 0.344288 -0.814413 0
M  V30 10 C 2.300989 0.376214 -2.019739 0
M  V30 11 C 0.923316 0.566877 -2.014822 0
M  V30 12 C 0.169100 0.723185 -0.842980 0
M  V30 13 C -1.238181 0.916146 -1.018002 0
M  V30 14 O -1.568582 1.477997 -2.122683 0
M  V30 15 C -2.348335 0.577765 -0.147952 0
M  V30 16 C -2.415838 -0.052752 1.068862 0
M  V30 17 N -3.693088 -0.132565 1.457613 0
M  V30 18 N -4.464728 0.430986 0.523350 0
M  V30 19 C -5.872305 0.494848 0.661856 0
M  V30 20 C -6.638610 1.510720 1.169629 0
M  V30 21 C -8.006335 1.381307 1.219613 0
M  V30 22 C -8.637903 0.223583 0.758897 0
M  V30 23 F -9.980046 0.166134 0.838529 0
M  V30 24 C -7.866513 -0.804726 0.245329 0
M  V30 25 C -6.485178 -0.666646 0.198005 0
M  V30 26 C -3.648560 0.871891 -0.470029 0
M  V30 27 N -4.249391 1.511822 -1.584085 0
M  V30 28 C 0.913965 0.672079 0.315030 0
M  V30 29 C 5.003528 -1.594197 1.323216 0
M  V30 30 C 5.302082 -2.552524 0.203801 0
M  V30 31 H 2.756117 -3.138185 -0.677363 0
M  V30 32 H 4.120967 -3.576967 -1.840783 0
M  V30 33 H 3.165940 -4.854488 -0.902204 0
M  V30 34 H 2.988936 -4.695151 1.192236 0
M  V30 35 H 4.588774 -4.999767 1.902413 0
M  V30 36 H 4.487027 -3.173871 3.216381 0
M  V30 37 H 2.716778 -3.318539 3.000820 0
M  V30 38 H 3.409035 -0.683844 3.424598 0
M  V30 39 H 1.938045 -1.218337 2.609484 0
M  V30 40 H 2.280376 1.122876 2.407183 0
M  V30 41 H 3.911758 0.937932 1.773496 0
M  V30 42 H 3.986344 0.199570 -0.802592 0
M  V30 43 H 2.835437 0.260578 -2.944839 0
M  V30 44 H 0.457187 0.586659 -3.010495 0
M  V30 45 H -1.587397 -0.432572 1.632785 0
M  V30 46 H -6.077295 2.358107 1.498922 0
M  V30 47 H -8.585044 2.199421 1.625170 0
M  V30 48 H -8.408827 -1.662920 -0.089874 0
M  V30 49 H -6.014236 -1.544522 -0.225668 0
M  V30 50 H -4.006670 1.423707 -2.581061 0
M  V30 51 H -5.045182 2.176541 -1.509123 0
M  V30 52 H 0.365294 0.796201 1.215527 0
M  V30 53 H 5.137487 -0.544903 1.118045 0
M  V30 54 H 5.720933 -1.853457 2.156168 0
M  V30 55 H 5.090409 -2.021014 -0.747949 0
M  V30 56 H 6.372264 -2.843318 0.169478 0
M  V30 END ATOM
M  V30 BEGIN BOND
M  V30 1 1 1 2
M  V30 2 1 2 3
M  V30 3 1 3 4
M  V30 4 1 4 5
M  V30 5 1 5 6
M  V30 6 1 6 7
M  V30 7 1 7 8
M  V30 8 2 8 9
M  V30 9 1 9 10
M  V30 10 2 10 11
M  V30 11 1 11 12
M  V30 12 1 12 13
M  V30 13 2 13 14
M  V30 14 1 13 15
M  V30 15 1 15 16
M  V30 16 2 16 17
M  V30 17 1 17 18
M  V30 18 1 18 19
M  V30 19 2 19 20
M  V30 20 1 20 21
M  V30 21 2 21 22
M  V30 22 1 22 23
M  V30 23 1 22 24
M  V30 24 2 24 25
M  V30 25 1 18 26
M  V30 26 1 26 27
M  V30 27 2 12 28
M  V30 28 1 5 29
M  V30 29 1 29 30
M  V30 30 1 30 2
M  V30 31 1 28 8
M  V30 32 2 26 15
M  V30 33 1 25 19
M  V30 34 1 1 31
M  V30 35 1 1 32
M  V30 36 1 1 33
M  V30 37 1 3 34
M  V30 38 1 3 35
M  V30 39 1 4 36
M  V30 40 1 4 37
M  V30 41 1 6 38
M  V30 42 1 6 39
M  V30 43 1 7 40
M  V30 44 1 7 41
M  V30 45 1 9 42
M  V30 46 1 10 43
M  V30 47 1 11 44
M  V30 48 1 16 45
M  V30 49 1 20 46
M  V30 50 1 21 47
M  V30 51 1 24 48
M  V30 52 1 25 49
M  V30 53 1 27 50
M  V30 54 1 27 51
M  V30 55 1 28 52
M  V30 56 1 29 53
M  V30 57 1 29 54
M  V30 58 1 30 55
M  V30 59 1 30 56
M  V30 END BOND
M  V30 END CTAB
M  END
>  <Dataset>  (927) 
ChEMBL_Kinases

>  <Ligand_Instance>  (927) 
nan

>  <PDB_ID>  (927) 
nan

>  <Standardized_SMILES>  (927) 
CN1CCN(CCc2cccc(C(=O)c3cnn(-c4ccc(F)cc4)c3N)c2)CC1

>  <Name>  (927) 
nan

>  <Pocket>  (927) 
nan

>  <ATP_Site>  (927) 
nan

>  <Peripheral>  (927) 
nan

>  <Num_H_Atoms_ProtBoundConf>  (927) 
nan

>  <Num_Resolved_Atoms>  (927) 
nan

>  <Num_Not_Resolved_Atoms>  (927) 
nan

$$$$
CHEMBL4225012
     RDKit          3D

  0  0  0  0  0  0  0  0  0  0999 V3000
M  V30 BEGIN CTAB
M  V30 COUNTS 74 78 0 0 0
M  V30 BEGIN ATOM
M  V30 1 C 4.013448 -0.444855 3.645791 0
M  V30 2 C 3.069665 -1.569169 3.897133 0
M  V30 3 C 1.792313 -1.286398 4.014812 0
M  V30 4 C 1.129612 -0.006826 3.936112 0
M  V30 5 O -0.142023 0.098175 4.074807 0
M  V30 6 N 1.326888 1.382627 3.741873 0
M  V30 7 C 0.203636 2.218747 3.772948 0
M  V30 8 C -0.327130 2.845102 4.895347 0
M  V30 9 C -1.443909 3.631946 4.714420 0
M  V30 10 C -2.058520 3.834543 3.509605 0
M  V30 11 N -3.137856 4.558201 3.162886 0
M  V30 12 N -3.292026 4.397073 1.847460 0
M  V30 13 C -2.349812 3.595116 1.336258 0
M  V30 14 C -1.530213 3.208135 2.378150 0
M  V30 15 C -0.409121 2.416713 2.552930 0
M  V30 16 C 0.801744 -2.379832 4.273075 0
M  V30 17 C -0.235483 -2.440370 3.207402 0
M  V30 18 C -1.555714 -2.187454 3.512977 0
M  V30 19 C -2.510674 -2.235973 2.521173 0
M  V30 20 C -2.079426 -2.542207 1.251251 0
M  V30 21 F -3.037462 -2.579927 0.307033 0
M  V30 22 C -0.798708 -2.803610 0.871124 0
M  V30 23 C -0.298222 -3.131317 -0.447605 0
M  V30 24 O 0.964680 -3.251521 -0.597064 0
M  V30 25 N -0.975865 -3.353865 -1.660370 0
M  V30 26 C -0.617089 -3.660045 -2.983476 0
M  V30 27 C 0.197062 -2.738420 -3.782716 0
M  V30 28 C 1.569289 -2.389691 -3.278931 0
M  V30 29 N -0.422130 -1.523674 -4.209886 0
M  V30 30 C -0.922090 -0.636833 -3.244696 0
M  V30 31 C -2.074930 0.186336 -3.837502 0
M  V30 32 C -1.609916 1.151685 -4.882523 0
M  V30 33 C -0.300956 0.759421 -5.516233 0
M  V30 34 C -0.611188 -0.480616 -6.356346 0
M  V30 35 C -1.078239 -1.613177 -5.465640 0
M  V30 36 C 0.121864 -2.740451 1.913178 0
M  V30 37 N 1.552745 -3.602812 4.308917 0
M  V30 38 C 2.909139 -3.997140 4.196939 0
M  V30 39 O 3.271488 -5.170947 4.291016 0
M  V30 40 N 3.695504 -2.840274 3.970896 0
M  V30 41 H 5.085747 -0.810939 3.577891 0
M  V30 42 H 3.982650 0.263627 4.472052 0
M  V30 43 H 3.739657 0.030545 2.684070 0
M  V30 44 H 2.343765 1.561904 3.600479 0
M  V30 45 H 0.177104 2.669145 5.834081 0
M  V30 46 H -1.870007 4.125054 5.576517 0
M  V30 47 H -3.772235 5.151923 3.748697 0
M  V30 48 H -2.205868 3.273641 0.306657 0
M  V30 49 H -0.062909 1.965011 1.609309 0
M  V30 50 H 0.329941 -2.208295 5.253350 0
M  V30 51 H -1.881257 -1.952535 4.518072 0
M  V30 52 H -3.545064 -2.040051 2.744323 0
M  V30 53 H -2.034463 -3.269096 -1.544543 0
M  V30 54 H -0.019393 -4.634407 -2.928451 0
M  V30 55 H -1.499365 -3.982243 -3.610845 0
M  V30 56 H 0.408173 -3.298635 -4.758810 0
M  V30 57 H 2.188902 -3.248585 -3.005918 0
M  V30 58 H 2.105106 -1.959904 -4.192773 0
M  V30 59 H 1.594289 -1.533991 -2.571181 0
M  V30 60 H -1.368934 -1.124334 -2.360505 0
M  V30 61 H -0.189794 0.167629 -2.935588 0
M  V30 62 H -2.440075 0.803654 -2.964595 0
M  V30 63 H -2.940028 -0.433597 -4.113057 0
M  V30 64 H -2.371606 1.140815 -5.689081 0
M  V30 65 H -1.569576 2.204353 -4.513000 0
M  V30 66 H -0.002715 1.557238 -6.225977 0
M  V30 67 H 0.501402 0.515842 -4.801666 0
M  V30 68 H 0.284133 -0.704658 -6.933794 0
M  V30 69 H -1.414919 -0.171495 -7.075199 0
M  V30 70 H -0.672691 -2.544593 -5.967849 0
M  V30 71 H -2.158971 -1.755561 -5.456523 0
M  V30 72 H 1.192905 -2.928806 1.742006 0
M  V30 73 H 0.799937 -4.343235 4.463996 0
M  V30 74 H 4.721994 -2.977041 3.866794 0
M  V30 END ATOM
M  V30 BEGIN BOND
M  V30 1 1 1 2
M  V30 2 2 2 3
M  V30 3 1 3 4
M  V30 4 2 4 5
M  V30 5 1 4 6
M  V30 6 1 6 7
M  V30 7 2 7 8
M  V30 8 1 8 9
M  V30 9 2 9 10
M  V30 10 1 10 11
M  V30 11 1 11 12
M  V30 12 2 12 13
M  V30 13 1 13 14
M  V30 14 2 14 15
M  V30 15 1 3 16
M  V30 16 1 16 17
M  V30 17 2 17 18
M  V30 18 1 18 19
M  V30 19 2 19 20
M  V30 20 1 20 21
M  V30 21 1 20 22
M  V30 22 1 22 23
M  V30 23 2 23 24
M  V30 24 1 23 25
M  V30 25 1 25 26
M  V30 26 1 26 27
M  V30 27 1 27 28
M  V30 28 1 27 29
M  V30 29 1 29 30
M  V30 30 1 30 31
M  V30 31 1 31 32
M  V30 32 1 32 33
M  V30 33 1 33 34
M  V30 34 1 34 35
M  V30 35 2 22 36
M  V30 36 1 16 37
M  V30 37 1 37 38
M  V30 38 2 38 39
M  V30 39 1 38 40
M  V30 40 1 40 2
M  V30 41 1 15 7
M  V30 42 1 36 17
M  V30 43 1 14 10
M  V30 44 1 35 29
M  V30 45 1 1 41
M  V30 46 1 1 42
M  V30 47 1 1 43
M  V30 48 1 6 44
M  V30 49 1 8 45
M  V30 50 1 9 46
M  V30 51 1 11 47
M  V30 52 1 13 48
M  V30 53 1 15 49
M  V30 54 1 16 50
M  V30 55 1 18 51
M  V30 56 1 19 52
M  V30 57 1 25 53
M  V30 58 1 26 54
M  V30 59 1 26 55
M  V30 60 1 27 56
M  V30 61 1 28 57
M  V30 62 1 28 58
M  V30 63 1 28 59
M  V30 64 1 30 60
M  V30 65 1 30 61
M  V30 66 1 31 62
M  V30 67 1 31 63
M  V30 68 1 32 64
M  V30 69 1 32 65
M  V30 70 1 33 66
M  V30 71 1 33 67
M  V30 72 1 34 68
M  V30 73 1 34 69
M  V30 74 1 35 70
M  V30 75 1 35 71
M  V30 76 1 36 72
M  V30 77 1 37 73
M  V30 78 1 40 74
M  V30 END BOND
M  V30 END CTAB
M  END
>  <Dataset>  (928) 
ChEMBL_Kinases

>  <Ligand_Instance>  (928) 
nan

>  <PDB_ID>  (928) 
nan

>  <Standardized_SMILES>  (928) 
CC1=C(C(=O)Nc2ccc3[nH]ncc3c2)C(c2ccc(F)c(C(=O)NCC(C)N3CCCCCC3)c2)NC(=O)N1

>  <Name>  (928) 
nan

>  <Pocket>  (928) 
nan

>  <ATP_Site>  (928) 
nan

>  <Peripheral>  (928) 
nan

>  <Num_H_Atoms_ProtBoundConf>  (928) 
nan

>  <Num_Resolved_Atoms>  (928) 
nan

>  <Num_Not_Resolved_Atoms>  (928) 
nan

$$$$
CHEMBL4225003
     RDKit          3D

  0  0  0  0  0  0  0  0  0  0999 V3000
M  V30 BEGIN CTAB
M  V30 COUNTS 50 54 0 0 0
M  V30 BEGIN ATOM
M  V30 1 C 3.285885 -3.712848 -0.016492 0
M  V30 2 C 2.470718 -2.680891 -0.729571 0
M  V30 3 C 2.667258 -1.361725 -0.364103 0
M  V30 4 C 1.910802 -0.424616 -1.028087 0
M  V30 5 C 2.078227 1.001467 -0.675951 0
M  V30 6 N 2.523719 1.911776 -1.551806 0
M  V30 7 C 2.559850 3.101903 -0.926914 0
M  V30 8 C 2.914442 4.410335 -1.256816 0
M  V30 9 C 2.824988 5.427783 -0.329907 0
M  V30 10 C 2.372595 5.146368 0.960175 0
M  V30 11 N 2.023944 3.871210 1.291408 0
M  V30 12 N 2.137569 2.940667 0.340485 0
M  V30 13 C 1.826533 1.641002 0.538211 0
M  V30 14 C 1.328238 0.833342 1.660495 0
M  V30 15 C 2.007369 0.779333 2.859391 0
M  V30 16 C 1.450270 -0.014267 3.839089 0
M  V30 17 N 0.314448 -0.708127 3.670742 0
M  V30 18 C -0.384375 -0.693817 2.532864 0
M  V30 19 N -1.572657 -1.453008 2.424624 0
M  V30 20 C -2.468046 -1.614150 1.364594 0
M  V30 21 O -2.232076 -1.003529 0.294058 0
M  V30 22 C -3.668615 -2.437233 1.384027 0
M  V30 23 C -4.443155 -2.481426 0.225214 0
M  V30 24 C -5.607439 -3.257470 0.186694 0
M  V30 25 C -6.007064 -3.983415 1.276654 0
M  V30 26 C -5.262079 -3.954879 2.424512 0
M  V30 27 Cl -5.722310 -4.864002 3.855328 0
M  V30 28 C -4.100209 -3.177191 2.455100 0
M  V30 29 C 0.169535 0.097612 1.553947 0
M  V30 30 C 0.988672 -0.698386 -2.012448 0
M  V30 31 C 0.820254 -2.032389 -2.350768 0
M  V30 32 C 1.561288 -3.015682 -1.708314 0
M  V30 33 F 1.399766 -4.323552 -2.035825 0
M  V30 34 H 2.808753 -3.907326 0.987102 0
M  V30 35 H 4.325553 -3.414929 0.152088 0
M  V30 36 H 3.188657 -4.660528 -0.565270 0
M  V30 37 H 3.364781 -1.041305 0.394604 0
M  V30 38 H 3.263949 4.591622 -2.275746 0
M  V30 39 H 3.119745 6.391561 -0.682209 0
M  V30 40 H 2.322299 5.982918 1.648210 0
M  V30 41 H 2.923302 1.337853 2.997355 0
M  V30 42 H 1.926749 -0.106549 4.808392 0
M  V30 43 H -1.871579 -2.007722 3.262879 0
M  V30 44 H -4.203754 -1.938515 -0.686978 0
M  V30 45 H -6.234163 -3.316754 -0.694611 0
M  V30 46 H -6.887462 -4.602155 1.324019 0
M  V30 47 H -3.526408 -3.167156 3.368592 0
M  V30 48 H -0.320384 0.176622 0.595890 0
M  V30 49 H 0.431493 0.080176 -2.490260 0
M  V30 50 H 0.101646 -2.309442 -3.125401 0
M  V30 END ATOM
M  V30 BEGIN BOND
M  V30 1 1 1 2
M  V30 2 2 2 3
M  V30 3 1 3 4
M  V30 4 1 4 5
M  V30 5 1 5 6
M  V30 6 2 6 7
M  V30 7 1 7 8
M  V30 8 2 8 9
M  V30 9 1 9 10
M  V30 10 2 10 11
M  V30 11 1 11 12
M  V30 12 1 12 13
M  V30 13 1 13 14
M  V30 14 2 14 15
M  V30 15 1 15 16
M  V30 16 2 16 17
M  V30 17 1 17 18
M  V30 18 1 18 19
M  V30 19 1 19 20
M  V30 20 2 20 21
M  V30 21 1 20 22
M  V30 22 2 22 23
M  V30 23 1 23 24
M  V30 24 2 24 25
M  V30 25 1 25 26
M  V30 26 1 26 27
M  V30 27 2 26 28
M  V30 28 2 18 29
M  V30 29 2 4 30
M  V30 30 1 30 31
M  V30 31 2 31 32
M  V30 32 1 32 33
M  V30 33 1 32 2
M  V30 34 2 13 5
M  V30 35 1 29 14
M  V30 36 1 12 7
M  V30 37 1 28 22
M  V30 38 1 1 34
M  V30 39 1 1 35
M  V30 40 1 1 36
M  V30 41 1 3 37
M  V30 42 1 8 38
M  V30 43 1 9 39
M  V30 44 1 10 40
M  V30 45 1 15 41
M  V30 46 1 16 42
M  V30 47 1 19 43
M  V30 48 1 23 44
M  V30 49 1 24 45
M  V30 50 1 25 46
M  V30 51 1 28 47
M  V30 52 1 29 48
M  V30 53 1 30 49
M  V30 54 1 31 50
M  V30 END BOND
M  V30 END CTAB
M  END
>  <Dataset>  (929) 
ChEMBL_Kinases

>  <Ligand_Instance>  (929) 
nan

>  <PDB_ID>  (929) 
nan

>  <Standardized_SMILES>  (929) 
Cc1cc(-c2nc3cccnn3c2-c2ccnc(NC(=O)c3cccc(Cl)c3)c2)ccc1F

>  <Name>  (929) 
nan

>  <Pocket>  (929) 
nan

>  <ATP_Site>  (929) 
nan

>  <Peripheral>  (929) 
nan

>  <Num_H_Atoms_ProtBoundConf>  (929) 
nan

>  <Num_Resolved_Atoms>  (929) 
nan

>  <Num_Not_Resolved_Atoms>  (929) 
nan

$$$$
CHEMBL4776474
     RDKit          3D

  0  0  0  0  0  0  0  0  0  0999 V3000
M  V30 BEGIN CTAB
M  V30 COUNTS 43 46 0 0 0
M  V30 BEGIN ATOM
M  V30 1 C 1.455175 -5.290777 2.385689 0
M  V30 2 O 1.640995 -4.095743 3.120694 0
M  V30 3 C 1.971738 -2.891023 2.526264 0
M  V30 4 C 2.129749 -1.782953 3.340667 0
M  V30 5 C 2.459514 -0.588014 2.735236 0
M  V30 6 C 2.633402 -0.468937 1.362051 0
M  V30 7 N 2.974214 0.807160 0.819315 0
M  V30 8 N 4.130198 1.442189 0.767265 0
M  V30 9 N 3.980574 2.615109 0.166138 0
M  V30 10 C 2.682355 2.737072 -0.179868 0
M  V30 11 C 1.911220 3.690003 -0.811944 0
M  V30 12 N 0.602707 3.507928 -1.013096 0
M  V30 13 C -0.044631 2.378389 -0.609120 0
M  V30 14 N -1.431294 2.117090 -0.790297 0
M  V30 15 C -2.126326 0.940281 -0.372979 0 CFG=1
M  V30 16 C -1.528329 -0.299782 -1.037446 0
M  V30 17 C -2.023106 -1.431301 -0.205012 0
M  V30 18 C -2.466717 -0.832712 1.116702 0 CFG=1
M  V30 19 N -1.817169 -1.471948 2.245899 0
M  V30 20 C -1.976992 0.596243 1.082026 0
M  V30 21 N 0.725629 1.463602 0.004275 0
M  V30 22 C 2.043547 1.587481 0.235685 0
M  V30 23 C 2.472136 -1.579692 0.572554 0
M  V30 24 C 2.142430 -2.781298 1.163626 0
M  V30 25 H 1.208425 -6.098135 3.107235 0
M  V30 26 H 0.570249 -5.227655 1.706033 0
M  V30 27 H 2.319115 -5.554545 1.745875 0
M  V30 28 H 1.993092 -1.887722 4.397031 0
M  V30 29 H 2.591121 0.298724 3.338932 0
M  V30 30 H 2.383632 4.601124 -1.148801 0
M  V30 31 H -1.927828 2.904668 -1.283339 0
M  V30 32 H -3.196010 1.055084 -0.645493 0
M  V30 33 H -1.969636 -0.333852 -2.054059 0
M  V30 34 H -0.449310 -0.245976 -1.153117 0
M  V30 35 H -2.843395 -1.942423 -0.740107 0
M  V30 36 H -1.259441 -2.207521 -0.009430 0
M  V30 37 H -3.563996 -0.902874 1.157445 0
M  V30 38 H -2.447319 -2.185674 2.668141 0
M  V30 39 H -0.872271 -1.827159 2.011395 0
M  V30 40 H -2.753078 1.189809 1.619928 0
M  V30 41 H -0.977113 0.728711 1.482456 0
M  V30 42 H 2.611825 -1.457257 -0.474797 0
M  V30 43 H 2.015888 -3.655074 0.539138 0
M  V30 END ATOM
M  V30 BEGIN BOND
M  V30 1 1 1 2
M  V30 2 1 2 3
M  V30 3 2 3 4
M  V30 4 1 4 5
M  V30 5 2 5 6
M  V30 6 1 6 7
M  V30 7 1 7 8
M  V30 8 2 8 9
M  V30 9 1 9 10
M  V30 10 2 10 11
M  V30 11 1 11 12
M  V30 12 2 12 13
M  V30 13 1 13 14
M  V30 14 1 14 15
M  V30 15 1 15 16
M  V30 16 1 16 17
M  V30 17 1 17 18
M  V30 18 1 18 19
M  V30 19 1 18 20
M  V30 20 1 13 21
M  V30 21 2 21 22
M  V30 22 1 6 23
M  V30 23 2 23 24
M  V30 24 1 24 3
M  V30 25 1 22 7
M  V30 26 1 22 10
M  V30 27 1 20 15
M  V30 28 1 1 25
M  V30 29 1 1 26
M  V30 30 1 1 27
M  V30 31 1 4 28
M  V30 32 1 5 29
M  V30 33 1 11 30
M  V30 34 1 14 31
M  V30 35 1 15 32 CFG=3
M  V30 36 1 16 33
M  V30 37 1 16 34
M  V30 38 1 17 35
M  V30 39 1 17 36
M  V30 40 1 18 37 CFG=1
M  V30 41 1 19 38
M  V30 42 1 19 39
M  V30 43 1 20 40
M  V30 44 1 20 41
M  V30 45 1 23 42
M  V30 46 1 24 43
M  V30 END BOND
M  V30 END CTAB
M  END
>  <Dataset>  (930) 
ChEMBL_Kinases

>  <Ligand_Instance>  (930) 
nan

>  <PDB_ID>  (930) 
nan

>  <Standardized_SMILES>  (930) 
COc1ccc(-n2nnc3cnc(N[C@H]4CC[C@@H](N)C4)nc32)cc1

>  <Name>  (930) 
nan

>  <Pocket>  (930) 
nan

>  <ATP_Site>  (930) 
nan

>  <Peripheral>  (930) 
nan

>  <Num_H_Atoms_ProtBoundConf>  (930) 
nan

>  <Num_Resolved_Atoms>  (930) 
nan

>  <Num_Not_Resolved_Atoms>  (930) 
nan

$$$$
CHEMBL4224950
     RDKit          3D

  0  0  0  0  0  0  0  0  0  0999 V3000
M  V30 BEGIN CTAB
M  V30 COUNTS 73 78 0 0 0
M  V30 BEGIN ATOM
M  V30 1 C 3.849832 -3.674597 2.575795 0
M  V30 2 C 2.405128 -4.011448 2.607667 0
M  V30 3 C 1.543715 -3.185313 3.176984 0
M  V30 4 C 1.841885 -1.919645 3.814369 0
M  V30 5 O 0.961447 -1.158524 4.348314 0
M  V30 6 N 2.934068 -1.066574 4.116596 0
M  V30 7 C 2.554465 0.134294 4.812842 0
M  V30 8 C 2.508965 0.163453 6.209108 0
M  V30 9 C 2.131976 1.366631 6.802593 0
M  V30 10 C 1.810528 2.498605 6.089038 0
M  V30 11 N 1.425735 3.744239 6.475627 0
M  V30 12 N 1.239422 4.461135 5.357915 0
M  V30 13 C 1.500688 3.687854 4.282876 0
M  V30 14 C 1.869880 2.422203 4.708741 0
M  V30 15 C 2.240049 1.246055 4.067335 0
M  V30 16 C 0.052299 -3.450530 3.244562 0
M  V30 17 C -0.703722 -2.372219 2.564826 0
M  V30 18 C -1.543608 -1.508784 3.247267 0
M  V30 19 C -2.193686 -0.531339 2.544588 0
M  V30 20 C -1.985847 -0.449168 1.197014 0
M  V30 21 F -2.627217 0.511514 0.506325 0
M  V30 22 C -1.171065 -1.266871 0.451653 0
M  V30 23 C -0.890500 -1.246337 -0.974846 0
M  V30 24 O -0.146328 -2.132204 -1.522239 0
M  V30 25 N -1.338626 -0.334814 -1.943639 0
M  V30 26 C -1.018831 -0.381755 -3.338182 0
M  V30 27 C -0.318523 0.897189 -3.824011 0
M  V30 28 C -1.298413 1.433684 -4.824408 0
M  V30 29 C -2.539840 1.820098 -4.050780 0
M  V30 30 C -3.275872 0.515582 -3.753737 0
M  V30 31 C -2.260208 -0.500244 -4.146652 0
M  V30 32 C -2.789856 -1.876229 -4.343244 0
M  V30 33 C -1.784251 0.127400 -5.470468 0
M  V30 34 C -2.935992 0.354365 -6.395607 0
M  V30 35 C -0.663304 -0.652832 -6.095307 0
M  V30 36 C -0.518807 -2.258404 1.199365 0
M  V30 37 N -0.142133 -4.732909 2.627905 0
M  V30 38 C 0.667463 -5.706373 1.988070 0
M  V30 39 O 0.216063 -6.752245 1.507634 0
M  V30 40 N 2.009082 -5.245588 2.020015 0
M  V30 41 H 4.379342 -4.475813 1.966828 0
M  V30 42 H 4.031721 -2.764108 1.941029 0
M  V30 43 H 4.341317 -3.666102 3.550649 0
M  V30 44 H 3.817436 -1.460684 3.782645 0
M  V30 45 H 2.760417 -0.722293 6.798628 0
M  V30 46 H 2.108864 1.350814 7.900915 0
M  V30 47 H 1.292396 4.098844 7.455484 0
M  V30 48 H 1.429502 4.015918 3.246286 0
M  V30 49 H 2.258146 1.281959 2.975240 0
M  V30 50 H -0.184800 -3.508443 4.323528 0
M  V30 51 H -1.691524 -1.608829 4.312456 0
M  V30 52 H -2.853201 0.161386 3.019438 0
M  V30 53 H -1.951004 0.442293 -1.619164 0
M  V30 54 H -0.359884 -1.258783 -3.532422 0
M  V30 55 H 0.629717 0.632601 -4.288103 0
M  V30 56 H -0.245908 1.642529 -3.006427 0
M  V30 57 H -0.935595 2.167501 -5.526897 0
M  V30 58 H -3.214604 2.459362 -4.662851 0
M  V30 59 H -2.220266 2.296441 -3.116263 0
M  V30 60 H -3.622798 0.499449 -2.723451 0
M  V30 61 H -4.195670 0.452588 -4.393503 0
M  V30 62 H -2.165595 -2.591398 -3.801731 0
M  V30 63 H -2.802273 -2.104930 -5.431540 0
M  V30 64 H -3.847627 -1.862169 -4.010391 0
M  V30 65 H -2.583431 0.143998 -7.439751 0
M  V30 66 H -3.236128 1.440113 -6.433218 0
M  V30 67 H -3.794882 -0.320545 -6.235974 0
M  V30 68 H -0.445402 -1.620549 -5.607123 0
M  V30 69 H -0.985147 -0.877967 -7.146584 0
M  V30 70 H 0.222756 0.010696 -6.186693 0
M  V30 71 H 0.155206 -2.961051 0.682067 0
M  V30 72 H -1.192542 -4.882573 2.738242 0
M  V30 73 H 2.726136 -5.885234 1.569871 0
M  V30 END ATOM
M  V30 BEGIN BOND
M  V30 1 1 1 2
M  V30 2 2 2 3
M  V30 3 1 3 4
M  V30 4 2 4 5
M  V30 5 1 4 6
M  V30 6 1 6 7
M  V30 7 2 7 8
M  V30 8 1 8 9
M  V30 9 2 9 10
M  V30 10 1 10 11
M  V30 11 1 11 12
M  V30 12 2 12 13
M  V30 13 1 13 14
M  V30 14 2 14 15
M  V30 15 1 3 16
M  V30 16 1 16 17
M  V30 17 2 17 18
M  V30 18 1 18 19
M  V30 19 2 19 20
M  V30 20 1 20 21
M  V30 21 1 20 22
M  V30 22 1 22 23
M  V30 23 2 23 24
M  V30 24 1 23 25
M  V30 25 1 25 26
M  V30 26 1 26 27
M  V30 27 1 27 28
M  V30 28 1 28 29
M  V30 29 1 29 30
M  V30 30 1 30 31
M  V30 31 1 31 32
M  V30 32 1 31 33
M  V30 33 1 33 34
M  V30 34 1 33 35
M  V30 35 2 22 36
M  V30 36 1 16 37
M  V30 37 1 37 38
M  V30 38 2 38 39
M  V30 39 1 38 40
M  V30 40 1 40 2
M  V30 41 1 15 7
M  V30 42 1 36 17
M  V30 43 1 14 10
M  V30 44 1 31 26
M  V30 45 1 33 28
M  V30 46 1 1 41
M  V30 47 1 1 42
M  V30 48 1 1 43
M  V30 49 1 6 44
M  V30 50 1 8 45
M  V30 51 1 9 46
M  V30 52 1 11 47
M  V30 53 1 13 48
M  V30 54 1 15 49
M  V30 55 1 16 50
M  V30 56 1 18 51
M  V30 57 1 19 52
M  V30 58 1 25 53
M  V30 59 1 26 54
M  V30 60 1 27 55
M  V30 61 1 27 56
M  V30 62 1 28 57
M  V30 63 1 29 58
M  V30 64 1 29 59
M  V30 65 1 30 60
M  V30 66 1 30 61
M  V30 67 1 32 62
M  V30 68 1 32 63
M  V30 69 1 32 64
M  V30 70 1 34 65
M  V30 71 1 34 66
M  V30 72 1 34 67
M  V30 73 1 35 68
M  V30 74 1 35 69
M  V30 75 1 35 70
M  V30 76 1 36 71
M  V30 77 1 37 72
M  V30 78 1 40 73
M  V30 END BOND
M  V30 END CTAB
M  END
>  <Dataset>  (931) 
ChEMBL_Kinases

>  <Ligand_Instance>  (931) 
nan

>  <PDB_ID>  (931) 
nan

>  <Standardized_SMILES>  (931) 
CC1=C(C(=O)Nc2ccc3[nH]ncc3c2)C(c2ccc(F)c(C(=O)NC3CC4CCC3(C)C4(C)C)c2)NC(=O)N1

>  <Name>  (931) 
nan

>  <Pocket>  (931) 
nan

>  <ATP_Site>  (931) 
nan

>  <Peripheral>  (931) 
nan

>  <Num_H_Atoms_ProtBoundConf>  (931) 
nan

>  <Num_Resolved_Atoms>  (931) 
nan

>  <Num_Not_Resolved_Atoms>  (931) 
nan

$$$$
CHEMBL4776475
     RDKit          3D

  0  0  0  0  0  0  0  0  0  0999 V3000
M  V30 BEGIN CTAB
M  V30 COUNTS 54 58 0 0 0
M  V30 BEGIN ATOM
M  V30 1 C 2.097711 -2.069784 8.143767 0
M  V30 2 N 1.969922 -2.233412 6.709142 0
M  V30 3 C 2.437145 -1.445799 5.730040 0
M  V30 4 C 2.073393 -1.999354 4.499992 0
M  V30 5 C 2.320695 -1.554984 3.131216 0
M  V30 6 C 2.419266 -0.206615 2.770144 0
M  V30 7 C 2.652750 0.150139 1.440928 0
M  V30 8 C 2.773521 -0.893007 0.547424 0
M  V30 9 C 2.996073 -0.492576 -0.751676 0
M  V30 10 N 3.130067 0.819253 -1.283387 0
M  V30 11 C 1.971558 1.570657 -1.619857 0
M  V30 12 C 2.011604 2.770837 -2.289318 0
M  V30 13 C 0.941953 3.563820 -2.641791 0
M  V30 14 C -0.299932 3.039804 -2.249636 0
M  V30 15 C -0.404110 1.850780 -1.580978 0
M  V30 16 N -1.627906 1.280296 -1.152562 0
M  V30 17 C -2.460934 0.374940 -1.858445 0
M  V30 18 O -2.101270 0.013518 -2.999900 0
M  V30 19 N -3.663586 -0.105356 -1.287175 0
M  V30 20 C -4.586814 -1.005474 -1.859400 0
M  V30 21 C -5.706887 -1.332891 -1.123231 0
M  V30 22 C -6.669799 -2.200601 -1.581660 0
M  V30 23 C -6.558271 -2.788172 -2.808262 0
M  V30 24 Cl -7.801456 -3.899801 -3.379806 0
M  V30 25 C -5.455605 -2.503842 -3.603961 0
M  V30 26 C -4.534798 -1.627803 -3.079821 0
M  V30 27 C 0.712730 1.106361 -1.259817 0
M  V30 28 N 3.124417 -1.426887 -1.712547 0
M  V30 29 C 3.036611 -2.748726 -1.407626 0
M  V30 30 N 2.819109 -3.137728 -0.138158 0
M  V30 31 C 2.685369 -2.235514 0.846158 0
M  V30 32 C 2.455742 -2.547310 2.161446 0
M  V30 33 C 1.364190 -3.160106 4.835159 0
M  V30 34 N 1.326365 -3.261430 6.175391 0
M  V30 35 H 1.102540 -2.012858 8.625955 0
M  V30 36 H 2.590000 -3.022355 8.498278 0
M  V30 37 H 2.773646 -1.231554 8.372444 0
M  V30 38 H 2.993946 -0.546132 5.826551 0
M  V30 39 H 2.309948 0.529765 3.545834 0
M  V30 40 H 2.730830 1.189051 1.152207 0
M  V30 41 H 4.057248 1.234768 -1.428781 0
M  V30 42 H 3.000413 3.147492 -2.577739 0
M  V30 43 H 1.052104 4.497926 -3.170684 0
M  V30 44 H -1.195224 3.598738 -2.485708 0
M  V30 45 H -1.854178 1.631773 -0.193715 0
M  V30 46 H -3.854406 0.271601 -0.334427 0
M  V30 47 H -5.871990 -0.901811 -0.122625 0
M  V30 48 H -7.517853 -2.421658 -0.972902 0
M  V30 49 H -5.325080 -2.943418 -4.573199 0
M  V30 50 H -3.687164 -1.421717 -3.713093 0
M  V30 51 H 0.680094 0.163193 -0.733035 0
M  V30 52 H 3.139046 -3.513427 -2.176085 0
M  V30 53 H 2.380291 -3.605550 2.433201 0
M  V30 54 H 0.937927 -3.830512 4.114432 0
M  V30 END ATOM
M  V30 BEGIN BOND
M  V30 1 1 1 2
M  V30 2 1 2 3
M  V30 3 2 3 4
M  V30 4 1 4 5
M  V30 5 2 5 6
M  V30 6 1 6 7
M  V30 7 2 7 8
M  V30 8 1 8 9
M  V30 9 1 9 10
M  V30 10 1 10 11
M  V30 11 2 11 12
M  V30 12 1 12 13
M  V30 13 2 13 14
M  V30 14 1 14 15
M  V30 15 1 15 16
M  V30 16 1 16 17
M  V30 17 2 17 18
M  V30 18 1 17 19
M  V30 19 1 19 20
M  V30 20 2 20 21
M  V30 21 1 21 22
M  V30 22 2 22 23
M  V30 23 1 23 24
M  V30 24 1 23 25
M  V30 25 2 25 26
M  V30 26 2 15 27
M  V30 27 2 9 28
M  V30 28 1 28 29
M  V30 29 2 29 30
M  V30 30 1 30 31
M  V30 31 2 31 32
M  V30 32 1 4 33
M  V30 33 2 33 34
M  V30 34 1 34 2
M  V30 35 1 32 5
M  V30 36 1 31 8
M  V30 37 1 27 11
M  V30 38 1 26 20
M  V30 39 1 1 35
M  V30 40 1 1 36
M  V30 41 1 1 37
M  V30 42 1 3 38
M  V30 43 1 6 39
M  V30 44 1 7 40
M  V30 45 1 10 41
M  V30 46 1 12 42
M  V30 47 1 13 43
M  V30 48 1 14 44
M  V30 49 1 16 45
M  V30 50 1 19 46
M  V30 51 1 21 47
M  V30 52 1 22 48
M  V30 53 1 25 49
M  V30 54 1 26 50
M  V30 55 1 27 51
M  V30 56 1 29 52
M  V30 57 1 32 53
M  V30 58 1 33 54
M  V30 END BOND
M  V30 END CTAB
M  END
>  <Dataset>  (932) 
ChEMBL_Kinases

>  <Ligand_Instance>  (932) 
nan

>  <PDB_ID>  (932) 
nan

>  <Standardized_SMILES>  (932) 
Cn1cc(-c2ccc3c(Nc4cccc(NC(=O)Nc5ccc(Cl)cc5)c4)ncnc3c2)cn1

>  <Name>  (932) 
nan

>  <Pocket>  (932) 
nan

>  <ATP_Site>  (932) 
nan

>  <Peripheral>  (932) 
nan

>  <Num_H_Atoms_ProtBoundConf>  (932) 
nan

>  <Num_Resolved_Atoms>  (932) 
nan

>  <Num_Not_Resolved_Atoms>  (932) 
nan

$$$$
CHEMBL4224940
     RDKit          3D

  0  0  0  0  0  0  0  0  0  0999 V3000
M  V30 BEGIN CTAB
M  V30 COUNTS 53 57 0 0 0
M  V30 BEGIN ATOM
M  V30 1 C 1.501421 -0.857924 6.411902 0
M  V30 2 C 1.596937 -1.101895 4.945828 0
M  V30 3 C 2.181915 -0.310799 3.994845 0
M  V30 4 C 2.195804 -0.680885 2.664672 0
M  V30 5 C 2.864029 0.267982 1.787610 0
M  V30 6 N 4.181601 0.550653 1.840754 0
M  V30 7 C 4.434007 1.462804 0.885286 0
M  V30 8 C 5.638920 2.056015 0.558158 0
M  V30 9 C 5.597517 2.964796 -0.475738 0
M  V30 10 C 4.422092 3.255212 -1.134047 0
M  V30 11 N 3.298116 2.620886 -0.737379 0
M  V30 12 N 3.281045 1.736980 0.252017 0
M  V30 13 C 2.262375 1.002061 0.792042 0
M  V30 14 C 0.891904 1.089571 0.313285 0
M  V30 15 C 0.392877 2.385745 0.490903 0
M  V30 16 C -0.908647 2.705925 0.096835 0
M  V30 17 N -1.662984 1.741604 -0.453133 0
M  V30 18 C -1.206924 0.488401 -0.634747 0
M  V30 19 N -2.037453 -0.505038 -1.224210 0
M  V30 20 C -2.887783 -1.324067 -0.443501 0
M  V30 21 O -2.918933 -1.180876 0.808415 0
M  V30 22 C -3.757598 -2.352537 -1.007311 0
M  V30 23 C -4.559133 -3.075425 -0.119100 0
M  V30 24 C -5.405707 -4.068246 -0.626413 0
M  V30 25 N -5.454119 -4.329208 -1.945036 0 CHG=1 VAL=4
M  V30 26 O -6.263482 -5.284622 -2.476320 0 CHG=-1 VAL=1
M  V30 27 C -4.682765 -3.636220 -2.816257 0
M  V30 28 C -4.668251 -3.855332 -4.286206 0
M  V30 29 C -3.828067 -2.641460 -2.350562 0
M  V30 30 C 0.069587 0.148536 -0.255711 0
M  V30 31 C 1.601449 -1.874971 2.318700 0
M  V30 32 C 0.999787 -2.704350 3.240822 0
M  V30 33 C 0.997664 -2.311926 4.574016 0
M  V30 34 F 0.384933 -3.193794 5.391422 0
M  V30 35 H 2.408469 -0.270205 6.744463 0
M  V30 36 H 1.596868 -1.811545 6.990211 0
M  V30 37 H 0.551786 -0.399919 6.714500 0
M  V30 38 H 2.614695 0.591718 4.360061 0
M  V30 39 H 6.569233 1.841739 1.062597 0
M  V30 40 H 6.466454 3.499572 -0.833323 0
M  V30 41 H 4.250232 3.940264 -1.952950 0
M  V30 42 H 0.912958 3.226760 0.920387 0
M  V30 43 H -1.366844 3.673979 0.198036 0
M  V30 44 H -2.015093 -0.626344 -2.249388 0
M  V30 45 H -4.565965 -2.912622 0.949664 0
M  V30 46 H -6.045785 -4.656183 0.010629 0
M  V30 47 H -3.648124 -4.236743 -4.556502 0
M  V30 48 H -4.772980 -2.879268 -4.782474 0
M  V30 49 H -5.439834 -4.553338 -4.638309 0
M  V30 50 H -3.213597 -2.085446 -3.012771 0
M  V30 51 H 0.523574 -0.802923 -0.356904 0
M  V30 52 H 1.639322 -2.126791 1.269553 0
M  V30 53 H 0.568563 -3.614282 2.848281 0
M  V30 END ATOM
M  V30 BEGIN BOND
M  V30 1 1 1 2
M  V30 2 2 2 3
M  V30 3 1 3 4
M  V30 4 1 4 5
M  V30 5 1 5 6
M  V30 6 2 6 7
M  V30 7 1 7 8
M  V30 8 2 8 9
M  V30 9 1 9 10
M  V30 10 2 10 11
M  V30 11 1 11 12
M  V30 12 1 12 13
M  V30 13 1 13 14
M  V30 14 2 14 15
M  V30 15 1 15 16
M  V30 16 2 16 17
M  V30 17 1 17 18
M  V30 18 1 18 19
M  V30 19 1 19 20
M  V30 20 2 20 21
M  V30 21 1 20 22
M  V30 22 2 22 23
M  V30 23 1 23 24
M  V30 24 2 24 25
M  V30 25 1 25 26
M  V30 26 1 25 27
M  V30 27 1 27 28
M  V30 28 2 27 29
M  V30 29 2 18 30
M  V30 30 2 4 31
M  V30 31 1 31 32
M  V30 32 2 32 33
M  V30 33 1 33 34
M  V30 34 1 33 2
M  V30 35 2 13 5
M  V30 36 1 30 14
M  V30 37 1 12 7
M  V30 38 1 29 22
M  V30 39 1 1 35
M  V30 40 1 1 36
M  V30 41 1 1 37
M  V30 42 1 3 38
M  V30 43 1 8 39
M  V30 44 1 9 40
M  V30 45 1 10 41
M  V30 46 1 15 42
M  V30 47 1 16 43
M  V30 48 1 19 44
M  V30 49 1 23 45
M  V30 50 1 24 46
M  V30 51 1 28 47
M  V30 52 1 28 48
M  V30 53 1 28 49
M  V30 54 1 29 50
M  V30 55 1 30 51
M  V30 56 1 31 52
M  V30 57 1 32 53
M  V30 END BOND
M  V30 END CTAB
M  END
>  <Dataset>  (933) 
ChEMBL_Kinases

>  <Ligand_Instance>  (933) 
nan

>  <PDB_ID>  (933) 
nan

>  <Standardized_SMILES>  (933) 
Cc1cc(-c2nc3cccnn3c2-c2ccnc(NC(=O)c3cc[n+]([O-])c(C)c3)c2)ccc1F

>  <Name>  (933) 
nan

>  <Pocket>  (933) 
nan

>  <ATP_Site>  (933) 
nan

>  <Peripheral>  (933) 
nan

>  <Num_H_Atoms_ProtBoundConf>  (933) 
nan

>  <Num_Resolved_Atoms>  (933) 
nan

>  <Num_Not_Resolved_Atoms>  (933) 
nan

$$$$
CHEMBL4224914
     RDKit          3D

  0  0  0  0  0  0  0  0  0  0999 V3000
M  V30 BEGIN CTAB
M  V30 COUNTS 69 73 0 0 0
M  V30 BEGIN ATOM
M  V30 1 C 3.230202 -2.147257 5.349593 0
M  V30 2 C 2.952442 -3.248652 4.408531 0
M  V30 3 C 2.332697 -2.922158 3.290285 0
M  V30 4 C 1.847662 -1.678655 2.797573 0
M  V30 5 O 1.259890 -1.576658 1.660545 0
M  V30 6 N 1.784140 -0.345085 3.193824 0
M  V30 7 C 1.351528 0.935136 2.833131 0
M  V30 8 C 0.044016 1.167678 3.283172 0
M  V30 9 C -0.625658 2.363686 3.061184 0
M  V30 10 C 0.077464 3.321184 2.364910 0
M  V30 11 N -0.241065 4.576204 1.972622 0
M  V30 12 N 0.783423 5.132568 1.310978 0
M  V30 13 C 1.793322 4.239299 1.261949 0
M  V30 14 C 1.350147 3.109037 1.920337 0
M  V30 15 C 2.007647 1.929075 2.140818 0
M  V30 16 C 2.181927 -4.026081 2.277325 0
M  V30 17 C 0.962953 -3.881537 1.475151 0
M  V30 18 C -0.257595 -3.838540 2.079212 0
M  V30 19 C -1.429566 -3.714389 1.342087 0
M  V30 20 C -1.255010 -3.641249 -0.025053 0
M  V30 21 F -2.484444 -3.522869 -0.633991 0
M  V30 22 C -0.028506 -3.684855 -0.651256 0
M  V30 23 C -0.220521 -3.574003 -2.138667 0
M  V30 24 C -0.388851 -2.127305 -2.487028 0
M  V30 25 O 0.691603 -1.448874 -2.434258 0
M  V30 26 N -1.544492 -1.367083 -2.868631 0
M  V30 27 C -1.049326 -0.027685 -3.091366 0
M  V30 28 C -2.188857 0.854968 -3.417590 0
M  V30 29 C -2.601143 1.725241 -2.393011 0
M  V30 30 C -3.631584 2.633313 -2.508087 0
M  V30 31 C -3.970444 3.513160 -1.343338 0
M  V30 32 C -4.311988 2.704399 -3.697416 0
M  V30 33 C -3.907356 1.848747 -4.702938 0
M  V30 34 C -2.884827 0.938157 -4.610091 0
M  V30 35 C -2.463849 0.029956 -5.703917 0
M  V30 36 C 1.120880 -3.806854 0.098921 0
M  V30 37 N 2.168185 -5.306493 2.927723 0
M  V30 38 C 2.855145 -5.660379 4.115657 0
M  V30 39 O 3.110554 -6.823239 4.498465 0
M  V30 40 N 3.259101 -4.548707 4.891696 0
M  V30 41 H 3.915038 -1.403169 4.890294 0
M  V30 42 H 2.265388 -1.760134 5.712240 0
M  V30 43 H 3.784732 -2.540752 6.263146 0
M  V30 44 H 2.212251 -0.152301 4.118217 0
M  V30 45 H -0.576985 0.449056 3.844658 0
M  V30 46 H -1.629836 2.546540 3.402682 0
M  V30 47 H -1.178070 4.997512 2.186972 0
M  V30 48 H 2.746150 4.401078 0.797518 0
M  V30 49 H 3.011922 1.661529 1.834627 0
M  V30 50 H 3.114242 -3.973681 1.676232 0
M  V30 51 H -0.268320 -3.906502 3.173821 0
M  V30 52 H -2.334723 -3.688455 1.909538 0
M  V30 53 H 0.718648 -3.911480 -2.608023 0
M  V30 54 H -1.093761 -4.161683 -2.496559 0
M  V30 55 H -2.388930 -1.979581 -2.878317 0
M  V30 56 H -0.524009 0.384031 -2.222285 0
M  V30 57 H -0.296500 -0.014211 -3.921079 0
M  V30 58 H -2.085287 1.700902 -1.421259 0
M  V30 59 H -3.074861 3.638601 -0.683333 0
M  V30 60 H -4.290200 4.519790 -1.669786 0
M  V30 61 H -4.773268 3.044054 -0.750372 0
M  V30 62 H -5.118111 3.409658 -3.798271 0
M  V30 63 H -4.458927 1.921981 -5.642803 0
M  V30 64 H -3.018629 -0.937048 -5.692679 0
M  V30 65 H -2.714798 0.536742 -6.684780 0
M  V30 66 H -1.377712 -0.093623 -5.643799 0
M  V30 67 H 2.014025 -3.827197 -0.496633 0
M  V30 68 H 1.589277 -6.068776 2.477719 0
M  V30 69 H 3.760250 -4.701856 5.777587 0
M  V30 END ATOM
M  V30 BEGIN BOND
M  V30 1 1 1 2
M  V30 2 2 2 3
M  V30 3 1 3 4
M  V30 4 2 4 5
M  V30 5 1 4 6
M  V30 6 1 6 7
M  V30 7 2 7 8
M  V30 8 1 8 9
M  V30 9 2 9 10
M  V30 10 1 10 11
M  V30 11 1 11 12
M  V30 12 2 12 13
M  V30 13 1 13 14
M  V30 14 2 14 15
M  V30 15 1 3 16
M  V30 16 1 16 17
M  V30 17 2 17 18
M  V30 18 1 18 19
M  V30 19 2 19 20
M  V30 20 1 20 21
M  V30 21 1 20 22
M  V30 22 1 22 23
M  V30 23 1 23 24
M  V30 24 2 24 25
M  V30 25 1 24 26
M  V30 26 1 26 27
M  V30 27 1 27 28
M  V30 28 2 28 29
M  V30 29 1 29 30
M  V30 30 1 30 31
M  V30 31 2 30 32
M  V30 32 1 32 33
M  V30 33 2 33 34
M  V30 34 1 34 35
M  V30 35 2 22 36
M  V30 36 1 16 37
M  V30 37 1 37 38
M  V30 38 2 38 39
M  V30 39 1 38 40
M  V30 40 1 40 2
M  V30 41 1 15 7
M  V30 42 1 36 17
M  V30 43 1 14 10
M  V30 44 1 34 28
M  V30 45 1 1 41
M  V30 46 1 1 42
M  V30 47 1 1 43
M  V30 48 1 6 44
M  V30 49 1 8 45
M  V30 50 1 9 46
M  V30 51 1 11 47
M  V30 52 1 13 48
M  V30 53 1 15 49
M  V30 54 1 16 50
M  V30 55 1 18 51
M  V30 56 1 19 52
M  V30 57 1 23 53
M  V30 58 1 23 54
M  V30 59 1 26 55
M  V30 60 1 27 56
M  V30 61 1 27 57
M  V30 62 1 29 58
M  V30 63 1 31 59
M  V30 64 1 31 60
M  V30 65 1 31 61
M  V30 66 1 32 62
M  V30 67 1 33 63
M  V30 68 1 35 64
M  V30 69 1 35 65
M  V30 70 1 35 66
M  V30 71 1 36 67
M  V30 72 1 37 68
M  V30 73 1 40 69
M  V30 END BOND
M  V30 END CTAB
M  END
>  <Dataset>  (934) 
ChEMBL_Kinases

>  <Ligand_Instance>  (934) 
nan

>  <PDB_ID>  (934) 
nan

>  <Standardized_SMILES>  (934) 
CC1=C(C(=O)Nc2ccc3[nH]ncc3c2)C(c2ccc(F)c(CC(=O)NCc3cc(C)ccc3C)c2)NC(=O)N1

>  <Name>  (934) 
nan

>  <Pocket>  (934) 
nan

>  <ATP_Site>  (934) 
nan

>  <Peripheral>  (934) 
nan

>  <Num_H_Atoms_ProtBoundConf>  (934) 
nan

>  <Num_Resolved_Atoms>  (934) 
nan

>  <Num_Not_Resolved_Atoms>  (934) 
nan

$$$$
CHEMBL4776476
     RDKit          3D

  0  0  0  0  0  0  0  0  0  0999 V3000
M  V30 BEGIN CTAB
M  V30 COUNTS 58 62 0 0 0
M  V30 BEGIN ATOM
M  V30 1 C 5.950455 -4.525887 4.003793 0
M  V30 2 O 4.998971 -4.765582 2.993539 0
M  V30 3 C 4.518654 -3.657290 2.266447 0
M  V30 4 C 4.869325 -2.318339 2.418277 0
M  V30 5 C 4.276547 -1.395534 1.598440 0
M  V30 6 C 3.354087 -1.731023 0.637180 0
M  V30 7 C 2.686911 -0.811674 -0.245925 0
M  V30 8 C 2.447758 0.432524 0.247659 0
M  V30 9 C 1.796635 1.396240 -0.488902 0
M  V30 10 C 1.363624 1.097003 -1.787277 0
M  V30 11 C 0.688988 1.985830 -2.599363 0
M  V30 12 N 0.443448 3.302135 -2.055187 0
M  V30 13 C -0.595875 3.420376 -1.091595 0
M  V30 14 C -1.013992 4.616889 -0.530804 0
M  V30 15 C -1.998934 4.724074 0.418439 0
M  V30 16 C -2.621049 3.580263 0.851429 0
M  V30 17 C -2.291101 2.333693 0.366829 0
M  V30 18 N -2.828922 1.071261 0.721400 0
M  V30 19 C -3.843085 0.198380 0.336954 0
M  V30 20 O -4.653622 0.401251 -0.591645 0
M  V30 21 N -3.835454 -0.954079 1.132998 0
M  V30 22 C -4.530420 -2.175817 1.279936 0
M  V30 23 C -4.018192 -3.229056 0.510871 0
M  V30 24 C -4.516842 -4.535618 0.482696 0
M  V30 25 C -5.608629 -4.711806 1.315498 0
M  V30 26 F -6.178758 -5.935934 1.374450 0
M  V30 27 C -6.181363 -3.734968 2.108091 0
M  V30 28 C -5.622031 -2.476350 2.070363 0
M  V30 29 C -1.273501 2.323777 -0.600943 0
M  V30 30 N 0.292376 1.613760 -3.836278 0
M  V30 31 C 0.529779 0.386435 -4.325812 0
M  V30 32 N 1.188930 -0.491674 -3.538436 0
M  V30 33 C 1.595361 -0.159091 -2.312064 0
M  V30 34 C 2.258086 -1.088437 -1.517530 0
M  V30 35 C 3.031373 -3.088588 0.519585 0
M  V30 36 C 3.599636 -4.090492 1.325277 0
M  V30 37 H 6.025381 -5.431185 4.673917 0
M  V30 38 H 5.648473 -3.680930 4.675097 0
M  V30 39 H 6.957723 -4.274671 3.598180 0
M  V30 40 H 5.592487 -2.140934 3.187039 0
M  V30 41 H 4.544982 -0.372614 1.714960 0
M  V30 42 H 2.752062 0.736633 1.237984 0
M  V30 43 H 1.592101 2.389954 -0.130828 0
M  V30 44 H 0.985986 4.121467 -2.340521 0
M  V30 45 H -0.542533 5.532852 -0.854375 0
M  V30 46 H -2.312549 5.658856 0.843886 0
M  V30 47 H -3.410201 3.566892 1.598463 0
M  V30 48 H -2.122753 0.954917 1.498167 0
M  V30 49 H -3.186403 -1.183352 1.949642 0
M  V30 50 H -3.147472 -3.083610 -0.152704 0
M  V30 51 H -4.093940 -5.312692 -0.127896 0
M  V30 52 H -7.033342 -3.911339 2.748207 0
M  V30 53 H -5.983626 -1.618425 2.651599 0
M  V30 54 H -0.994195 1.360712 -1.019705 0
M  V30 55 H 0.159146 0.209968 -5.338076 0
M  V30 56 H 2.472674 -2.088411 -1.874552 0
M  V30 57 H 2.294496 -3.387002 -0.243940 0
M  V30 58 H 3.266937 -5.091594 1.134331 0
M  V30 END ATOM
M  V30 BEGIN BOND
M  V30 1 1 1 2
M  V30 2 1 2 3
M  V30 3 2 3 4
M  V30 4 1 4 5
M  V30 5 2 5 6
M  V30 6 1 6 7
M  V30 7 2 7 8
M  V30 8 1 8 9
M  V30 9 2 9 10
M  V30 10 1 10 11
M  V30 11 1 11 12
M  V30 12 1 12 13
M  V30 13 2 13 14
M  V30 14 1 14 15
M  V30 15 2 15 16
M  V30 16 1 16 17
M  V30 17 1 17 18
M  V30 18 1 18 19
M  V30 19 2 19 20
M  V30 20 1 19 21
M  V30 21 1 21 22
M  V30 22 2 22 23
M  V30 23 1 23 24
M  V30 24 2 24 25
M  V30 25 1 25 26
M  V30 26 1 25 27
M  V30 27 2 27 28
M  V30 28 2 17 29
M  V30 29 2 11 30
M  V30 30 1 30 31
M  V30 31 2 31 32
M  V30 32 1 32 33
M  V30 33 2 33 34
M  V30 34 1 6 35
M  V30 35 2 35 36
M  V30 36 1 36 3
M  V30 37 1 34 7
M  V30 38 1 33 10
M  V30 39 1 29 13
M  V30 40 1 28 22
M  V30 41 1 1 37
M  V30 42 1 1 38
M  V30 43 1 1 39
M  V30 44 1 4 40
M  V30 45 1 5 41
M  V30 46 1 8 42
M  V30 47 1 9 43
M  V30 48 1 12 44
M  V30 49 1 14 45
M  V30 50 1 15 46
M  V30 51 1 16 47
M  V30 52 1 18 48
M  V30 53 1 21 49
M  V30 54 1 23 50
M  V30 55 1 24 51
M  V30 56 1 27 52
M  V30 57 1 28 53
M  V30 58 1 29 54
M  V30 59 1 31 55
M  V30 60 1 34 56
M  V30 61 1 35 57
M  V30 62 1 36 58
M  V30 END BOND
M  V30 END CTAB
M  END
>  <Dataset>  (935) 
ChEMBL_Kinases

>  <Ligand_Instance>  (935) 
nan

>  <PDB_ID>  (935) 
nan

>  <Standardized_SMILES>  (935) 
COc1ccc(-c2ccc3c(Nc4cccc(NC(=O)Nc5ccc(F)cc5)c4)ncnc3c2)cc1

>  <Name>  (935) 
nan

>  <Pocket>  (935) 
nan

>  <ATP_Site>  (935) 
nan

>  <Peripheral>  (935) 
nan

>  <Num_H_Atoms_ProtBoundConf>  (935) 
nan

>  <Num_Resolved_Atoms>  (935) 
nan

>  <Num_Not_Resolved_Atoms>  (935) 
nan

$$$$
CHEMBL4224792
     RDKit          3D

  0  0  0  0  0  0  0  0  0  0999 V3000
M  V30 BEGIN CTAB
M  V30 COUNTS 77 83 0 0 0
M  V30 BEGIN ATOM
M  V30 1 O 0.653213 -3.060052 -3.020008 0
M  V30 2 C 1.406681 -3.124209 -1.990224 0
M  V30 3 N 2.750275 -2.793971 -2.326138 0
M  V30 4 C 3.164102 -2.443651 -3.639225 0
M  V30 5 C 3.608089 -3.380458 -4.578518 0
M  V30 6 C 4.009285 -3.006826 -5.859486 0
M  V30 7 C 3.977509 -1.668897 -6.242518 0
M  V30 8 N 4.282987 -1.000283 -7.351587 0
M  V30 9 N 4.064722 0.291824 -7.179245 0
M  V30 10 C 3.603196 0.530719 -5.942812 0
M  V30 11 C 3.244023 1.822656 -5.367248 0
M  V30 12 C 2.485701 2.676562 -6.152452 0
M  V30 13 C 2.054322 3.943102 -5.766212 0
M  V30 14 C 2.432973 4.351867 -4.484027 0
M  V30 15 F 2.045401 5.578432 -4.035142 0
M  V30 16 C 3.183128 3.514965 -3.697560 0
M  V30 17 C 3.594295 2.263347 -4.113181 0
M  V30 18 C 3.540772 -0.710160 -5.331157 0
M  V30 19 C 3.154180 -1.130940 -4.075866 0
M  V30 20 C 0.923012 -3.498383 -0.628405 0 CFG=2
M  V30 21 C 1.624821 -4.719886 -0.107724 0
M  V30 22 C 0.519265 -5.409031 0.706388 0
M  V30 23 N -0.699450 -4.897400 0.257449 0
M  V30 24 C -1.858339 -4.892822 1.025970 0
M  V30 25 C -1.950892 -4.008308 2.193389 0
M  V30 26 O -0.845160 -3.863354 1.611626 0
M  V30 27 N -1.885281 -3.106015 3.273817 0
M  V30 28 C -3.070718 -3.024612 4.147861 0
M  V30 29 C -3.606662 -1.648269 3.843870 0
M  V30 30 C -2.761713 -0.631799 3.971329 0
M  V30 31 C -3.183403 0.718600 3.702769 0
M  V30 32 C -2.364299 1.818261 3.837280 0
M  V30 33 C -2.724149 3.123753 3.585473 0
M  V30 34 C -4.008346 3.388088 3.162064 0
M  V30 35 C -4.417109 4.757999 2.885433 0
M  V30 36 N -5.685453 5.010811 2.447007 0
M  V30 37 C -6.053784 6.302895 2.191880 0
M  V30 38 C -5.161459 7.314511 2.375870 0
M  V30 39 C -3.888310 7.054007 2.816845 0
M  V30 40 N -3.523991 5.774724 3.069093 0
M  V30 41 C -4.890855 2.342507 3.002330 0
M  V30 42 C -4.447593 1.052565 3.277254 0
M  V30 43 C -1.390785 -0.993261 4.399412 0
M  V30 44 C -0.832916 -2.207745 3.702214 0
M  V30 45 C -0.511495 -3.936380 -0.757156 0
M  V30 46 H 3.467396 -2.816478 -1.539536 0
M  V30 47 H 3.633190 -4.434929 -4.275245 0
M  V30 48 H 4.344904 -3.749111 -6.555527 0
M  V30 49 H 4.644904 -1.527963 -8.194448 0
M  V30 50 H 2.186493 2.361114 -7.161418 0
M  V30 51 H 1.465833 4.562230 -6.413457 0
M  V30 52 H 3.479751 3.826295 -2.703100 0
M  V30 53 H 4.179701 1.590293 -3.516455 0
M  V30 54 H 2.817454 -0.370612 -3.382382 0
M  V30 55 H 1.072239 -2.660084 0.090203 0
M  V30 56 H 1.897046 -5.354030 -0.964819 0
M  V30 57 H 2.491022 -4.469044 0.538320 0
M  V30 58 H 0.775192 -5.402250 1.760511 0
M  V30 59 H 0.560129 -6.515264 0.421000 0
M  V30 60 H -2.736232 -4.726388 0.325019 0
M  V30 61 H -2.035822 -5.971600 1.361789 0
M  V30 62 H -3.799486 -3.805010 3.967520 0
M  V30 63 H -2.744092 -3.004825 5.189133 0
M  V30 64 H -4.623551 -1.558417 3.545991 0
M  V30 65 H -1.346647 1.723656 4.163812 0
M  V30 66 H -2.065979 3.967518 3.696384 0
M  V30 67 H -7.061979 6.544113 1.839748 0
M  V30 68 H -5.361084 8.360789 2.200749 0
M  V30 69 H -3.075901 7.756043 3.007994 0
M  V30 70 H -5.881649 2.568711 2.672768 0
M  V30 71 H -5.210419 0.307501 3.120082 0
M  V30 72 H -1.432712 -1.157716 5.518778 0
M  V30 73 H -0.680535 -0.150267 4.278383 0
M  V30 74 H -0.154284 -1.934451 2.853625 0
M  V30 75 H -0.245406 -2.765802 4.478295 0
M  V30 76 H -0.571707 -4.478683 -1.750543 0
M  V30 77 H -1.241760 -3.102516 -0.750066 0
M  V30 END ATOM
M  V30 BEGIN BOND
M  V30 1 2 1 2
M  V30 2 1 2 3
M  V30 3 1 3 4
M  V30 4 2 4 5
M  V30 5 1 5 6
M  V30 6 2 6 7
M  V30 7 1 7 8
M  V30 8 1 8 9
M  V30 9 2 9 10
M  V30 10 1 10 11
M  V30 11 2 11 12
M  V30 12 1 12 13
M  V30 13 2 13 14
M  V30 14 1 14 15
M  V30 15 1 14 16
M  V30 16 2 16 17
M  V30 17 1 10 18
M  V30 18 2 18 19
M  V30 19 1 2 20
M  V30 20 1 20 21
M  V30 21 1 21 22
M  V30 22 1 22 23
M  V30 23 1 23 24
M  V30 24 1 24 25
M  V30 25 2 25 26
M  V30 26 1 25 27
M  V30 27 1 27 28
M  V30 28 1 28 29
M  V30 29 2 29 30
M  V30 30 1 30 31
M  V30 31 2 31 32
M  V30 32 1 32 33
M  V30 33 2 33 34
M  V30 34 1 34 35
M  V30 35 2 35 36
M  V30 36 1 36 37
M  V30 37 2 37 38
M  V30 38 1 38 39
M  V30 39 2 39 40
M  V30 40 1 34 41
M  V30 41 2 41 42
M  V30 42 1 30 43
M  V30 43 1 43 44
M  V30 44 1 23 45
M  V30 45 1 19 4
M  V30 46 1 45 20
M  V30 47 1 18 7
M  V30 48 1 44 27
M  V30 49 1 17 11
M  V30 50 1 42 31
M  V30 51 1 40 35
M  V30 52 1 3 46
M  V30 53 1 5 47
M  V30 54 1 6 48
M  V30 55 1 8 49
M  V30 56 1 12 50
M  V30 57 1 13 51
M  V30 58 1 16 52
M  V30 59 1 17 53
M  V30 60 1 19 54
M  V30 61 1 20 55 CFG=1
M  V30 62 1 21 56
M  V30 63 1 21 57
M  V30 64 1 22 58
M  V30 65 1 22 59
M  V30 66 1 24 60
M  V30 67 1 24 61
M  V30 68 1 28 62
M  V30 69 1 28 63
M  V30 70 1 29 64
M  V30 71 1 32 65
M  V30 72 1 33 66
M  V30 73 1 37 67
M  V30 74 1 38 68
M  V30 75 1 39 69
M  V30 76 1 41 70
M  V30 77 1 42 71
M  V30 78 1 43 72
M  V30 79 1 43 73
M  V30 80 1 44 74
M  V30 81 1 44 75
M  V30 82 1 45 76
M  V30 83 1 45 77
M  V30 END BOND
M  V30 END CTAB
M  END
>  <Dataset>  (936) 
ChEMBL_Kinases

>  <Ligand_Instance>  (936) 
nan

>  <PDB_ID>  (936) 
nan

>  <Standardized_SMILES>  (936) 
O=C(Nc1ccc2[nH]nc(-c3ccc(F)cc3)c2c1)[C@@H]1CCN(CC(=O)N2CC=C(c3ccc(-c4ncccn4)cc3)CC2)C1

>  <Name>  (936) 
nan

>  <Pocket>  (936) 
nan

>  <ATP_Site>  (936) 
nan

>  <Peripheral>  (936) 
nan

>  <Num_H_Atoms_ProtBoundConf>  (936) 
nan

>  <Num_Resolved_Atoms>  (936) 
nan

>  <Num_Not_Resolved_Atoms>  (936) 
nan

$$$$
CHEMBL4224786
     RDKit          3D

  0  0  0  0  0  0  0  0  0  0999 V3000
M  V30 BEGIN CTAB
M  V30 COUNTS 38 40 0 0 0
M  V30 BEGIN ATOM
M  V30 1 C 0.947444 -6.596857 -0.735338 0
M  V30 2 C 1.827650 -5.491576 -0.276086 0
M  V30 3 O 2.932176 -5.793622 0.291720 0
M  V30 4 N 1.506040 -4.114417 -0.434938 0
M  V30 5 C 2.542210 -3.263105 0.103441 0
M  V30 6 C 2.256327 -1.833805 -0.036748 0
M  V30 7 O 3.077508 -0.968205 0.390901 0
M  V30 8 N 1.097581 -1.274317 -0.631248 0
M  V30 9 C 0.858768 0.127362 -0.747305 0
M  V30 10 C 1.224652 0.948031 -1.794274 0
M  V30 11 C 0.919500 2.294452 -1.759032 0
M  V30 12 C 0.247546 2.845538 -0.685496 0
M  V30 13 C -0.163711 4.137882 -0.422506 0
M  V30 14 N -0.764521 4.088141 0.761202 0
M  V30 15 N -0.745120 2.859412 1.230611 0
M  V30 16 C -1.269689 2.345608 2.458205 0
M  V30 17 C -0.414642 2.252558 3.544218 0
M  V30 18 N -0.917575 1.762098 4.714043 0
M  V30 19 C -2.220248 1.387645 4.771971 0
M  V30 20 C -3.079429 1.476882 3.694846 0
M  V30 21 C -4.438725 1.057406 3.850669 0
M  V30 22 N -5.537990 0.735438 3.986616 0
M  V30 23 N -2.575875 1.967200 2.526063 0
M  V30 24 C -0.116981 2.015416 0.362745 0
M  V30 25 C 0.177412 0.673110 0.346632 0
M  V30 26 H 0.407232 -6.279271 -1.651010 0
M  V30 27 H 1.560215 -7.494052 -0.893929 0
M  V30 28 H 0.183721 -6.748586 0.058199 0
M  V30 29 H 0.586873 -3.967606 -0.907988 0
M  V30 30 H 3.536627 -3.500981 -0.326299 0
M  V30 31 H 2.617450 -3.555463 1.189773 0
M  V30 32 H 0.372506 -1.941104 -1.008355 0
M  V30 33 H 1.748672 0.453622 -2.604803 0
M  V30 34 H 1.222625 2.901739 -2.596463 0
M  V30 35 H -0.033036 5.029241 -1.043289 0
M  V30 36 H 0.610620 2.570969 3.420029 0
M  V30 37 H -2.571206 1.002954 5.729118 0
M  V30 38 H -0.137887 0.069129 1.206284 0
M  V30 END ATOM
M  V30 BEGIN BOND
M  V30 1 1 1 2
M  V30 2 2 2 3
M  V30 3 1 2 4
M  V30 4 1 4 5
M  V30 5 1 5 6
M  V30 6 2 6 7
M  V30 7 1 6 8
M  V30 8 1 8 9
M  V30 9 2 9 10
M  V30 10 1 10 11
M  V30 11 2 11 12
M  V30 12 1 12 13
M  V30 13 2 13 14
M  V30 14 1 14 15
M  V30 15 1 15 16
M  V30 16 2 16 17
M  V30 17 1 17 18
M  V30 18 2 18 19
M  V30 19 1 19 20
M  V30 20 1 20 21
M  V30 21 3 21 22
M  V30 22 2 20 23
M  V30 23 1 15 24
M  V30 24 2 24 25
M  V30 25 1 25 9
M  V30 26 1 24 12
M  V30 27 1 23 16
M  V30 28 1 1 26
M  V30 29 1 1 27
M  V30 30 1 1 28
M  V30 31 1 4 29
M  V30 32 1 5 30
M  V30 33 1 5 31
M  V30 34 1 8 32
M  V30 35 1 10 33
M  V30 36 1 11 34
M  V30 37 1 13 35
M  V30 38 1 17 36
M  V30 39 1 19 37
M  V30 40 1 25 38
M  V30 END BOND
M  V30 END CTAB
M  END
>  <Dataset>  (937) 
ChEMBL_Kinases

>  <Ligand_Instance>  (937) 
nan

>  <PDB_ID>  (937) 
nan

>  <Standardized_SMILES>  (937) 
CC(=O)NCC(=O)Nc1ccc2cnn(-c3cncc(C#N)n3)c2c1

>  <Name>  (937) 
nan

>  <Pocket>  (937) 
nan

>  <ATP_Site>  (937) 
nan

>  <Peripheral>  (937) 
nan

>  <Num_H_Atoms_ProtBoundConf>  (937) 
nan

>  <Num_Resolved_Atoms>  (937) 
nan

>  <Num_Not_Resolved_Atoms>  (937) 
nan

$$$$
CHEMBL4224757
     RDKit          3D

  0  0  0  0  0  0  0  0  0  0999 V3000
M  V30 BEGIN CTAB
M  V30 COUNTS 57 59 0 0 0
M  V30 BEGIN ATOM
M  V30 1 C -0.232170 -5.197611 3.949397 0
M  V30 2 C 0.277221 -3.953480 3.222778 0
M  V30 3 O 1.448512 -4.242708 2.482669 0
M  V30 4 C 2.021410 -3.199360 1.770362 0
M  V30 5 C 1.480969 -1.925822 1.775421 0
M  V30 6 C 2.109160 -0.943670 1.041775 0
M  V30 7 C 3.244675 -1.107493 0.289090 0
M  V30 8 N 3.881099 -0.087679 -0.460642 0
M  V30 9 C 3.453640 1.243616 -0.661633 0
M  V30 10 N 4.258610 2.061660 -1.347677 0
M  V30 11 C 4.024229 3.336870 -1.633968 0
M  V30 12 C 2.839328 3.840438 -1.172891 0
M  V30 13 Br 2.393122 5.664040 -1.523781 0
M  V30 14 C 1.949723 3.038955 -0.448344 0
M  V30 15 N 0.755344 3.617934 0.002508 0
M  V30 16 C -0.292269 2.970319 0.748243 0
M  V30 17 C -0.942925 1.852868 -0.080636 0
M  V30 18 C -2.011683 1.242479 0.741035 0
M  V30 19 N -2.754786 0.185735 0.144177 0
M  V30 20 C -3.927272 0.582434 -0.583008 0
M  V30 21 C -2.494946 -1.208437 0.169489 0
M  V30 22 O -1.581019 -1.885956 0.698970 0
M  V30 23 C -3.321753 -2.217070 -0.478437 0
M  V30 24 C -2.827565 -3.636888 -0.301365 0
M  V30 25 C -3.262056 -3.891351 -1.732760 0
M  V30 26 C -3.146487 -2.396178 -1.959221 0
M  V30 27 N 2.318769 1.786706 -0.240031 0
M  V30 28 C 3.728920 -2.392637 0.327121 0
M  V30 29 C 3.161935 -3.416101 1.029596 0
M  V30 30 H 0.583113 -5.692812 4.505017 0
M  V30 31 H -1.028206 -4.826668 4.648180 0
M  V30 32 H -0.738358 -5.876015 3.243003 0
M  V30 33 H -0.560215 -3.599564 2.592351 0
M  V30 34 H 0.475216 -3.171058 4.005308 0
M  V30 35 H 0.592325 -1.760244 2.356807 0
M  V30 36 H 1.623271 0.011877 1.103325 0
M  V30 37 H 4.783727 -0.396305 -0.910830 0
M  V30 38 H 4.703943 3.964527 -2.192568 0
M  V30 39 H 0.551151 4.624746 -0.196373 0
M  V30 40 H -1.031745 3.658251 1.182229 0
M  V30 41 H 0.227597 2.514499 1.641999 0
M  V30 42 H -1.271082 2.329305 -1.008529 0
M  V30 43 H -0.131196 1.150719 -0.366073 0
M  V30 44 H -2.684186 2.037339 1.109439 0
M  V30 45 H -1.517257 0.811741 1.655558 0
M  V30 46 H -4.819809 -0.058432 -0.318355 0
M  V30 47 H -4.252826 1.602177 -0.401552 0
M  V30 48 H -3.789157 0.392944 -1.671199 0
M  V30 49 H -4.410440 -2.197605 -0.180609 0
M  V30 50 H -1.713222 -3.661586 -0.265623 0
M  V30 51 H -3.344355 -4.218622 0.476821 0
M  V30 52 H -2.550801 -4.509018 -2.317083 0
M  V30 53 H -4.306631 -4.235346 -1.730530 0
M  V30 54 H -2.121823 -2.069438 -2.246571 0
M  V30 55 H -3.969129 -1.986822 -2.590519 0
M  V30 56 H 4.636853 -2.666506 -0.232653 0
M  V30 57 H 3.573521 -4.407448 1.031886 0
M  V30 END ATOM
M  V30 BEGIN BOND
M  V30 1 1 1 2
M  V30 2 1 2 3
M  V30 3 1 3 4
M  V30 4 2 4 5
M  V30 5 1 5 6
M  V30 6 2 6 7
M  V30 7 1 7 8
M  V30 8 1 8 9
M  V30 9 2 9 10
M  V30 10 1 10 11
M  V30 11 2 11 12
M  V30 12 1 12 13
M  V30 13 1 12 14
M  V30 14 1 14 15
M  V30 15 1 15 16
M  V30 16 1 16 17
M  V30 17 1 17 18
M  V30 18 1 18 19
M  V30 19 1 19 20
M  V30 20 1 19 21
M  V30 21 2 21 22
M  V30 22 1 21 23
M  V30 23 1 23 24
M  V30 24 1 24 25
M  V30 25 1 25 26
M  V30 26 2 14 27
M  V30 27 1 7 28
M  V30 28 2 28 29
M  V30 29 1 29 4
M  V30 30 1 27 9
M  V30 31 1 26 23
M  V30 32 1 1 30
M  V30 33 1 1 31
M  V30 34 1 1 32
M  V30 35 1 2 33
M  V30 36 1 2 34
M  V30 37 1 5 35
M  V30 38 1 6 36
M  V30 39 1 8 37
M  V30 40 1 11 38
M  V30 41 1 15 39
M  V30 42 1 16 40
M  V30 43 1 16 41
M  V30 44 1 17 42
M  V30 45 1 17 43
M  V30 46 1 18 44
M  V30 47 1 18 45
M  V30 48 1 20 46
M  V30 49 1 20 47
M  V30 50 1 20 48
M  V30 51 1 23 49
M  V30 52 1 24 50
M  V30 53 1 24 51
M  V30 54 1 25 52
M  V30 55 1 25 53
M  V30 56 1 26 54
M  V30 57 1 26 55
M  V30 58 1 28 56
M  V30 59 1 29 57
M  V30 END BOND
M  V30 END CTAB
M  END
>  <Dataset>  (938) 
ChEMBL_Kinases

>  <Ligand_Instance>  (938) 
nan

>  <PDB_ID>  (938) 
nan

>  <Standardized_SMILES>  (938) 
CCOc1ccc(Nc2ncc(Br)c(NCCCN(C)C(=O)C3CCC3)n2)cc1

>  <Name>  (938) 
nan

>  <Pocket>  (938) 
nan

>  <ATP_Site>  (938) 
nan

>  <Peripheral>  (938) 
nan

>  <Num_H_Atoms_ProtBoundConf>  (938) 
nan

>  <Num_Resolved_Atoms>  (938) 
nan

>  <Num_Not_Resolved_Atoms>  (938) 
nan

$$$$
CHEMBL4228960
     RDKit          3D

  0  0  0  0  0  0  0  0  0  0999 V3000
M  V30 BEGIN CTAB
M  V30 COUNTS 78 84 0 0 0
M  V30 BEGIN ATOM
M  V30 1 O 0.722513 -5.026160 1.360184 0
M  V30 2 C 0.072536 -3.921521 1.478365 0
M  V30 3 N 0.639692 -2.788391 0.878109 0
M  V30 4 C 1.849755 -2.688779 0.159109 0
M  V30 5 C 2.823272 -3.652247 0.163065 0
M  V30 6 C 3.979099 -3.586967 -0.584424 0
M  V30 7 C 4.166533 -2.463712 -1.398130 0
M  V30 8 N 5.175220 -2.168546 -2.215112 0
M  V30 9 N 4.850794 -1.015929 -2.746088 0
M  V30 10 C 3.651081 -0.576005 -2.277015 0
M  V30 11 C 3.101849 0.678356 -2.758611 0
M  V30 12 C 3.146367 0.831191 -4.153223 0
M  V30 13 C 2.691110 1.948379 -4.856528 0
M  V30 14 C 2.155508 2.982347 -4.118521 0
M  V30 15 F 1.696791 4.092808 -4.741727 0
M  V30 16 C 2.107720 2.841699 -2.751454 0
M  V30 17 C 2.560477 1.733776 -2.070476 0
M  V30 18 C 3.165320 -1.501135 -1.384018 0
M  V30 19 C 2.010570 -1.567245 -0.635508 0
M  V30 20 C -1.063214 -4.411780 2.254595 0
M  V30 21 C -1.854079 -5.435831 1.452053 0
M  V30 22 N -3.134728 -4.981121 1.108463 0
M  V30 23 C -3.367606 -3.731275 0.504621 0
M  V30 24 C -2.805191 -3.438908 -0.804029 0
M  V30 25 O -2.083630 -4.234464 -1.463529 0
M  V30 26 N -3.241267 -2.094580 -1.137715 0
M  V30 27 C -4.157489 -1.226861 -0.433098 0
M  V30 28 C -3.317793 -0.277716 0.324851 0
M  V30 29 C -2.346907 0.241891 -0.396255 0
M  V30 30 C -1.522097 1.173773 0.347531 0
M  V30 31 C -1.711125 1.495056 1.670218 0
M  V30 32 C -0.954252 2.374486 2.413865 0
M  V30 33 C 0.103523 3.010949 1.801010 0
M  V30 34 C 0.928592 3.949064 2.550752 0
M  V30 35 N 1.961970 4.581276 1.978567 0
M  V30 36 C 2.743391 5.454659 2.645351 0
M  V30 37 C 2.453426 5.694640 3.966607 0
M  V30 38 C 1.395189 5.056965 4.579622 0
M  V30 39 N 0.658826 4.195227 3.843714 0
M  V30 40 C 0.348999 2.733693 0.474152 0
M  V30 41 C -0.458131 1.829523 -0.225296 0
M  V30 42 C -2.092743 -0.065457 -1.819612 0
M  V30 43 C -2.716689 -1.359049 -2.297007 0
M  V30 44 C -3.881189 -4.948303 2.434589 0
M  V30 45 C -3.022685 -4.119827 3.339037 0
M  V30 46 O -1.973709 -3.485664 2.686290 0
M  V30 47 H -0.030303 -2.029012 1.081169 0
M  V30 48 H 2.782144 -4.547097 0.757205 0
M  V30 49 H 4.745575 -4.349128 -0.578579 0
M  V30 50 H 6.030458 -2.740635 -2.384765 0
M  V30 51 H 3.558612 0.048966 -4.798305 0
M  V30 52 H 2.758074 1.995206 -5.932995 0
M  V30 53 H 1.683615 3.672337 -2.209355 0
M  V30 54 H 2.540532 1.590987 -1.002830 0
M  V30 55 H 1.328415 -0.755013 -0.722351 0
M  V30 56 H -0.681581 -4.903842 3.208794 0
M  V30 57 H -1.248412 -5.845004 0.618198 0
M  V30 58 H -1.990841 -6.321789 2.140172 0
M  V30 59 H -4.528301 -3.773503 0.283674 0
M  V30 60 H -3.364346 -2.910953 1.241038 0
M  V30 61 H -4.886193 -1.793288 0.182207 0
M  V30 62 H -4.772159 -0.645519 -1.147079 0
M  V30 63 H -3.651452 -0.178097 1.339759 0
M  V30 64 H -2.504694 1.062842 2.256505 0
M  V30 65 H -1.138886 2.599844 3.458478 0
M  V30 66 H 3.585596 5.970615 2.181005 0
M  V30 67 H 3.018162 6.378982 4.596461 0
M  V30 68 H 1.101598 5.196337 5.628689 0
M  V30 69 H 1.186116 3.261064 0.062453 0
M  V30 70 H -0.220201 1.646845 -1.274104 0
M  V30 71 H -2.438842 0.806218 -2.432582 0
M  V30 72 H -0.991032 -0.184481 -2.014205 0
M  V30 73 H -2.072923 -1.972192 -2.926379 0
M  V30 74 H -3.597909 -1.084325 -2.911333 0
M  V30 75 H -4.031004 -5.975595 2.760702 0
M  V30 76 H -4.800123 -4.382933 2.188179 0
M  V30 77 H -2.649365 -4.784992 4.156709 0
M  V30 78 H -3.641078 -3.335595 3.868037 0
M  V30 END ATOM
M  V30 BEGIN BOND
M  V30 1 2 1 2
M  V30 2 1 2 3
M  V30 3 1 3 4
M  V30 4 2 4 5
M  V30 5 1 5 6
M  V30 6 2 6 7
M  V30 7 1 7 8
M  V30 8 1 8 9
M  V30 9 2 9 10
M  V30 10 1 10 11
M  V30 11 2 11 12
M  V30 12 1 12 13
M  V30 13 2 13 14
M  V30 14 1 14 15
M  V30 15 1 14 16
M  V30 16 2 16 17
M  V30 17 1 10 18
M  V30 18 2 18 19
M  V30 19 1 2 20
M  V30 20 1 20 21
M  V30 21 1 21 22
M  V30 22 1 22 23
M  V30 23 1 23 24
M  V30 24 2 24 25
M  V30 25 1 24 26
M  V30 26 1 26 27
M  V30 27 1 27 28
M  V30 28 2 28 29
M  V30 29 1 29 30
M  V30 30 2 30 31
M  V30 31 1 31 32
M  V30 32 2 32 33
M  V30 33 1 33 34
M  V30 34 2 34 35
M  V30 35 1 35 36
M  V30 36 2 36 37
M  V30 37 1 37 38
M  V30 38 2 38 39
M  V30 39 1 33 40
M  V30 40 2 40 41
M  V30 41 1 29 42
M  V30 42 1 42 43
M  V30 43 1 22 44
M  V30 44 1 44 45
M  V30 45 1 45 46
M  V30 46 1 19 4
M  V30 47 1 46 20
M  V30 48 1 18 7
M  V30 49 1 43 26
M  V30 50 1 17 11
M  V30 51 1 41 30
M  V30 52 1 39 34
M  V30 53 1 3 47
M  V30 54 1 5 48
M  V30 55 1 6 49
M  V30 56 1 8 50
M  V30 57 1 12 51
M  V30 58 1 13 52
M  V30 59 1 16 53
M  V30 60 1 17 54
M  V30 61 1 19 55
M  V30 62 1 20 56
M  V30 63 1 21 57
M  V30 64 1 21 58
M  V30 65 1 23 59
M  V30 66 1 23 60
M  V30 67 1 27 61
M  V30 68 1 27 62
M  V30 69 1 28 63
M  V30 70 1 31 64
M  V30 71 1 32 65
M  V30 72 1 36 66
M  V30 73 1 37 67
M  V30 74 1 38 68
M  V30 75 1 40 69
M  V30 76 1 41 70
M  V30 77 1 42 71
M  V30 78 1 42 72
M  V30 79 1 43 73
M  V30 80 1 43 74
M  V30 81 1 44 75
M  V30 82 1 44 76
M  V30 83 1 45 77
M  V30 84 1 45 78
M  V30 END BOND
M  V30 END CTAB
M  END
>  <Dataset>  (939) 
ChEMBL_Kinases

>  <Ligand_Instance>  (939) 
nan

>  <PDB_ID>  (939) 
nan

>  <Standardized_SMILES>  (939) 
O=C(Nc1ccc2[nH]nc(-c3ccc(F)cc3)c2c1)C1CN(CC(=O)N2CC=C(c3ccc(-c4ncccn4)cc3)CC2)CCO1

>  <Name>  (939) 
nan

>  <Pocket>  (939) 
nan

>  <ATP_Site>  (939) 
nan

>  <Peripheral>  (939) 
nan

>  <Num_H_Atoms_ProtBoundConf>  (939) 
nan

>  <Num_Resolved_Atoms>  (939) 
nan

>  <Num_Not_Resolved_Atoms>  (939) 
nan

$$$$
CHEMBL4776497
     RDKit          3D

  0  0  0  0  0  0  0  0  0  0999 V3000
M  V30 BEGIN CTAB
M  V30 COUNTS 37 40 0 0 0
M  V30 BEGIN ATOM
M  V30 1 F -1.292571 -4.332174 3.581860 0
M  V30 2 C -0.905977 -4.828986 2.351133 0
M  V30 3 F -1.692262 -5.918373 2.018961 0
M  V30 4 F 0.424922 -5.196408 2.411322 0
M  V30 5 C -1.049303 -3.767620 1.325630 0
M  V30 6 C -1.877636 -3.920045 0.236643 0
M  V30 7 N -1.998790 -2.953781 -0.683636 0
M  V30 8 C -1.327682 -1.803504 -0.591772 0
M  V30 9 N -1.474323 -0.794151 -1.582268 0
M  V30 10 C -0.860947 0.483364 -1.672502 0
M  V30 11 C -1.133848 1.334291 -2.723954 0
M  V30 12 N -0.569058 2.545680 -2.834004 0
M  V30 13 C 0.303410 3.022429 -1.931441 0
M  V30 14 N 0.993317 4.171615 -1.811641 0
M  V30 15 C 1.746139 4.147537 -0.697954 0
M  V30 16 C 1.538568 2.920827 -0.056453 0
M  V30 17 C 0.628469 2.230439 -0.849440 0
M  V30 18 C 0.035776 0.988577 -0.756549 0
M  V30 19 N -0.536470 -1.706268 0.485646 0
M  V30 20 C -0.348119 -2.590894 1.440941 0
M  V30 21 N 0.540926 -2.342780 2.544965 0
M  V30 22 C 1.339063 -1.157448 2.794727 0
M  V30 23 C 2.218300 -1.034181 3.980639 0
M  V30 24 C 2.841506 -1.401653 2.680458 0
M  V30 25 H -2.449118 -4.840795 0.113176 0
M  V30 26 H -2.141261 -1.025120 -2.375650 0
M  V30 27 H -1.823182 1.059411 -3.515379 0
M  V30 28 H 0.940527 4.969730 -2.502264 0
M  V30 29 H 2.409132 4.920303 -0.327805 0
M  V30 30 H 1.985433 2.569404 0.863907 0
M  V30 31 H 0.320599 0.421526 0.093876 0
M  V30 32 H 0.649961 -3.081816 3.273092 0
M  V30 33 H 0.941507 -0.241265 2.315111 0
M  V30 34 H 2.432183 0.019582 4.300314 0
M  V30 35 H 2.172322 -1.739471 4.814341 0
M  V30 36 H 3.406124 -0.642747 2.100081 0
M  V30 37 H 3.210011 -2.441658 2.628859 0
M  V30 END ATOM
M  V30 BEGIN BOND
M  V30 1 1 1 2
M  V30 2 1 2 3
M  V30 3 1 2 4
M  V30 4 1 2 5
M  V30 5 2 5 6
M  V30 6 1 6 7
M  V30 7 2 7 8
M  V30 8 1 8 9
M  V30 9 1 9 10
M  V30 10 2 10 11
M  V30 11 1 11 12
M  V30 12 2 12 13
M  V30 13 1 13 14
M  V30 14 1 14 15
M  V30 15 2 15 16
M  V30 16 1 16 17
M  V30 17 2 17 18
M  V30 18 1 8 19
M  V30 19 2 19 20
M  V30 20 1 20 21
M  V30 21 1 21 22
M  V30 22 1 22 23
M  V30 23 1 23 24
M  V30 24 1 20 5
M  V30 25 1 24 22
M  V30 26 1 18 10
M  V30 27 1 17 13
M  V30 28 1 6 25
M  V30 29 1 9 26
M  V30 30 1 11 27
M  V30 31 1 14 28
M  V30 32 1 15 29
M  V30 33 1 16 30
M  V30 34 1 18 31
M  V30 35 1 21 32
M  V30 36 1 22 33
M  V30 37 1 23 34
M  V30 38 1 23 35
M  V30 39 1 24 36
M  V30 40 1 24 37
M  V30 END BOND
M  V30 END CTAB
M  END
>  <Dataset>  (940) 
ChEMBL_Kinases

>  <Ligand_Instance>  (940) 
nan

>  <PDB_ID>  (940) 
nan

>  <Standardized_SMILES>  (940) 
FC(F)(F)c1cnc(Nc2cnc3[nH]ccc3c2)nc1NC1CC1

>  <Name>  (940) 
nan

>  <Pocket>  (940) 
nan

>  <ATP_Site>  (940) 
nan

>  <Peripheral>  (940) 
nan

>  <Num_H_Atoms_ProtBoundConf>  (940) 
nan

>  <Num_Resolved_Atoms>  (940) 
nan

>  <Num_Not_Resolved_Atoms>  (940) 
nan

$$$$
CHEMBL4224755
     RDKit          3D

  0  0  0  0  0  0  0  0  0  0999 V3000
M  V30 BEGIN CTAB
M  V30 COUNTS 67 70 0 0 0
M  V30 BEGIN ATOM
M  V30 1 C 4.999331 -3.805892 2.354154 0
M  V30 2 C 5.234012 -2.661039 2.076940 0
M  V30 3 C 5.533631 -1.270914 1.761593 0
M  V30 4 N 5.038619 -0.853498 0.469185 0
M  V30 5 C 5.472238 -0.750453 -0.919520 0
M  V30 6 C 5.085718 -1.994792 -1.683403 0
M  V30 7 C 5.693132 -3.248334 -1.109967 0
M  V30 8 C 5.584680 -1.849684 -3.101904 0
M  V30 9 C 3.694113 -0.404393 0.590898 0
M  V30 10 O 3.406482 -0.570293 1.794959 0
M  V30 11 C 2.568096 0.160935 -0.152144 0
M  V30 12 C 1.348514 0.210678 0.702940 0
M  V30 13 C 0.345811 -0.753553 0.458699 0
M  V30 14 C -0.873783 -0.886617 1.144855 0
M  V30 15 C -1.709052 -2.012619 0.632507 0
M  V30 16 N -0.983671 -3.248696 0.750654 0
M  V30 17 C -1.330171 -4.454198 1.393413 0
M  V30 18 O -0.587922 -5.458359 1.477799 0
M  V30 19 N -2.664992 -4.365840 1.939939 0
M  V30 20 C -3.452383 -3.188650 1.818840 0
M  V30 21 C -4.803065 -3.161220 2.374840 0
M  V30 22 C -3.053733 -2.085952 1.220978 0
M  V30 23 C -3.747976 -0.851377 0.952560 0
M  V30 24 O -3.240470 0.171280 0.351053 0
M  V30 25 N -5.000784 -0.226350 1.125107 0
M  V30 26 C -5.090910 1.103567 0.625397 0
M  V30 27 C -4.815125 2.043548 1.603580 0
M  V30 28 C -4.805872 3.409000 1.423918 0
M  V30 29 C -5.098373 3.894775 0.143064 0
M  V30 30 N -5.205742 5.077664 -0.496992 0
M  V30 31 N -5.520986 4.901110 -1.763419 0
M  V30 32 C -5.639432 3.568673 -2.032909 0
M  V30 33 C -5.368901 2.952053 -0.814629 0
M  V30 34 C -5.382843 1.579945 -0.647048 0
M  V30 35 C -1.093035 0.022356 2.155956 0
M  V30 36 C -0.140460 0.966130 2.415194 0
M  V30 37 C 1.034137 1.068996 1.729396 0
M  V30 38 F 1.981707 2.001905 1.983605 0
M  V30 39 H 4.786921 -4.823003 2.611688 0
M  V30 40 H 5.176945 -0.567630 2.533686 0
M  V30 41 H 6.667202 -1.247165 1.771734 0
M  V30 42 H 6.565400 -0.645437 -0.982301 0
M  V30 43 H 5.040892 0.125997 -1.429024 0
M  V30 44 H 3.967854 -2.122826 -1.683533 0
M  V30 45 H 5.939739 -3.924581 -1.981769 0
M  V30 46 H 6.659933 -3.070186 -0.633591 0
M  V30 47 H 4.965427 -3.837976 -0.520370 0
M  V30 48 H 4.916063 -2.384423 -3.808184 0
M  V30 49 H 6.598295 -2.344596 -3.125713 0
M  V30 50 H 5.684451 -0.825697 -3.460051 0
M  V30 51 H 2.339771 -0.361558 -1.092510 0
M  V30 52 H 2.827760 1.229281 -0.384470 0
M  V30 53 H 0.577631 -1.436789 -0.356616 0
M  V30 54 H -1.782298 -1.812070 -0.484974 0
M  V30 55 H -0.064130 -3.211811 0.272278 0
M  V30 56 H -3.046374 -5.196744 2.435839 0
M  V30 57 H -4.955968 -4.174940 2.877042 0
M  V30 58 H -4.954735 -2.403657 3.152827 0
M  V30 59 H -5.623597 -3.119885 1.650231 0
M  V30 60 H -5.654905 -0.872663 1.609911 0
M  V30 61 H -4.568549 1.825991 2.667396 0
M  V30 62 H -4.608833 4.179918 2.142102 0
M  V30 63 H -5.040256 5.972799 0.049720 0
M  V30 64 H -5.881309 3.161833 -3.008308 0
M  V30 65 H -5.574959 0.794372 -1.346644 0
M  V30 66 H -2.024641 -0.098316 2.678030 0
M  V30 67 H -0.333508 1.661657 3.200262 0
M  V30 END ATOM
M  V30 BEGIN BOND
M  V30 1 3 1 2
M  V30 2 1 2 3
M  V30 3 1 3 4
M  V30 4 1 4 5
M  V30 5 1 5 6
M  V30 6 1 6 7
M  V30 7 1 6 8
M  V30 8 1 4 9
M  V30 9 2 9 10
M  V30 10 1 9 11
M  V30 11 1 11 12
M  V30 12 2 12 13
M  V30 13 1 13 14
M  V30 14 1 14 15
M  V30 15 1 15 16
M  V30 16 1 16 17
M  V30 17 2 17 18
M  V30 18 1 17 19
M  V30 19 1 19 20
M  V30 20 1 20 21
M  V30 21 2 20 22
M  V30 22 1 22 23
M  V30 23 2 23 24
M  V30 24 1 23 25
M  V30 25 1 25 26
M  V30 26 2 26 27
M  V30 27 1 27 28
M  V30 28 2 28 29
M  V30 29 1 29 30
M  V30 30 1 30 31
M  V30 31 2 31 32
M  V30 32 1 32 33
M  V30 33 2 33 34
M  V30 34 2 14 35
M  V30 35 1 35 36
M  V30 36 2 36 37
M  V30 37 1 37 38
M  V30 38 1 37 12
M  V30 39 1 22 15
M  V30 40 1 34 26
M  V30 41 1 33 29
M  V30 42 1 1 39
M  V30 43 1 3 40
M  V30 44 1 3 41
M  V30 45 1 5 42
M  V30 46 1 5 43
M  V30 47 1 6 44
M  V30 48 1 7 45
M  V30 49 1 7 46
M  V30 50 1 7 47
M  V30 51 1 8 48
M  V30 52 1 8 49
M  V30 53 1 8 50
M  V30 54 1 11 51
M  V30 55 1 11 52
M  V30 56 1 13 53
M  V30 57 1 15 54
M  V30 58 1 16 55
M  V30 59 1 19 56
M  V30 60 1 21 57
M  V30 61 1 21 58
M  V30 62 1 21 59
M  V30 63 1 25 60
M  V30 64 1 27 61
M  V30 65 1 28 62
M  V30 66 1 30 63
M  V30 67 1 32 64
M  V30 68 1 34 65
M  V30 69 1 35 66
M  V30 70 1 36 67
M  V30 END BOND
M  V30 END CTAB
M  END
>  <Dataset>  (941) 
ChEMBL_Kinases

>  <Ligand_Instance>  (941) 
nan

>  <PDB_ID>  (941) 
nan

>  <Standardized_SMILES>  (941) 
C#CCN(CC(C)C)C(=O)Cc1cc(C2NC(=O)NC(C)=C2C(=O)Nc2ccc3[nH]ncc3c2)ccc1F

>  <Name>  (941) 
nan

>  <Pocket>  (941) 
nan

>  <ATP_Site>  (941) 
nan

>  <Peripheral>  (941) 
nan

>  <Num_H_Atoms_ProtBoundConf>  (941) 
nan

>  <Num_Resolved_Atoms>  (941) 
nan

>  <Num_Not_Resolved_Atoms>  (941) 
nan

$$$$
CHEMBL4776505
     RDKit          3D

  0  0  0  0  0  0  0  0  0  0999 V3000
M  V30 BEGIN CTAB
M  V30 COUNTS 52 56 0 0 0
M  V30 BEGIN ATOM
M  V30 1 C 2.914933 -4.592956 5.861120 0
M  V30 2 N 2.292504 -4.367137 4.565803 0
M  V30 3 C 2.681498 -3.374038 3.750077 0
M  V30 4 C 1.912973 -3.411062 2.604826 0
M  V30 5 C 1.941443 -2.553636 1.420983 0
M  V30 6 C 2.309330 -1.220824 1.638470 0
M  V30 7 C 2.355501 -0.343540 0.555751 0
M  V30 8 C 2.025585 -0.879894 -0.668428 0
M  V30 9 C 2.076366 0.011570 -1.719569 0
M  V30 10 N 2.430267 1.394225 -1.691917 0
M  V30 11 C 1.405886 2.366256 -1.392497 0
M  V30 12 C 1.610025 3.743728 -1.442456 0
M  V30 13 C 0.559179 4.596616 -1.127464 0
M  V30 14 C -0.701313 4.111741 -0.760443 0
M  V30 15 C -0.911978 2.749796 -0.708338 0
M  V30 16 C -2.244441 2.311027 -0.315924 0
M  V30 17 O -3.104230 3.161000 -0.067512 0
M  V30 18 N -2.466842 0.914369 -0.244650 0
M  V30 19 C -3.524141 0.052660 0.070088 0
M  V30 20 C -3.686882 -0.359291 1.398317 0
M  V30 21 C -4.687946 -1.214493 1.871165 0
M  V30 22 C -5.560209 -1.660197 0.909854 0
M  V30 23 C -5.482268 -1.313748 -0.409496 0
M  V30 24 F -6.358032 -1.772759 -1.322563 0
M  V30 25 C -4.465280 -0.461973 -0.811650 0
M  V30 26 C 0.147897 1.944232 -1.025867 0
M  V30 27 N 1.769754 -0.387985 -2.988275 0
M  V30 28 C 1.415504 -1.685531 -3.177864 0
M  V30 29 N 1.357762 -2.573027 -2.175717 0
M  V30 30 C 1.661031 -2.189870 -0.900884 0
M  V30 31 C 1.619399 -3.041836 0.169726 0
M  V30 32 C 1.028565 -4.485439 2.764481 0
M  V30 33 N 1.294802 -5.037254 3.969872 0
M  V30 34 H 2.428158 -3.984446 6.652100 0
M  V30 35 H 2.813921 -5.675951 6.098520 0
M  V30 36 H 4.007380 -4.378206 5.810460 0
M  V30 37 H 3.430479 -2.619835 3.838436 0
M  V30 38 H 2.554897 -0.877862 2.641249 0
M  V30 39 H 2.635553 0.696155 0.682928 0
M  V30 40 H 3.384388 1.764073 -1.873578 0
M  V30 41 H 2.590994 4.098374 -1.728404 0
M  V30 42 H 0.773038 5.652629 -1.183286 0
M  V30 43 H -1.471073 4.834810 -0.529090 0
M  V30 44 H -1.799701 0.137514 -0.438045 0
M  V30 45 H -2.968260 0.019288 2.136685 0
M  V30 46 H -4.693657 -1.449225 2.926364 0
M  V30 47 H -6.353131 -2.333237 1.260221 0
M  V30 48 H -4.337771 -0.140866 -1.842351 0
M  V30 49 H -0.004151 0.881482 -0.989280 0
M  V30 50 H 1.165312 -2.027538 -4.190435 0
M  V30 51 H 1.341444 -4.058235 0.017616 0
M  V30 52 H 0.249880 -4.866200 2.094560 0
M  V30 END ATOM
M  V30 BEGIN BOND
M  V30 1 1 1 2
M  V30 2 1 2 3
M  V30 3 2 3 4
M  V30 4 1 4 5
M  V30 5 2 5 6
M  V30 6 1 6 7
M  V30 7 2 7 8
M  V30 8 1 8 9
M  V30 9 1 9 10
M  V30 10 1 10 11
M  V30 11 2 11 12
M  V30 12 1 12 13
M  V30 13 2 13 14
M  V30 14 1 14 15
M  V30 15 1 15 16
M  V30 16 2 16 17
M  V30 17 1 16 18
M  V30 18 1 18 19
M  V30 19 2 19 20
M  V30 20 1 20 21
M  V30 21 2 21 22
M  V30 22 1 22 23
M  V30 23 1 23 24
M  V30 24 2 23 25
M  V30 25 2 15 26
M  V30 26 2 9 27
M  V30 27 1 27 28
M  V30 28 2 28 29
M  V30 29 1 29 30
M  V30 30 2 30 31
M  V30 31 1 4 32
M  V30 32 2 32 33
M  V30 33 1 33 2
M  V30 34 1 31 5
M  V30 35 1 30 8
M  V30 36 1 26 11
M  V30 37 1 25 19
M  V30 38 1 1 34
M  V30 39 1 1 35
M  V30 40 1 1 36
M  V30 41 1 3 37
M  V30 42 1 6 38
M  V30 43 1 7 39
M  V30 44 1 10 40
M  V30 45 1 12 41
M  V30 46 1 13 42
M  V30 47 1 14 43
M  V30 48 1 18 44
M  V30 49 1 20 45
M  V30 50 1 21 46
M  V30 51 1 22 47
M  V30 52 1 25 48
M  V30 53 1 26 49
M  V30 54 1 28 50
M  V30 55 1 31 51
M  V30 56 1 32 52
M  V30 END BOND
M  V30 END CTAB
M  END
>  <Dataset>  (942) 
ChEMBL_Kinases

>  <Ligand_Instance>  (942) 
nan

>  <PDB_ID>  (942) 
nan

>  <Standardized_SMILES>  (942) 
Cn1cc(-c2ccc3c(Nc4cccc(C(=O)Nc5cccc(F)c5)c4)ncnc3c2)cn1

>  <Name>  (942) 
nan

>  <Pocket>  (942) 
nan

>  <ATP_Site>  (942) 
nan

>  <Peripheral>  (942) 
nan

>  <Num_H_Atoms_ProtBoundConf>  (942) 
nan

>  <Num_Resolved_Atoms>  (942) 
nan

>  <Num_Not_Resolved_Atoms>  (942) 
nan

$$$$
CHEMBL4776545
     RDKit          3D

  0  0  0  0  0  0  0  0  0  0999 V3000
M  V30 BEGIN CTAB
M  V30 COUNTS 50 55 0 0 0
M  V30 BEGIN ATOM
M  V30 1 C -1.756277 -2.661447 1.476131 0
M  V30 2 C -1.647375 -3.518004 0.291726 0
M  V30 3 C -0.493150 -3.613080 -0.445820 0
M  V30 4 C 0.687461 -2.860129 -0.126609 0
M  V30 5 C 1.893148 -3.537028 -0.089237 0
M  V30 6 C 3.048119 -2.842123 0.205221 0
M  V30 7 C 3.081923 -1.470538 0.474252 0
M  V30 8 C 1.843556 -0.853966 0.420630 0
M  V30 9 C 0.645733 -1.497895 0.129772 0
M  V30 10 C 2.049192 0.552516 0.722648 0
M  V30 11 C 1.265764 1.610692 0.782108 0
M  V30 12 C 1.543579 3.000546 1.099785 0
M  V30 13 C 1.208300 4.150576 0.426392 0
M  V30 14 C 1.650265 5.240800 1.142448 0
M  V30 15 C 1.537512 6.588818 0.854723 0
M  V30 16 N 2.069512 7.437915 1.749068 0
M  V30 17 C 2.687346 7.060687 2.876048 0
M  V30 18 C 2.775268 5.710099 3.120029 0
M  V30 19 C 2.262487 4.729721 2.267538 0
M  V30 20 N 2.195282 3.378595 2.236828 0
M  V30 21 C 3.480677 0.722700 0.955967 0
M  V30 22 O 4.157279 1.738477 1.245645 0
M  V30 23 N 4.103425 -0.540492 0.797844 0
M  V30 24 C -0.424626 -4.439027 -1.549653 0
M  V30 25 N -1.492637 -5.182720 -1.942752 0
M  V30 26 C -2.658986 -5.132741 -1.257486 0
M  V30 27 C -2.697928 -4.293908 -0.152740 0
M  V30 28 N -3.951767 -4.274082 0.528402 0
M  V30 29 C -5.216556 -4.787067 0.027899 0
M  V30 30 C -5.095746 -5.530252 -1.262587 0
M  V30 31 O -3.777756 -5.875917 -1.622525 0
M  V30 32 H -2.245851 -3.304724 2.269251 0
M  V30 33 H -0.764542 -2.425204 1.916515 0
M  V30 34 H -2.428281 -1.814689 1.341129 0
M  V30 35 H 1.973766 -4.577590 -0.278548 0
M  V30 36 H 4.001161 -3.375629 0.234911 0
M  V30 37 H -0.276109 -0.953649 0.103876 0
M  V30 38 H 0.207934 1.423791 0.551357 0
M  V30 39 H 0.688603 4.160658 -0.501793 0
M  V30 40 H 1.072658 7.018097 -0.002835 0
M  V30 41 H 3.120074 7.745745 3.604973 0
M  V30 42 H 3.267621 5.381002 4.017106 0
M  V30 43 H 2.624854 2.895018 3.060740 0
M  V30 44 H 5.099650 -0.811844 0.883470 0
M  V30 45 H 0.464476 -4.523656 -2.130464 0
M  V30 46 H -4.016670 -3.862142 1.473475 0
M  V30 47 H -5.798194 -5.344226 0.791590 0
M  V30 48 H -5.832086 -3.861604 -0.173109 0
M  V30 49 H -5.529369 -4.949582 -2.125802 0
M  V30 50 H -5.701202 -6.472932 -1.248272 0
M  V30 END ATOM
M  V30 BEGIN BOND
M  V30 1 1 1 2
M  V30 2 2 2 3
M  V30 3 1 3 4
M  V30 4 2 4 5
M  V30 5 1 5 6
M  V30 6 2 6 7
M  V30 7 1 7 8
M  V30 8 2 8 9
M  V30 9 1 8 10
M  V30 10 2 10 11
M  V30 11 1 11 12
M  V30 12 2 12 13
M  V30 13 1 13 14
M  V30 14 2 14 15
M  V30 15 1 15 16
M  V30 16 2 16 17
M  V30 17 1 17 18
M  V30 18 2 18 19
M  V30 19 1 19 20
M  V30 20 1 10 21
M  V30 21 2 21 22
M  V30 22 1 21 23
M  V30 23 1 3 24
M  V30 24 2 24 25
M  V30 25 1 25 26
M  V30 26 2 26 27
M  V30 27 1 27 28
M  V30 28 1 28 29
M  V30 29 1 29 30
M  V30 30 1 30 31
M  V30 31 1 27 2
M  V30 32 1 9 4
M  V30 33 1 20 12
M  V30 34 1 31 26
M  V30 35 1 23 7
M  V30 36 1 19 14
M  V30 37 1 1 32
M  V30 38 1 1 33
M  V30 39 1 1 34
M  V30 40 1 5 35
M  V30 41 1 6 36
M  V30 42 1 9 37
M  V30 43 1 11 38
M  V30 44 1 13 39
M  V30 45 1 15 40
M  V30 46 1 17 41
M  V30 47 1 18 42
M  V30 48 1 20 43
M  V30 49 1 23 44
M  V30 50 1 24 45
M  V30 51 1 28 46
M  V30 52 1 29 47
M  V30 53 1 29 48
M  V30 54 1 30 49
M  V30 55 1 30 50
M  V30 END BOND
M  V30 END CTAB
M  END
>  <Dataset>  (943) 
ChEMBL_Kinases

>  <Ligand_Instance>  (943) 
nan

>  <PDB_ID>  (943) 
nan

>  <Standardized_SMILES>  (943) 
Cc1c(-c2ccc3c(c2)/C(=C/c2cc4cnccc4[nH]2)C(=O)N3)cnc2c1NCCO2

>  <Name>  (943) 
nan

>  <Pocket>  (943) 
nan

>  <ATP_Site>  (943) 
nan

>  <Peripheral>  (943) 
nan

>  <Num_H_Atoms_ProtBoundConf>  (943) 
nan

>  <Num_Resolved_Atoms>  (943) 
nan

>  <Num_Not_Resolved_Atoms>  (943) 
nan

$$$$
CHEMBL4776558
     RDKit          3D

  0  0  0  0  0  0  0  0  0  0999 V3000
M  V30 BEGIN CTAB
M  V30 COUNTS 50 53 0 0 0
M  V30 BEGIN ATOM
M  V30 1 C 4.596942 0.434068 5.527590 0
M  V30 2 C 3.234098 0.243169 6.105211 0
M  V30 3 C 2.109360 0.358022 5.104910 0
M  V30 4 S 2.233624 -0.829914 3.817770 0
M  V30 5 O 2.124627 -2.187630 4.455567 0
M  V30 6 O 3.573380 -0.804178 3.135991 0
M  V30 7 N 0.949850 -0.679718 2.694712 0
M  V30 8 C 0.731671 0.484837 1.923841 0
M  V30 9 C 1.744306 1.451739 1.953185 0
M  V30 10 C 1.587807 2.604310 1.216436 0
M  V30 11 C 0.445547 2.826099 0.444166 0
M  V30 12 F 0.396926 4.010434 -0.248993 0
M  V30 13 C -0.556102 1.880957 0.407252 0
M  V30 14 C -1.729065 2.180230 -0.381488 0
M  V30 15 O -1.894574 3.439272 -0.487673 0
M  V30 16 C -2.747919 1.425423 -1.070663 0
M  V30 17 N -3.958738 1.972562 -1.290008 0
M  V30 18 N -4.712751 1.091688 -1.970132 0
M  V30 19 C -4.058969 -0.039100 -2.224685 0
M  V30 20 N -4.354680 -1.180319 -2.861553 0
M  V30 21 C -3.447659 -2.185505 -2.982245 0
M  V30 22 C -2.201021 -1.963661 -2.410510 0
M  V30 23 C -1.255496 -3.064711 -2.560279 0
M  V30 24 C -0.309078 -3.289638 -1.591290 0
M  V30 25 C 0.592436 -4.345876 -1.739684 0
M  V30 26 C 0.534536 -5.162479 -2.855617 0
M  V30 27 F 1.411018 -6.196771 -3.008951 0
M  V30 28 C -0.418915 -4.945222 -3.843810 0
M  V30 29 C -1.292235 -3.899944 -3.671965 0
M  V30 30 C -1.871964 -0.799615 -1.749919 0
M  V30 31 C -2.827022 0.183583 -1.655569 0
M  V30 32 C -0.367169 0.757302 1.148348 0
M  V30 33 F -1.278500 -0.209554 1.236792 0
M  V30 34 H 4.572386 1.249836 4.751217 0
M  V30 35 H 5.099586 -0.466990 5.167407 0
M  V30 36 H 5.229070 0.880518 6.347357 0
M  V30 37 H 3.034470 1.020152 6.874244 0
M  V30 38 H 3.201641 -0.736349 6.646760 0
M  V30 39 H 1.178271 0.109646 5.677221 0
M  V30 40 H 1.999767 1.395499 4.803241 0
M  V30 41 H 0.249952 -1.461155 2.521698 0
M  V30 42 H 2.666067 1.380275 2.511923 0
M  V30 43 H 2.370326 3.378147 1.225385 0
M  V30 44 H -5.694573 1.344121 -2.232034 0
M  V30 45 H -3.708956 -3.100464 -3.501501 0
M  V30 46 H -0.222886 -2.684048 -0.706879 0
M  V30 47 H 1.333334 -4.513281 -0.969731 0
M  V30 48 H -0.450517 -5.599203 -4.717830 0
M  V30 49 H -2.034337 -3.750588 -4.466842 0
M  V30 50 H -0.906352 -0.647411 -1.329108 0
M  V30 END ATOM
M  V30 BEGIN BOND
M  V30 1 1 1 2
M  V30 2 1 2 3
M  V30 3 1 3 4
M  V30 4 2 4 5
M  V30 5 2 4 6
M  V30 6 1 4 7
M  V30 7 1 7 8
M  V30 8 2 8 9
M  V30 9 1 9 10
M  V30 10 2 10 11
M  V30 11 1 11 12
M  V30 12 1 11 13
M  V30 13 1 13 14
M  V30 14 2 14 15
M  V30 15 1 14 16
M  V30 16 2 16 17
M  V30 17 1 17 18
M  V30 18 1 18 19
M  V30 19 2 19 20
M  V30 20 1 20 21
M  V30 21 2 21 22
M  V30 22 1 22 23
M  V30 23 2 23 24
M  V30 24 1 24 25
M  V30 25 2 25 26
M  V30 26 1 26 27
M  V30 27 1 26 28
M  V30 28 2 28 29
M  V30 29 1 22 30
M  V30 30 2 30 31
M  V30 31 2 13 32
M  V30 32 1 32 33
M  V30 33 1 32 8
M  V30 34 1 31 16
M  V30 35 1 31 19
M  V30 36 1 29 23
M  V30 37 1 1 34
M  V30 38 1 1 35
M  V30 39 1 1 36
M  V30 40 1 2 37
M  V30 41 1 2 38
M  V30 42 1 3 39
M  V30 43 1 3 40
M  V30 44 1 7 41
M  V30 45 1 9 42
M  V30 46 1 10 43
M  V30 47 1 18 44
M  V30 48 1 21 45
M  V30 49 1 24 46
M  V30 50 1 25 47
M  V30 51 1 28 48
M  V30 52 1 29 49
M  V30 53 1 30 50
M  V30 END BOND
M  V30 END CTAB
M  END
>  <Dataset>  (944) 
ChEMBL_Kinases

>  <Ligand_Instance>  (944) 
nan

>  <PDB_ID>  (944) 
nan

>  <Standardized_SMILES>  (944) 
CCCS(=O)(=O)Nc1ccc(F)c(C(=O)c2n[nH]c3ncc(-c4ccc(F)cc4)cc23)c1F

>  <Name>  (944) 
nan

>  <Pocket>  (944) 
nan

>  <ATP_Site>  (944) 
nan

>  <Peripheral>  (944) 
nan

>  <Num_H_Atoms_ProtBoundConf>  (944) 
nan

>  <Num_Resolved_Atoms>  (944) 
nan

>  <Num_Not_Resolved_Atoms>  (944) 
nan

$$$$
CHEMBL4776565
     RDKit          3D

  0  0  0  0  0  0  0  0  0  0999 V3000
M  V30 BEGIN CTAB
M  V30 COUNTS 58 60 0 0 0
M  V30 BEGIN ATOM
M  V30 1 C -4.441575 -1.875757 1.156660 0
M  V30 2 C -3.064663 -1.425884 0.889348 0
M  V30 3 C -2.836868 -0.066150 0.913447 0
M  V30 4 C -1.572242 0.415509 0.669107 0
M  V30 5 F -1.339031 1.743298 0.690023 0
M  V30 6 C -0.470815 -0.360712 0.392181 0
M  V30 7 C 0.903239 0.026943 0.119575 0
M  V30 8 O 1.816159 -0.835764 -0.125465 0
M  V30 9 N 1.437337 1.324649 0.078900 0
M  V30 10 C 2.815451 1.614144 -0.199838 0
M  V30 11 C 3.103380 3.101955 -0.178221 0
M  V30 12 C 2.801968 3.737355 1.146684 0
M  V30 13 C 3.105833 5.213530 1.100529 0
M  V30 14 C 4.575476 5.438927 0.775765 0
M  V30 15 C 2.880469 5.765523 2.493039 0
M  V30 16 C 2.207215 5.960690 0.159180 0
M  V30 17 C -0.721019 -1.740538 0.371794 0
M  V30 18 C -1.983703 -2.235764 0.615057 0
M  V30 19 C -2.209030 -3.675214 0.587457 0
M  V30 20 C -2.912119 -4.420711 1.508035 0
M  V30 21 C -3.053113 -5.795757 1.355154 0
M  V30 22 C -2.453621 -6.338266 0.245803 0
M  V30 23 C -2.597417 -7.702864 0.099804 0
M  V30 24 O -3.222471 -8.497402 0.881861 0
M  V30 25 N -2.055523 -8.378411 -0.954380 0
M  V30 26 C -2.173648 -9.808722 -1.159464 0
M  V30 27 N -1.369577 -7.678623 -1.859880 0
M  V30 28 C -1.192429 -6.349737 -1.777136 0
M  V30 29 C -1.736191 -5.656641 -0.715171 0
M  V30 30 C -1.631117 -4.296073 -0.508751 0
M  V30 31 H -4.703588 -1.914857 2.240386 0
M  V30 32 H -4.704026 -2.848198 0.664137 0
M  V30 33 H -5.204000 -1.162566 0.729342 0
M  V30 34 H -3.615149 0.650428 1.117935 0
M  V30 35 H 0.815376 2.124383 0.257758 0
M  V30 36 H 3.182554 1.231588 -1.172337 0
M  V30 37 H 3.414152 1.077748 0.564039 0
M  V30 38 H 4.152084 3.220474 -0.499574 0
M  V30 39 H 2.497065 3.638624 -0.934670 0
M  V30 40 H 3.536969 3.318533 1.889883 0
M  V30 41 H 1.760023 3.560622 1.403914 0
M  V30 42 H 4.827561 6.514812 0.932012 0
M  V30 43 H 4.723884 5.166401 -0.284307 0
M  V30 44 H 5.209462 4.884562 1.488631 0
M  V30 45 H 2.547502 4.970207 3.212821 0
M  V30 46 H 2.061613 6.513075 2.528718 0
M  V30 47 H 3.815969 6.184955 2.948162 0
M  V30 48 H 2.453701 5.780443 -0.907330 0
M  V30 49 H 1.158050 5.675413 0.386120 0
M  V30 50 H 2.289343 7.044951 0.379765 0
M  V30 51 H 0.077691 -2.468347 0.162164 0
M  V30 52 H -3.332418 -3.877652 2.334058 0
M  V30 53 H -3.603332 -6.370267 2.077773 0
M  V30 54 H -1.168695 -10.236303 -1.338429 0
M  V30 55 H -2.778490 -10.086938 -2.037371 0
M  V30 56 H -2.570333 -10.326548 -0.270358 0
M  V30 57 H -0.652707 -5.745021 -2.474691 0
M  V30 58 H -1.056007 -3.761907 -1.282384 0
M  V30 END ATOM
M  V30 BEGIN BOND
M  V30 1 1 1 2
M  V30 2 2 2 3
M  V30 3 1 3 4
M  V30 4 1 4 5
M  V30 5 2 4 6
M  V30 6 1 6 7
M  V30 7 2 7 8
M  V30 8 1 7 9
M  V30 9 1 9 10
M  V30 10 1 10 11
M  V30 11 1 11 12
M  V30 12 1 12 13
M  V30 13 1 13 14
M  V30 14 1 13 15
M  V30 15 1 13 16
M  V30 16 1 6 17
M  V30 17 2 17 18
M  V30 18 1 18 19
M  V30 19 2 19 20
M  V30 20 1 20 21
M  V30 21 2 21 22
M  V30 22 1 22 23
M  V30 23 2 23 24
M  V30 24 1 23 25
M  V30 25 1 25 26
M  V30 26 1 25 27
M  V30 27 2 27 28
M  V30 28 1 28 29
M  V30 29 2 29 30
M  V30 30 1 18 2
M  V30 31 1 30 19
M  V30 32 1 29 22
M  V30 33 1 1 31
M  V30 34 1 1 32
M  V30 35 1 1 33
M  V30 36 1 3 34
M  V30 37 1 9 35
M  V30 38 1 10 36
M  V30 39 1 10 37
M  V30 40 1 11 38
M  V30 41 1 11 39
M  V30 42 1 12 40
M  V30 43 1 12 41
M  V30 44 1 14 42
M  V30 45 1 14 43
M  V30 46 1 14 44
M  V30 47 1 15 45
M  V30 48 1 15 46
M  V30 49 1 15 47
M  V30 50 1 16 48
M  V30 51 1 16 49
M  V30 52 1 16 50
M  V30 53 1 17 51
M  V30 54 1 20 52
M  V30 55 1 21 53
M  V30 56 1 26 54
M  V30 57 1 26 55
M  V30 58 1 26 56
M  V30 59 1 28 57
M  V30 60 1 30 58
M  V30 END BOND
M  V30 END CTAB
M  END
>  <Dataset>  (945) 
ChEMBL_Kinases

>  <Ligand_Instance>  (945) 
nan

>  <PDB_ID>  (945) 
nan

>  <Standardized_SMILES>  (945) 
Cc1cc(F)c(C(=O)NCCCC(C)(C)C)cc1-c1ccc2c(=O)n(C)ncc2c1

>  <Name>  (945) 
nan

>  <Pocket>  (945) 
nan

>  <ATP_Site>  (945) 
nan

>  <Peripheral>  (945) 
nan

>  <Num_H_Atoms_ProtBoundConf>  (945) 
nan

>  <Num_Resolved_Atoms>  (945) 
nan

>  <Num_Not_Resolved_Atoms>  (945) 
nan

$$$$
CHEMBL4776650
     RDKit          3D

  0  0  0  0  0  0  0  0  0  0999 V3000
M  V30 BEGIN CTAB
M  V30 COUNTS 37 40 0 0 0
M  V30 BEGIN ATOM
M  V30 1 O 1.905956 -0.891681 2.941877 0
M  V30 2 C 0.674510 -0.599227 2.798966 0
M  V30 3 N 0.121657 -1.170775 1.624118 0
M  V30 4 C 0.850936 -1.974281 0.703018 0
M  V30 5 C 0.900280 -3.361130 0.884145 0
M  V30 6 C 1.620491 -4.085037 -0.038198 0
M  V30 7 C 2.246566 -3.419820 -1.076490 0
M  V30 8 C 2.976999 -4.136472 -2.015099 0
M  V30 9 N 3.599171 -3.510493 -3.040490 0
M  V30 10 C 3.507311 -2.156691 -3.153331 0
M  V30 11 C 2.806424 -1.371046 -2.270589 0
M  V30 12 C 2.178626 -2.054593 -1.226440 0
M  V30 13 N 1.465755 -1.342318 -0.312723 0
M  V30 14 C -0.093154 0.238168 3.751889 0
M  V30 15 C -1.539936 -0.026456 3.841436 0
M  V30 16 C -1.070778 1.276963 3.249582 0
M  V30 17 C -1.215285 1.592076 1.831758 0
M  V30 18 C -2.558223 1.848146 1.525371 0
M  V30 19 C -2.977675 2.195005 0.235267 0
M  V30 20 C -2.042941 2.290020 -0.774374 0
M  V30 21 C -0.722477 2.041138 -0.485303 0
M  V30 22 C -0.300137 1.699569 0.780074 0
M  V30 23 H -0.883217 -1.022053 1.390911 0
M  V30 24 H 0.394563 -3.806202 1.705967 0
M  V30 25 H 1.701576 -5.161798 0.039804 0
M  V30 26 H 3.058258 -5.216156 -1.936820 0
M  V30 27 H 4.017398 -1.708643 -3.982101 0
M  V30 28 H 2.749118 -0.311613 -2.380236 0
M  V30 29 H 0.444248 0.522877 4.703164 0
M  V30 30 H -2.056106 -0.087462 4.796840 0
M  V30 31 H -2.003100 -0.696385 3.063992 0
M  V30 32 H -1.352496 2.127404 3.940381 0
M  V30 33 H -3.417351 1.814810 2.211697 0
M  V30 34 H -3.981265 2.397660 -0.044244 0
M  V30 35 H -2.221560 2.544411 -1.801773 0
M  V30 36 H 0.114793 2.077770 -1.172595 0
M  V30 37 H 0.698716 1.487889 1.133519 0
M  V30 END ATOM
M  V30 BEGIN BOND
M  V30 1 2 1 2
M  V30 2 1 2 3
M  V30 3 1 3 4
M  V30 4 2 4 5
M  V30 5 1 5 6
M  V30 6 2 6 7
M  V30 7 1 7 8
M  V30 8 2 8 9
M  V30 9 1 9 10
M  V30 10 2 10 11
M  V30 11 1 11 12
M  V30 12 2 12 13
M  V30 13 1 2 14
M  V30 14 1 14 15
M  V30 15 1 15 16
M  V30 16 1 16 17
M  V30 17 2 17 18
M  V30 18 1 18 19
M  V30 19 2 19 20
M  V30 20 1 20 21
M  V30 21 2 21 22
M  V30 22 1 13 4
M  V30 23 1 16 14
M  V30 24 1 22 17
M  V30 25 1 12 7
M  V30 26 1 3 23
M  V30 27 1 5 24
M  V30 28 1 6 25
M  V30 29 1 8 26
M  V30 30 1 10 27
M  V30 31 1 11 28
M  V30 32 1 14 29
M  V30 33 1 15 30
M  V30 34 1 15 31
M  V30 35 1 16 32
M  V30 36 1 18 33
M  V30 37 1 19 34
M  V30 38 1 20 35
M  V30 39 1 21 36
M  V30 40 1 22 37
M  V30 END BOND
M  V30 END CTAB
M  END
>  <Dataset>  (946) 
ChEMBL_Kinases

>  <Ligand_Instance>  (946) 
nan

>  <PDB_ID>  (946) 
nan

>  <Standardized_SMILES>  (946) 
O=C(Nc1ccc2cnccc2n1)C1CC1c1ccccc1

>  <Name>  (946) 
nan

>  <Pocket>  (946) 
nan

>  <ATP_Site>  (946) 
nan

>  <Peripheral>  (946) 
nan

>  <Num_H_Atoms_ProtBoundConf>  (946) 
nan

>  <Num_Resolved_Atoms>  (946) 
nan

>  <Num_Not_Resolved_Atoms>  (946) 
nan

$$$$
CHEMBL4776761
     RDKit          3D

  0  0  0  0  0  0  0  0  0  0999 V3000
M  V30 BEGIN CTAB
M  V30 COUNTS 44 47 0 0 0
M  V30 BEGIN ATOM
M  V30 1 O 3.707885 -0.206188 1.103782 0
M  V30 2 C 2.723625 -0.950856 0.961438 0
M  V30 3 N 2.863694 -2.369910 0.931341 0
M  V30 4 C 4.044545 -3.159677 1.046529 0
M  V30 5 C 4.601369 -3.655970 2.209304 0
M  V30 6 C 5.756136 -4.406919 2.130032 0
M  V30 7 C 6.386425 -4.688137 0.935270 0
M  V30 8 Cl 7.853822 -5.647430 0.879493 0
M  V30 9 C 5.836985 -4.195925 -0.234430 0
M  V30 10 Cl 6.636365 -4.552176 -1.753246 0
M  V30 11 C 4.668932 -3.436461 -0.153144 0
M  V30 12 N 1.385532 -0.524500 0.815424 0
M  V30 13 C 1.094783 0.910663 0.828025 0
M  V30 14 C 0.092539 1.236130 1.898851 0
M  V30 15 C -0.901626 2.271630 1.373194 0
M  V30 16 N -1.679094 1.631919 0.344230 0
M  V30 17 C -3.071231 1.559341 0.097928 0
M  V30 18 N -3.462930 2.067465 -1.087758 0
M  V30 19 C -4.790923 2.029165 -1.388044 0
M  V30 20 N -5.700646 1.507124 -0.546515 0
M  V30 21 C -5.344044 0.991994 0.643897 0
M  V30 22 N -5.916661 0.411111 1.706490 0
M  V30 23 N -5.035514 0.091923 2.633597 0
M  V30 24 C -3.821442 0.458226 2.208363 0
M  V30 25 C -4.001550 1.022813 0.964142 0
M  V30 26 C -0.916452 0.904142 -0.662766 0
M  V30 27 C 0.560702 1.216889 -0.560388 0
M  V30 28 H 2.081803 -3.061946 0.814963 0
M  V30 29 H 4.072714 -3.409758 3.118905 0
M  V30 30 H 6.153767 -4.773647 3.070590 0
M  V30 31 H 4.322111 -3.098930 -1.131641 0
M  V30 32 H 0.558985 -1.138203 0.696279 0
M  V30 33 H 2.027100 1.471496 0.958252 0
M  V30 34 H 0.643738 1.762500 2.729443 0
M  V30 35 H -0.400994 0.372088 2.356876 0
M  V30 36 H -1.579189 2.576639 2.191334 0
M  V30 37 H -0.338582 3.154188 1.050697 0
M  V30 38 H -5.274508 2.397682 -2.305235 0
M  V30 39 H -6.964894 0.257330 1.730432 0
M  V30 40 H -2.894527 0.336108 2.732350 0
M  V30 41 H -1.112548 -0.187020 -0.650483 0
M  V30 42 H -1.254916 1.272640 -1.653355 0
M  V30 43 H 1.068445 0.603318 -1.336223 0
M  V30 44 H 0.718154 2.278310 -0.820634 0
M  V30 END ATOM
M  V30 BEGIN BOND
M  V30 1 2 1 2
M  V30 2 1 2 3
M  V30 3 1 3 4
M  V30 4 2 4 5
M  V30 5 1 5 6
M  V30 6 2 6 7
M  V30 7 1 7 8
M  V30 8 1 7 9
M  V30 9 1 9 10
M  V30 10 2 9 11
M  V30 11 1 2 12
M  V30 12 1 12 13
M  V30 13 1 13 14
M  V30 14 1 14 15
M  V30 15 1 15 16
M  V30 16 1 16 17
M  V30 17 2 17 18
M  V30 18 1 18 19
M  V30 19 2 19 20
M  V30 20 1 20 21
M  V30 21 1 21 22
M  V30 22 1 22 23
M  V30 23 2 23 24
M  V30 24 1 24 25
M  V30 25 1 16 26
M  V30 26 1 26 27
M  V30 27 1 11 4
M  V30 28 1 27 13
M  V30 29 1 25 17
M  V30 30 2 25 21
M  V30 31 1 3 28
M  V30 32 1 5 29
M  V30 33 1 6 30
M  V30 34 1 11 31
M  V30 35 1 12 32
M  V30 36 1 13 33
M  V30 37 1 14 34
M  V30 38 1 14 35
M  V30 39 1 15 36
M  V30 40 1 15 37
M  V30 41 1 19 38
M  V30 42 1 22 39
M  V30 43 1 24 40
M  V30 44 1 26 41
M  V30 45 1 26 42
M  V30 46 1 27 43
M  V30 47 1 27 44
M  V30 END BOND
M  V30 END CTAB
M  END
>  <Dataset>  (947) 
ChEMBL_Kinases

>  <Ligand_Instance>  (947) 
nan

>  <PDB_ID>  (947) 
nan

>  <Standardized_SMILES>  (947) 
O=C(Nc1ccc(Cl)c(Cl)c1)NC1CCN(c2ncnc3[nH]ncc23)CC1

>  <Name>  (947) 
nan

>  <Pocket>  (947) 
nan

>  <ATP_Site>  (947) 
nan

>  <Peripheral>  (947) 
nan

>  <Num_H_Atoms_ProtBoundConf>  (947) 
nan

>  <Num_Resolved_Atoms>  (947) 
nan

>  <Num_Not_Resolved_Atoms>  (947) 
nan

$$$$
CHEMBL4776770
     RDKit          3D

  0  0  0  0  0  0  0  0  0  0999 V3000
M  V30 BEGIN CTAB
M  V30 COUNTS 79 84 0 0 0
M  V30 BEGIN ATOM
M  V30 1 C 5.423947 -2.027539 4.514019 0
M  V30 2 C 4.505364 -1.685748 3.334654 0
M  V30 3 C 4.520412 -0.143970 3.249171 0 CFG=2
M  V30 4 C 4.024874 0.425664 4.513912 0
M  V30 5 N 4.646595 0.232051 5.695098 0
M  V30 6 N 3.943865 0.842076 6.630405 0
M  V30 7 C 2.847624 1.448907 6.090358 0
M  V30 8 C 1.855429 2.216102 6.870936 0
M  V30 9 N 2.946506 1.163866 4.794467 0
M  V30 10 C 2.162433 1.504540 3.683232 0
M  V30 11 C 1.027998 2.248780 3.889777 0
M  V30 12 N 0.280924 2.556277 2.799683 0
M  V30 13 C 0.664042 2.131713 1.564166 0
M  V30 14 N -0.221466 2.495363 0.489506 0
M  V30 15 C -0.979560 1.411987 -0.069426 0
M  V30 16 C -0.786604 0.108174 0.325313 0
M  V30 17 C -1.468968 -0.999167 -0.194201 0
M  V30 18 C -2.420399 -0.741656 -1.193693 0
M  V30 19 C -3.106282 -1.921632 -1.724723 0
M  V30 20 O -2.760824 -3.042848 -1.255944 0
M  V30 21 N -4.113619 -1.905299 -2.711756 0
M  V30 22 C -4.677738 -3.138777 -3.122904 0
M  V30 23 C -4.270300 -3.360710 -4.588424 0
M  V30 24 C -4.616278 -4.794696 -4.919325 0
M  V30 25 N -6.023975 -4.970211 -4.776334 0
M  V30 26 C -6.324455 -6.340681 -5.170458 0
M  V30 27 C -6.480596 -4.723816 -3.427662 0
M  V30 28 C -6.146976 -3.311364 -2.946857 0
M  V30 29 C -2.631081 0.558014 -1.603877 0
M  V30 30 C -1.933324 1.622730 -1.062731 0
M  V30 31 O -2.192658 2.916236 -1.518568 0
M  V30 32 C -3.165516 3.137681 -2.534116 0
M  V30 33 N 1.768865 1.415941 1.414444 0
M  V30 34 C 2.549105 1.075229 2.423241 0
M  V30 35 N 3.703683 0.294375 2.115957 0
M  V30 36 C 4.103825 -0.079369 0.835829 0
M  V30 37 C 5.472704 0.468689 0.505048 0
M  V30 38 C 5.094649 1.869608 -0.006852 0
M  V30 39 C 3.837620 1.604886 -0.827852 0
M  V30 40 C 3.344287 0.258320 -0.370314 0
M  V30 41 H 6.209251 -1.268288 4.677218 0
M  V30 42 H 5.959531 -2.990272 4.292035 0
M  V30 43 H 4.784333 -2.108135 5.399302 0
M  V30 44 H 3.503245 -2.092611 3.444431 0
M  V30 45 H 5.050252 -2.033159 2.430870 0
M  V30 46 H 5.586785 0.099661 3.147347 0
M  V30 47 H 1.821769 3.291707 6.651892 0
M  V30 48 H 0.867481 1.706979 6.907094 0
M  V30 49 H 2.198298 2.175169 7.953927 0
M  V30 50 H 0.631408 2.630607 4.791159 0
M  V30 51 H -0.367140 3.424248 0.089732 0
M  V30 52 H -0.059181 -0.072881 1.087946 0
M  V30 53 H -1.213541 -1.979962 0.212167 0
M  V30 54 H -4.419386 -0.996031 -3.113712 0
M  V30 55 H -4.207215 -4.026535 -2.601642 0
M  V30 56 H -4.761056 -2.617469 -5.230444 0
M  V30 57 H -3.183832 -3.253409 -4.646794 0
M  V30 58 H -4.326634 -4.942510 -5.985610 0
M  V30 59 H -3.992648 -5.450710 -4.279065 0
M  V30 60 H -5.667337 -6.651568 -6.004773 0
M  V30 61 H -6.092693 -6.960133 -4.263355 0
M  V30 62 H -7.358762 -6.500180 -5.473976 0
M  V30 63 H -7.518007 -5.009176 -3.270227 0
M  V30 64 H -5.850417 -5.396933 -2.778465 0
M  V30 65 H -6.371834 -3.348166 -1.860211 0
M  V30 66 H -6.755681 -2.537575 -3.460900 0
M  V30 67 H -3.379689 0.717457 -2.381521 0
M  V30 68 H -3.052216 2.459423 -3.388344 0
M  V30 69 H -4.208462 3.052129 -2.109670 0
M  V30 70 H -2.981083 4.174031 -2.899892 0
M  V30 71 H 4.230223 -1.206437 0.836731 0
M  V30 72 H 6.143808 0.635431 1.332442 0
M  V30 73 H 5.940129 -0.117060 -0.310320 0
M  V30 74 H 5.943002 2.223430 -0.590993 0
M  V30 75 H 4.873812 2.518493 0.877672 0
M  V30 76 H 4.214871 1.597905 -1.895021 0
M  V30 77 H 3.110209 2.413350 -0.802657 0
M  V30 78 H 2.277082 0.090442 -0.413386 0
M  V30 79 H 3.737650 -0.447269 -1.180385 0
M  V30 END ATOM
M  V30 BEGIN BOND
M  V30 1 1 1 2
M  V30 2 1 2 3
M  V30 3 1 3 4
M  V30 4 2 4 5
M  V30 5 1 5 6
M  V30 6 2 6 7
M  V30 7 1 7 8
M  V30 8 1 7 9
M  V30 9 1 9 10
M  V30 10 2 10 11
M  V30 11 1 11 12
M  V30 12 2 12 13
M  V30 13 1 13 14
M  V30 14 1 14 15
M  V30 15 2 15 16
M  V30 16 1 16 17
M  V30 17 2 17 18
M  V30 18 1 18 19
M  V30 19 2 19 20
M  V30 20 1 19 21
M  V30 21 1 21 22
M  V30 22 1 22 23
M  V30 23 1 23 24
M  V30 24 1 24 25
M  V30 25 1 25 26
M  V30 26 1 25 27
M  V30 27 1 27 28
M  V30 28 1 18 29
M  V30 29 2 29 30
M  V30 30 1 30 31
M  V30 31 1 31 32
M  V30 32 1 13 33
M  V30 33 2 33 34
M  V30 34 1 34 35
M  V30 35 1 35 36
M  V30 36 1 36 37
M  V30 37 1 37 38
M  V30 38 1 38 39
M  V30 39 1 39 40
M  V30 40 1 35 3
M  V30 41 1 40 36
M  V30 42 1 9 4
M  V30 43 1 34 10
M  V30 44 1 30 15
M  V30 45 1 28 22
M  V30 46 1 1 41
M  V30 47 1 1 42
M  V30 48 1 1 43
M  V30 49 1 2 44
M  V30 50 1 2 45
M  V30 51 1 3 46 CFG=3
M  V30 52 1 8 47
M  V30 53 1 8 48
M  V30 54 1 8 49
M  V30 55 1 11 50
M  V30 56 1 14 51
M  V30 57 1 16 52
M  V30 58 1 17 53
M  V30 59 1 21 54
M  V30 60 1 22 55
M  V30 61 1 23 56
M  V30 62 1 23 57
M  V30 63 1 24 58
M  V30 64 1 24 59
M  V30 65 1 26 60
M  V30 66 1 26 61
M  V30 67 1 26 62
M  V30 68 1 27 63
M  V30 69 1 27 64
M  V30 70 1 28 65
M  V30 71 1 28 66
M  V30 72 1 29 67
M  V30 73 1 32 68
M  V30 74 1 32 69
M  V30 75 1 32 70
M  V30 76 1 36 71
M  V30 77 1 37 72
M  V30 78 1 37 73
M  V30 79 1 38 74
M  V30 80 1 38 75
M  V30 81 1 39 76
M  V30 82 1 39 77
M  V30 83 1 40 78
M  V30 84 1 40 79
M  V30 END BOND
M  V30 END CTAB
M  END
>  <Dataset>  (948) 
ChEMBL_Kinases

>  <Ligand_Instance>  (948) 
nan

>  <PDB_ID>  (948) 
nan

>  <Standardized_SMILES>  (948) 
CC[C@@H]1c2nnc(C)n2-c2cnc(Nc3ccc(C(=O)NC4CCN(C)CC4)cc3OC)nc2N1C1CCCC1

>  <Name>  (948) 
nan

>  <Pocket>  (948) 
nan

>  <ATP_Site>  (948) 
nan

>  <Peripheral>  (948) 
nan

>  <Num_H_Atoms_ProtBoundConf>  (948) 
nan

>  <Num_Resolved_Atoms>  (948) 
nan

>  <Num_Not_Resolved_Atoms>  (948) 
nan

$$$$
CHEMBL4776787
     RDKit          3D

  0  0  0  0  0  0  0  0  0  0999 V3000
M  V30 BEGIN CTAB
M  V30 COUNTS 35 37 0 0 0
M  V30 BEGIN ATOM
M  V30 1 C 0.356186 -6.283271 2.817213 0
M  V30 2 C 0.088952 -5.108245 2.839363 0
M  V30 3 C -0.223045 -3.707846 2.871190 0
M  V30 4 N 0.487552 -2.784534 2.213269 0
M  V30 5 C 0.176229 -1.465652 2.256937 0
M  V30 6 N 0.998696 -0.568307 1.519869 0
M  V30 7 C 0.710056 -0.226487 0.167061 0
M  V30 8 C -0.395973 -0.769651 -0.454522 0
M  V30 9 C -0.673750 -0.435246 -1.770147 0
M  V30 10 C 0.181770 0.445881 -2.424711 0
M  V30 11 C 1.293170 0.988243 -1.791753 0
M  V30 12 C 2.213697 1.941033 -2.507071 0
M  V30 13 C 1.761975 3.339660 -2.312573 0
M  V30 14 C 1.471904 4.793700 -2.234544 0
M  V30 15 O 0.908950 2.717451 -1.669748 0
M  V30 16 C 1.558502 0.647329 -0.482041 0
M  V30 17 N -0.889516 -1.102333 2.995612 0
M  V30 18 C -1.639511 -1.988575 3.677439 0
M  V30 19 N -2.738245 -1.832970 4.470004 0
M  V30 20 C -3.076450 -3.063290 4.895346 0
M  V30 21 N -2.235328 -3.986232 4.402695 0
M  V30 22 C -1.316265 -3.339943 3.629549 0
M  V30 23 H 0.606707 -7.324414 2.807529 0
M  V30 24 H 1.816456 -0.178805 2.020336 0
M  V30 25 H -1.066074 -1.463909 0.068631 0
M  V30 26 H -1.548698 -0.860947 -2.271575 0
M  V30 27 H -0.036925 0.705418 -3.451858 0
M  V30 28 H 2.208181 1.638090 -3.569605 0
M  V30 29 H 3.261635 1.793602 -2.135815 0
M  V30 30 H 0.451104 4.964579 -2.581531 0
M  V30 31 H 2.139427 5.388994 -2.922499 0
M  V30 32 H 1.704870 5.190713 -1.224003 0
M  V30 33 H 2.440984 1.092724 -0.016218 0
M  V30 34 H -3.155849 -0.886894 4.645399 0
M  V30 35 H -3.947210 -3.141320 5.552062 0
M  V30 END ATOM
M  V30 BEGIN BOND
M  V30 1 3 1 2
M  V30 2 1 2 3
M  V30 3 2 3 4
M  V30 4 1 4 5
M  V30 5 1 5 6
M  V30 6 1 6 7
M  V30 7 2 7 8
M  V30 8 1 8 9
M  V30 9 2 9 10
M  V30 10 1 10 11
M  V30 11 1 11 12
M  V30 12 1 12 13
M  V30 13 1 13 14
M  V30 14 2 13 15
M  V30 15 2 11 16
M  V30 16 2 5 17
M  V30 17 1 17 18
M  V30 18 1 18 19
M  V30 19 1 19 20
M  V30 20 2 20 21
M  V30 21 1 21 22
M  V30 22 1 22 3
M  V30 23 1 16 7
M  V30 24 2 22 18
M  V30 25 1 1 23
M  V30 26 1 6 24
M  V30 27 1 8 25
M  V30 28 1 9 26
M  V30 29 1 10 27
M  V30 30 1 12 28
M  V30 31 1 12 29
M  V30 32 1 14 30
M  V30 33 1 14 31
M  V30 34 1 14 32
M  V30 35 1 16 33
M  V30 36 1 19 34
M  V30 37 1 20 35
M  V30 END BOND
M  V30 END CTAB
M  END
>  <Dataset>  (949) 
ChEMBL_Kinases

>  <Ligand_Instance>  (949) 
nan

>  <PDB_ID>  (949) 
nan

>  <Standardized_SMILES>  (949) 
C#Cc1nc(Nc2cccc(CC(C)=O)c2)nc2[nH]cnc12

>  <Name>  (949) 
nan

>  <Pocket>  (949) 
nan

>  <ATP_Site>  (949) 
nan

>  <Peripheral>  (949) 
nan

>  <Num_H_Atoms_ProtBoundConf>  (949) 
nan

>  <Num_Resolved_Atoms>  (949) 
nan

>  <Num_Not_Resolved_Atoms>  (949) 
nan

$$$$
CHEMBL4776811
     RDKit          3D

  0  0  0  0  0  0  0  0  0  0999 V3000
M  V30 BEGIN CTAB
M  V30 COUNTS 70 74 0 0 0
M  V30 BEGIN ATOM
M  V30 1 N 3.355767 -3.823386 4.965935 0
M  V30 2 C 2.176125 -3.860645 4.196722 0
M  V30 3 O 1.500712 -4.745671 4.776876 0
M  V30 4 C 2.015613 -2.997680 3.066982 0
M  V30 5 S 3.367068 -1.808231 2.581183 0
M  V30 6 C 2.393587 -1.166358 1.163566 0
M  V30 7 C 3.039972 -0.131647 0.366130 0
M  V30 8 C 4.257012 0.425070 0.680345 0
M  V30 9 C 4.777624 1.391558 -0.173305 0
M  V30 10 N 4.150866 1.809928 -1.291316 0
M  V30 11 C 2.972253 1.294813 -1.628923 0
M  V30 12 N 2.222388 1.662741 -2.778145 0
M  V30 13 C 2.627108 2.653408 -3.711032 0
M  V30 14 O 3.720516 3.260479 -3.525030 0
M  V30 15 C 1.799236 2.985883 -4.888012 0
M  V30 16 C 1.146444 1.796686 -5.586136 0
M  V30 17 C 0.299797 2.741242 -4.856690 0
M  V30 18 C 2.473096 0.347752 -0.784144 0
M  V30 19 N 1.351822 -1.785828 1.189680 0
M  V30 20 C 1.046134 -2.709641 2.070580 0
M  V30 21 O 0.022043 -3.435963 2.221333 0
M  V30 22 C -1.016952 -4.171891 2.373212 0
M  V30 23 C -2.384788 -3.723023 2.739331 0
M  V30 24 C -3.112575 -2.743693 1.947212 0
M  V30 25 C -3.350549 -2.921319 0.502596 0
M  V30 26 C -2.187416 -2.884264 -0.416907 0
M  V30 27 C -1.815998 -1.411404 -0.742346 0
M  V30 28 N -2.862081 -0.586877 -0.301416 0
M  V30 29 C -2.665181 0.778622 -0.043712 0
M  V30 30 C -1.699806 1.110232 1.018833 0
M  V30 31 C -0.359510 1.397448 0.868333 0
M  V30 32 C 0.428764 1.680732 1.965765 0
M  V30 33 C -0.107106 1.681407 3.219478 0
M  V30 34 C -1.452774 1.397863 3.412785 0
M  V30 35 F -1.958303 1.406771 4.665679 0
M  V30 36 C -2.231938 1.115944 2.310019 0
M  V30 37 C -4.187907 -0.922741 -0.770705 0
M  V30 38 C -4.529859 -2.227930 -0.087267 0
M  V30 39 H 3.179716 -2.964495 5.571076 0
M  V30 40 H 3.346319 -3.003877 5.640932 0
M  V30 41 H 4.795705 0.121043 1.563600 0
M  V30 42 H 5.751151 1.800191 0.127390 0
M  V30 43 H 1.312118 1.202759 -2.988164 0
M  V30 44 H 2.180922 3.787991 -5.557778 0
M  V30 45 H 1.324007 0.797870 -5.131606 0
M  V30 46 H 1.146193 1.838805 -6.703647 0
M  V30 47 H -0.334389 3.411698 -5.482796 0
M  V30 48 H -0.165742 2.501188 -3.879934 0
M  V30 49 H 1.505809 -0.106318 -1.042772 0
M  V30 50 H -0.718144 -4.969032 3.229242 0
M  V30 51 H -1.198844 -4.963879 1.529361 0
M  V30 52 H -2.267075 -3.273796 3.805058 0
M  V30 53 H -3.034802 -4.634978 2.999043 0
M  V30 54 H -4.160416 -2.619106 2.409113 0
M  V30 55 H -2.659351 -1.730753 2.183503 0
M  V30 56 H -3.679789 -4.054336 0.442953 0
M  V30 57 H -1.308304 -3.458737 -0.177370 0
M  V30 58 H -2.557355 -3.296412 -1.403343 0
M  V30 59 H -0.886185 -1.114658 -0.261315 0
M  V30 60 H -1.653139 -1.285483 -1.842072 0
M  V30 61 H -2.415283 1.321984 -0.999889 0
M  V30 62 H -3.677417 1.214502 0.219444 0
M  V30 63 H -0.138969 1.355255 -0.196728 0
M  V30 64 H 1.440189 1.883115 1.701383 0
M  V30 65 H 0.560645 1.909327 4.029089 0
M  V30 66 H -3.271694 0.902999 2.527928 0
M  V30 67 H -4.863083 -0.150792 -0.319939 0
M  V30 68 H -4.248756 -0.942567 -1.859134 0
M  V30 69 H -5.312820 -2.112307 0.687260 0
M  V30 70 H -4.930654 -2.881912 -0.918871 0
M  V30 END ATOM
M  V30 BEGIN BOND
M  V30 1 1 1 2
M  V30 2 2 2 3
M  V30 3 1 2 4
M  V30 4 1 4 5
M  V30 5 1 5 6
M  V30 6 1 6 7
M  V30 7 2 7 8
M  V30 8 1 8 9
M  V30 9 2 9 10
M  V30 10 1 10 11
M  V30 11 1 11 12
M  V30 12 1 12 13
M  V30 13 2 13 14
M  V30 14 1 13 15
M  V30 15 1 15 16
M  V30 16 1 16 17
M  V30 17 2 11 18
M  V30 18 2 6 19
M  V30 19 1 19 20
M  V30 20 1 20 21
M  V30 21 1 21 22
M  V30 22 1 22 23
M  V30 23 1 23 24
M  V30 24 1 24 25
M  V30 25 1 25 26
M  V30 26 1 26 27
M  V30 27 1 27 28
M  V30 28 1 28 29
M  V30 29 1 29 30
M  V30 30 2 30 31
M  V30 31 1 31 32
M  V30 32 2 32 33
M  V30 33 1 33 34
M  V30 34 1 34 35
M  V30 35 2 34 36
M  V30 36 1 28 37
M  V30 37 1 37 38
M  V30 38 2 20 4
M  V30 39 1 38 25
M  V30 40 1 18 7
M  V30 41 1 36 30
M  V30 42 1 17 15
M  V30 43 1 1 39
M  V30 44 1 1 40
M  V30 45 1 8 41
M  V30 46 1 9 42
M  V30 47 1 12 43
M  V30 48 1 15 44
M  V30 49 1 16 45
M  V30 50 1 16 46
M  V30 51 1 17 47
M  V30 52 1 17 48
M  V30 53 1 18 49
M  V30 54 1 22 50
M  V30 55 1 22 51
M  V30 56 1 23 52
M  V30 57 1 23 53
M  V30 58 1 24 54
M  V30 59 1 24 55
M  V30 60 1 25 56
M  V30 61 1 26 57
M  V30 62 1 26 58
M  V30 63 1 27 59
M  V30 64 1 27 60
M  V30 65 1 29 61
M  V30 66 1 29 62
M  V30 67 1 31 63
M  V30 68 1 32 64
M  V30 69 1 33 65
M  V30 70 1 36 66
M  V30 71 1 37 67
M  V30 72 1 37 68
M  V30 73 1 38 69
M  V30 74 1 38 70
M  V30 END BOND
M  V30 END CTAB
M  END
>  <Dataset>  (950) 
ChEMBL_Kinases

>  <Ligand_Instance>  (950) 
nan

>  <PDB_ID>  (950) 
nan

>  <Standardized_SMILES>  (950) 
NC(=O)c1sc(-c2ccnc(NC(=O)C3CC3)c2)nc1OCCCC1CCN(Cc2cccc(F)c2)CC1

>  <Name>  (950) 
nan

>  <Pocket>  (950) 
nan

>  <ATP_Site>  (950) 
nan

>  <Peripheral>  (950) 
nan

>  <Num_H_Atoms_ProtBoundConf>  (950) 
nan

>  <Num_Resolved_Atoms>  (950) 
nan

>  <Num_Not_Resolved_Atoms>  (950) 
nan

$$$$
CHEMBL4776489
     RDKit          3D

  0  0  0  0  0  0  0  0  0  0999 V3000
M  V30 BEGIN CTAB
M  V30 COUNTS 32 33 0 0 0
M  V30 BEGIN ATOM
M  V30 1 C -2.199815 -3.404307 5.701508 0
M  V30 2 O -1.075961 -2.532742 5.501574 0
M  V30 3 C -0.676714 -2.200540 4.212902 0
M  V30 4 C 0.426554 -1.348288 4.197514 0
M  V30 5 C 0.958335 -0.915388 2.997691 0
M  V30 6 C 0.356366 -1.358556 1.828266 0
M  V30 7 N 0.811542 -0.982649 0.510504 0
M  V30 8 C 0.169751 0.188747 0.065268 0
M  V30 9 O -0.663351 0.660899 0.906598 0
M  V30 10 C 0.411355 0.843232 -1.250078 0 CFG=2
M  V30 11 S -0.141171 -0.172817 -2.641792 0
M  V30 12 C 0.387054 0.672539 -4.164794 0
M  V30 13 C 1.173940 1.913496 -3.761829 0
M  V30 14 N 2.202839 1.520395 -2.790948 0
M  V30 15 C 1.832915 1.265107 -1.420504 0
M  V30 16 O 2.753731 1.433913 -0.578895 0
M  V30 17 C -0.739090 -2.204269 1.816288 0
M  V30 18 C -1.253435 -2.623989 3.031391 0
M  V30 19 H -3.042551 -3.064250 5.030453 0
M  V30 20 H -2.592922 -3.329164 6.714846 0
M  V30 21 H -1.959154 -4.432016 5.362994 0
M  V30 22 H 0.933932 -0.972586 5.066104 0
M  V30 23 H 1.817329 -0.250496 2.914609 0
M  V30 24 H 1.515911 -1.434555 -0.129453 0
M  V30 25 H -0.179004 1.782435 -1.265125 0
M  V30 26 H 0.995739 -0.032858 -4.739858 0
M  V30 27 H -0.509046 1.036078 -4.740340 0
M  V30 28 H 1.670299 2.389112 -4.625366 0
M  V30 29 H 0.430619 2.615783 -3.301251 0
M  V30 30 H 3.200693 1.431577 -3.117106 0
M  V30 31 H -1.212044 -2.552889 0.920663 0
M  V30 32 H -2.106761 -3.285251 3.155540 0
M  V30 END ATOM
M  V30 BEGIN BOND
M  V30 1 1 1 2
M  V30 2 1 2 3
M  V30 3 2 3 4
M  V30 4 1 4 5
M  V30 5 2 5 6
M  V30 6 1 6 7
M  V30 7 1 7 8
M  V30 8 2 8 9
M  V30 9 1 8 10
M  V30 10 1 10 11
M  V30 11 1 11 12
M  V30 12 1 12 13
M  V30 13 1 13 14
M  V30 14 1 14 15
M  V30 15 2 15 16
M  V30 16 1 6 17
M  V30 17 2 17 18
M  V30 18 1 18 3
M  V30 19 1 15 10
M  V30 20 1 1 19
M  V30 21 1 1 20
M  V30 22 1 1 21
M  V30 23 1 4 22
M  V30 24 1 5 23
M  V30 25 1 7 24
M  V30 26 1 10 25 CFG=1
M  V30 27 1 12 26
M  V30 28 1 12 27
M  V30 29 1 13 28
M  V30 30 1 13 29
M  V30 31 1 14 30
M  V30 32 1 17 31
M  V30 33 1 18 32
M  V30 END BOND
M  V30 END CTAB
M  END
>  <Dataset>  (951) 
ChEMBL_Kinases

>  <Ligand_Instance>  (951) 
nan

>  <PDB_ID>  (951) 
nan

>  <Standardized_SMILES>  (951) 
COc1ccc(NC(=O)[C@@H]2SCCNC2=O)cc1

>  <Name>  (951) 
nan

>  <Pocket>  (951) 
nan

>  <ATP_Site>  (951) 
nan

>  <Peripheral>  (951) 
nan

>  <Num_H_Atoms_ProtBoundConf>  (951) 
nan

>  <Num_Resolved_Atoms>  (951) 
nan

>  <Num_Not_Resolved_Atoms>  (951) 
nan

$$$$
CHEMBL4225841
     RDKit          3D

  0  0  0  0  0  0  0  0  0  0999 V3000
M  V30 BEGIN CTAB
M  V30 COUNTS 78 84 0 0 0
M  V30 BEGIN ATOM
M  V30 1 O -3.017074 -3.178196 -1.114314 0
M  V30 2 C -2.102068 -3.380902 -0.252090 0
M  V30 3 N -0.756634 -3.094783 -0.545163 0
M  V30 4 C -0.492334 -2.577291 -1.838480 0
M  V30 5 C -0.237246 -3.577134 -2.770526 0
M  V30 6 C 0.040634 -3.275966 -4.078035 0
M  V30 7 C 0.070606 -1.959063 -4.489264 0
M  V30 8 N 0.296225 -1.286775 -5.635984 0
M  V30 9 N 0.188199 0.009148 -5.421912 0
M  V30 10 C -0.115103 0.266163 -4.121036 0
M  V30 11 C -0.300239 1.595232 -3.566088 0
M  V30 12 C 0.508196 2.692070 -3.778452 0
M  V30 13 C 0.230749 3.903067 -3.200586 0
M  V30 14 C -0.854451 4.087326 -2.388332 0
M  V30 15 F -1.108674 5.298952 -1.825664 0
M  V30 16 C -1.682490 2.987538 -2.163229 0
M  V30 17 C -1.399861 1.764871 -2.748573 0
M  V30 18 C -0.187275 -0.981386 -3.539589 0
M  V30 19 C -0.469828 -1.253111 -2.216899 0
M  V30 20 C -2.523463 -3.927131 1.059206 0 CFG=2
M  V30 21 C -4.043243 -4.101904 0.996750 0
M  V30 22 C -4.501351 -3.753763 2.377365 0
M  V30 23 N -3.651801 -2.629030 2.730820 0
M  V30 24 C -4.056644 -1.421127 2.032144 0
M  V30 25 C -3.287104 -0.228203 2.452775 0
M  V30 26 O -3.748905 0.724877 1.720303 0
M  V30 27 N -2.237743 0.005458 3.428560 0
M  V30 28 C -1.492183 -0.783274 4.425347 0
M  V30 29 C -0.059646 -0.939411 4.017290 0
M  V30 30 N 0.416975 0.302401 3.421667 0
M  V30 31 C 1.536331 0.310694 2.544824 0
M  V30 32 C 2.029146 1.401187 1.860964 0
M  V30 33 C 3.122720 1.364915 1.022393 0
M  V30 34 C 3.788776 0.171700 0.835258 0
M  V30 35 C 4.950488 0.094002 -0.045239 0
M  V30 36 N 5.573751 -1.086069 -0.206535 0
M  V30 37 C 6.658857 -1.225354 -1.010493 0
M  V30 38 C 7.041603 -0.053186 -1.627602 0
M  V30 39 C 6.447620 1.186617 -1.505299 0
M  V30 40 N 5.367432 1.207320 -0.672838 0
M  V30 41 C 3.330979 -0.954886 1.501867 0
M  V30 42 C 2.224225 -0.866431 2.336299 0
M  V30 43 C -0.327392 1.487534 3.799011 0
M  V30 44 C -1.780977 1.407728 3.426188 0
M  V30 45 C -2.344836 -2.997765 2.209014 0
M  V30 46 H -0.066685 -3.292808 0.229311 0
M  V30 47 H -0.234876 -4.641252 -2.561222 0
M  V30 48 H 0.245353 -4.040284 -4.833899 0
M  V30 49 H 0.513788 -1.829991 -6.495481 0
M  V30 50 H 1.369978 2.536768 -4.425934 0
M  V30 51 H 0.880221 4.755510 -3.381183 0
M  V30 52 H -2.524972 3.204833 -1.509120 0
M  V30 53 H -2.146215 1.036104 -2.463883 0
M  V30 54 H -0.674012 -0.553402 -1.446932 0
M  V30 55 H -2.026880 -4.893773 1.288459 0
M  V30 56 H -4.281339 -5.151883 0.711589 0
M  V30 57 H -4.513817 -3.396029 0.282278 0
M  V30 58 H -5.570939 -3.495471 2.411197 0
M  V30 59 H -4.253630 -4.569620 3.101977 0
M  V30 60 H -3.883947 -1.573647 0.941126 0
M  V30 61 H -5.143355 -1.228764 2.155132 0
M  V30 62 H -2.006642 -1.694280 4.728181 0
M  V30 63 H -1.486478 -0.140789 5.356678 0
M  V30 64 H 0.049428 -1.802731 3.317677 0
M  V30 65 H 0.545968 -1.092246 4.933147 0
M  V30 66 H 1.525844 2.346101 1.989876 0
M  V30 67 H 3.461339 2.255195 0.514388 0
M  V30 68 H 7.198833 -2.131793 -1.181588 0
M  V30 69 H 7.913955 -0.093466 -2.293962 0
M  V30 70 H 6.837279 2.039282 -2.040276 0
M  V30 71 H 3.890821 -1.858510 1.316706 0
M  V30 72 H 1.995500 -1.820026 2.779018 0
M  V30 73 H 0.131066 2.413025 3.437603 0
M  V30 74 H -0.287478 1.513420 4.926240 0
M  V30 75 H -1.954267 1.915443 2.478788 0
M  V30 76 H -2.424018 1.885741 4.205214 0
M  V30 77 H -1.742088 -3.406825 3.038311 0
M  V30 78 H -1.847822 -2.080961 1.876678 0
M  V30 END ATOM
M  V30 BEGIN BOND
M  V30 1 2 1 2
M  V30 2 1 2 3
M  V30 3 1 3 4
M  V30 4 2 4 5
M  V30 5 1 5 6
M  V30 6 2 6 7
M  V30 7 1 7 8
M  V30 8 1 8 9
M  V30 9 2 9 10
M  V30 10 1 10 11
M  V30 11 2 11 12
M  V30 12 1 12 13
M  V30 13 2 13 14
M  V30 14 1 14 15
M  V30 15 1 14 16
M  V30 16 2 16 17
M  V30 17 1 10 18
M  V30 18 2 18 19
M  V30 19 1 2 20
M  V30 20 1 20 21
M  V30 21 1 21 22
M  V30 22 1 22 23
M  V30 23 1 23 24
M  V30 24 1 24 25
M  V30 25 2 25 26
M  V30 26 1 25 27
M  V30 27 1 27 28
M  V30 28 1 28 29
M  V30 29 1 29 30
M  V30 30 1 30 31
M  V30 31 2 31 32
M  V30 32 1 32 33
M  V30 33 2 33 34
M  V30 34 1 34 35
M  V30 35 2 35 36
M  V30 36 1 36 37
M  V30 37 2 37 38
M  V30 38 1 38 39
M  V30 39 2 39 40
M  V30 40 1 34 41
M  V30 41 2 41 42
M  V30 42 1 30 43
M  V30 43 1 43 44
M  V30 44 1 23 45
M  V30 45 1 19 4
M  V30 46 1 45 20
M  V30 47 1 18 7
M  V30 48 1 44 27
M  V30 49 1 17 11
M  V30 50 1 42 31
M  V30 51 1 40 35
M  V30 52 1 3 46
M  V30 53 1 5 47
M  V30 54 1 6 48
M  V30 55 1 8 49
M  V30 56 1 12 50
M  V30 57 1 13 51
M  V30 58 1 16 52
M  V30 59 1 17 53
M  V30 60 1 19 54
M  V30 61 1 20 55 CFG=1
M  V30 62 1 21 56
M  V30 63 1 21 57
M  V30 64 1 22 58
M  V30 65 1 22 59
M  V30 66 1 24 60
M  V30 67 1 24 61
M  V30 68 1 28 62
M  V30 69 1 28 63
M  V30 70 1 29 64
M  V30 71 1 29 65
M  V30 72 1 32 66
M  V30 73 1 33 67
M  V30 74 1 37 68
M  V30 75 1 38 69
M  V30 76 1 39 70
M  V30 77 1 41 71
M  V30 78 1 42 72
M  V30 79 1 43 73
M  V30 80 1 43 74
M  V30 81 1 44 75
M  V30 82 1 44 76
M  V30 83 1 45 77
M  V30 84 1 45 78
M  V30 END BOND
M  V30 END CTAB
M  END
>  <Dataset>  (952) 
ChEMBL_Kinases

>  <Ligand_Instance>  (952) 
nan

>  <PDB_ID>  (952) 
nan

>  <Standardized_SMILES>  (952) 
O=C(Nc1ccc2[nH]nc(-c3ccc(F)cc3)c2c1)[C@@H]1CCN(CC(=O)N2CCN(c3ccc(-c4ncccn4)cc3)CC2)C1

>  <Name>  (952) 
nan

>  <Pocket>  (952) 
nan

>  <ATP_Site>  (952) 
nan

>  <Peripheral>  (952) 
nan

>  <Num_H_Atoms_ProtBoundConf>  (952) 
nan

>  <Num_Resolved_Atoms>  (952) 
nan

>  <Num_Not_Resolved_Atoms>  (952) 
nan

$$$$
CHEMBL4225809
     RDKit          3D

  0  0  0  0  0  0  0  0  0  0999 V3000
M  V30 BEGIN CTAB
M  V30 COUNTS 49 53 0 0 0
M  V30 BEGIN ATOM
M  V30 1 C -0.158235 -1.451049 4.960514 0
M  V30 2 C 0.936576 -1.332146 3.958343 0
M  V30 3 C 1.905462 -2.289839 3.709910 0
M  V30 4 C 2.881898 -2.110033 2.770003 0
M  V30 5 C 2.899739 -0.943814 2.052633 0
M  V30 6 C 1.948928 0.034090 2.273573 0
M  V30 7 C 1.984767 1.285059 1.488261 0
M  V30 8 N 2.166754 2.542914 1.955756 0
M  V30 9 C 2.133030 3.407702 0.924355 0
M  V30 10 C 2.261627 4.793591 0.823755 0
M  V30 11 C 2.171203 5.366608 -0.442455 0
M  V30 12 C 1.959805 4.611318 -1.591904 0
M  V30 13 N 1.847083 3.284522 -1.406688 0
M  V30 14 N 1.929803 2.720691 -0.215031 0
M  V30 15 C 1.835289 1.415830 0.102051 0
M  V30 16 C 1.617664 0.212143 -0.731829 0
M  V30 17 C 2.451285 -0.190714 -1.760435 0
M  V30 18 C 2.120095 -1.338245 -2.448777 0
M  V30 19 N 1.008998 -2.056469 -2.130802 0
M  V30 20 C 0.198494 -1.661286 -1.127830 0
M  V30 21 N -0.983007 -2.323847 -0.699795 0
M  V30 22 C -2.311904 -2.176444 -1.110564 0
M  V30 23 O -2.475377 -1.320035 -1.999861 0
M  V30 24 C -3.408196 -2.942701 -0.560665 0
M  V30 25 C -4.685050 -2.730785 -1.034436 0
M  V30 26 C -5.750570 -3.446767 -0.528073 0
M  V30 27 C -5.564339 -4.391348 0.463866 0
M  V30 28 C -4.288028 -4.604111 0.938368 0
M  V30 29 C -3.203749 -3.881069 0.428657 0
M  V30 30 N 0.520569 -0.542626 -0.456278 0
M  V30 31 C 0.956640 -0.158277 3.234561 0
M  V30 32 H -1.103508 -1.015546 4.552930 0
M  V30 33 H -0.365099 -2.539144 5.152775 0
M  V30 34 H 0.092550 -1.011050 5.942497 0
M  V30 35 H 1.842000 -3.197619 4.310379 0
M  V30 36 H 3.622067 -2.862176 2.592833 0
M  V30 37 H 3.678223 -0.785524 1.294344 0
M  V30 38 H 2.424334 5.399351 1.686121 0
M  V30 39 H 2.267423 6.450333 -0.558900 0
M  V30 40 H 1.884536 5.011179 -2.577809 0
M  V30 41 H 3.315449 0.430564 -1.955336 0
M  V30 42 H 2.762757 -1.660832 -3.251149 0
M  V30 43 H -0.709965 -3.007159 0.038145 0
M  V30 44 H -4.838147 -1.994155 -1.809655 0
M  V30 45 H -6.755743 -3.305358 -0.875455 0
M  V30 46 H -6.337751 -5.002943 0.924959 0
M  V30 47 H -4.098926 -5.346983 1.726901 0
M  V30 48 H -2.226635 -4.091933 0.840844 0
M  V30 49 H 0.232081 0.638680 3.371994 0
M  V30 END ATOM
M  V30 BEGIN BOND
M  V30 1 1 1 2
M  V30 2 2 2 3
M  V30 3 1 3 4
M  V30 4 2 4 5
M  V30 5 1 5 6
M  V30 6 1 6 7
M  V30 7 1 7 8
M  V30 8 2 8 9
M  V30 9 1 9 10
M  V30 10 2 10 11
M  V30 11 1 11 12
M  V30 12 2 12 13
M  V30 13 1 13 14
M  V30 14 1 14 15
M  V30 15 1 15 16
M  V30 16 2 16 17
M  V30 17 1 17 18
M  V30 18 2 18 19
M  V30 19 1 19 20
M  V30 20 1 20 21
M  V30 21 1 21 22
M  V30 22 2 22 23
M  V30 23 1 22 24
M  V30 24 2 24 25
M  V30 25 1 25 26
M  V30 26 2 26 27
M  V30 27 1 27 28
M  V30 28 2 28 29
M  V30 29 2 20 30
M  V30 30 2 6 31
M  V30 31 1 31 2
M  V30 32 2 15 7
M  V30 33 1 30 16
M  V30 34 1 14 9
M  V30 35 1 29 24
M  V30 36 1 1 32
M  V30 37 1 1 33
M  V30 38 1 1 34
M  V30 39 1 3 35
M  V30 40 1 4 36
M  V30 41 1 5 37
M  V30 42 1 10 38
M  V30 43 1 11 39
M  V30 44 1 12 40
M  V30 45 1 17 41
M  V30 46 1 18 42
M  V30 47 1 21 43
M  V30 48 1 25 44
M  V30 49 1 26 45
M  V30 50 1 27 46
M  V30 51 1 28 47
M  V30 52 1 29 48
M  V30 53 1 31 49
M  V30 END BOND
M  V30 END CTAB
M  END
>  <Dataset>  (953) 
ChEMBL_Kinases

>  <Ligand_Instance>  (953) 
nan

>  <PDB_ID>  (953) 
nan

>  <Standardized_SMILES>  (953) 
Cc1cccc(-c2nc3cccnn3c2-c2ccnc(NC(=O)c3ccccc3)n2)c1

>  <Name>  (953) 
nan

>  <Pocket>  (953) 
nan

>  <ATP_Site>  (953) 
nan

>  <Peripheral>  (953) 
nan

>  <Num_H_Atoms_ProtBoundConf>  (953) 
nan

>  <Num_Resolved_Atoms>  (953) 
nan

>  <Num_Not_Resolved_Atoms>  (953) 
nan

$$$$
CHEMBL4225766
     RDKit          3D

  0  0  0  0  0  0  0  0  0  0999 V3000
M  V30 BEGIN CTAB
M  V30 COUNTS 147 152 0 0 0
M  V30 BEGIN ATOM
M  V30 1 C -2.130143 5.524014 0.764064 0
M  V30 2 C -1.484698 5.815303 2.080634 0
M  V30 3 N -2.230744 6.429796 2.947185 0
M  V30 4 C -1.683437 6.685315 4.143338 0
M  V30 5 S 0.070084 5.988669 4.044213 0
M  V30 6 C -0.172838 5.417981 2.326126 0
M  V30 7 C 0.845958 4.740869 1.631885 0
M  V30 8 C 0.879636 4.362585 0.309102 0
M  V30 9 C 1.877443 3.655179 -0.319329 0
M  V30 10 C 2.950533 3.290558 0.458179 0
M  V30 11 C 4.013855 2.508174 -0.227187 0
M  V30 12 N 3.760194 1.104480 -0.192679 0
M  V30 13 C 3.881645 0.155572 0.824144 0
M  V30 14 O 4.303440 0.627063 1.954574 0
M  V30 15 C 3.689254 -1.262472 1.080968 0 CFG=2
M  V30 16 C 5.100790 -1.839165 1.316826 0
M  V30 17 C 4.896628 -3.300416 0.993039 0 CFG=1
M  V30 18 O 5.124780 -3.982543 2.209881 0
M  V30 19 C 3.467372 -3.419574 0.569340 0
M  V30 20 N 3.174302 -2.074849 0.040212 0
M  V30 21 C 2.527308 -1.967942 -1.217851 0
M  V30 22 O 1.963271 -1.347446 -2.156291 0
M  V30 23 C 2.233995 -3.080628 -2.171586 0 CFG=1
M  V30 24 N 1.127763 -2.725786 -3.076777 0
M  V30 25 C -0.183618 -3.265943 -3.074179 0
M  V30 26 O -0.057327 -4.072342 -2.039388 0
M  V30 27 C -1.558790 -3.568743 -3.386741 0
M  V30 28 O -2.205112 -2.993101 -4.440742 0
M  V30 29 C -1.806474 -3.339216 -5.681153 0
M  V30 30 C -0.480357 -2.950391 -6.199456 0
M  V30 31 C -0.315623 -1.430359 -6.351356 0
M  V30 32 O -1.265580 -1.081926 -7.307836 0
M  V30 33 C -1.308878 0.211834 -7.688269 0
M  V30 34 C -1.694187 1.122231 -6.557254 0
M  V30 35 C -1.695693 2.579724 -7.050545 0
M  V30 36 C -2.102436 3.460170 -5.916580 0
M  V30 37 O -3.408345 3.103082 -5.517939 0
M  V30 38 C -3.775878 3.922544 -4.473756 0
M  V30 39 C -5.141280 3.748429 -3.929132 0
M  V30 40 C -5.485195 2.412588 -3.366595 0
M  V30 41 O -4.612475 2.048043 -2.339465 0
M  V30 42 C -4.773982 0.867580 -1.625799 0
M  V30 43 C -5.766464 -0.081757 -1.772645 0
M  V30 44 C -5.759487 -1.203886 -0.958599 0
M  V30 45 C -4.794647 -1.442096 0.018359 0
M  V30 46 N -4.843216 -2.612248 0.845269 0
M  V30 47 C -3.648484 -2.956628 1.530798 0
M  V30 48 N -3.373394 -4.255716 1.189530 0
M  V30 49 C -2.314104 -4.938234 1.619866 0
M  V30 50 C -1.390534 -4.387414 2.456966 0
M  V30 51 I 0.349571 -5.256021 3.258628 0
M  V30 52 C -1.638065 -3.064173 2.826352 0
M  V30 53 N -0.824123 -2.231383 3.636244 0
M  V30 54 C -0.642928 -0.969261 4.253270 0
M  V30 55 C 0.708343 -0.651040 4.775381 0
M  V30 56 C 1.261531 -1.520738 5.843568 0
M  V30 57 N 0.520102 -1.490626 7.085646 0
M  V30 58 C -0.559099 -2.284192 7.625096 0
M  V30 59 C 0.933049 -0.475634 7.985557 0
M  V30 60 O 1.799375 -0.032765 7.231386 0
M  V30 61 C 1.339163 0.567209 8.940486 0
M  V30 62 C 2.395762 1.552464 8.481157 0
M  V30 63 C 3.475140 0.661479 9.052835 0
M  V30 64 C 2.383836 0.059828 9.951622 0
M  V30 65 N -2.727332 -2.466467 2.342624 0
M  V30 66 C -3.813522 -0.478239 0.144308 0
M  V30 67 C -3.786223 0.662466 -0.654026 0
M  V30 68 C 3.401198 -3.289141 -3.150848 0
M  V30 69 C 3.055246 -4.412298 -4.094332 0
M  V30 70 C 3.635842 -1.987581 -3.881663 0
M  V30 71 C 4.696423 -3.667374 -2.476223 0
M  V30 72 C 3.015649 3.619531 1.782461 0
M  V30 73 C 1.982822 4.320809 2.322322 0
M  V30 74 H -2.046122 4.442981 0.533078 0
M  V30 75 H -1.698691 6.200095 0.010071 0
M  V30 76 H -3.224019 5.720368 0.744325 0
M  V30 77 H -2.001676 7.169346 5.086617 0
M  V30 78 H 0.054272 4.659854 -0.310416 0
M  V30 79 H 1.823061 3.394137 -1.372898 0
M  V30 80 H 5.015955 2.674744 0.244591 0
M  V30 81 H 4.078729 2.850020 -1.271716 0
M  V30 82 H 3.426231 0.605320 -1.040786 0
M  V30 83 H 3.159618 -1.467551 2.058843 0
M  V30 84 H 5.410538 -1.643689 2.365573 0
M  V30 85 H 5.766407 -1.397239 0.551899 0
M  V30 86 H 5.602904 -3.712722 0.261637 0
M  V30 87 H 6.068380 -3.799744 2.444702 0
M  V30 88 H 2.881837 -3.537979 1.535034 0
M  V30 89 H 3.206416 -4.236959 -0.073853 0
M  V30 90 H 1.993646 -4.006194 -1.667999 0
M  V30 91 H 0.933282 -2.065073 -3.869881 0
M  V30 92 H -2.242940 -3.387767 -2.475076 0
M  V30 93 H -1.689175 -4.687251 -3.537413 0
M  V30 94 H -1.856757 -4.480594 -5.734725 0
M  V30 95 H -2.604333 -3.031862 -6.448973 0
M  V30 96 H -0.414342 -3.405880 -7.245124 0
M  V30 97 H 0.366077 -3.394962 -5.666644 0
M  V30 98 H 0.701980 -1.214410 -6.716050 0
M  V30 99 H -0.473206 -0.922261 -5.396286 0
M  V30 100 H -0.321227 0.585437 -8.076358 0
M  V30 101 H -2.077449 0.301977 -8.513441 0
M  V30 102 H -0.972573 1.068877 -5.718739 0
M  V30 103 H -2.711358 0.929075 -6.175342 0
M  V30 104 H -0.681239 2.886242 -7.369273 0
M  V30 105 H -2.388318 2.650824 -7.916894 0
M  V30 106 H -2.031555 4.537983 -6.157062 0
M  V30 107 H -1.444097 3.225547 -5.043366 0
M  V30 108 H -3.731667 4.978483 -4.892703 0
M  V30 109 H -2.991942 3.954116 -3.669167 0
M  V30 110 H -5.858123 4.050186 -4.741977 0
M  V30 111 H -5.279640 4.519393 -3.128645 0
M  V30 112 H -5.508953 1.629109 -4.177630 0
M  V30 113 H -6.517309 2.483629 -2.922371 0
M  V30 114 H -6.492456 0.121286 -2.529622 0
M  V30 115 H -6.542346 -1.947367 -1.078564 0
M  V30 116 H -5.713033 -3.155607 0.925289 0
M  V30 117 H -2.077740 -5.966485 1.359842 0
M  V30 118 H 0.017353 -2.803708 3.895469 0
M  V30 119 H -1.438274 -0.841168 5.038217 0
M  V30 120 H -0.891734 -0.194210 3.480218 0
M  V30 121 H 1.402128 -0.567088 3.905010 0
M  V30 122 H 0.649379 0.393559 5.189479 0
M  V30 123 H 1.210811 -2.599620 5.482283 0
M  V30 124 H 2.308600 -1.278335 6.032116 0
M  V30 125 H -1.468076 -1.705394 7.868339 0
M  V30 126 H -0.215940 -2.846176 8.542023 0
M  V30 127 H -0.857003 -3.036593 6.860406 0
M  V30 128 H 0.485016 1.076824 9.438365 0
M  V30 129 H 2.333541 2.535618 9.037159 0
M  V30 130 H 2.399840 1.676017 7.403970 0
M  V30 131 H 3.868326 -0.061658 8.314247 0
M  V30 132 H 4.263594 1.214018 9.625535 0
M  V30 133 H 2.395741 -1.032129 9.966189 0
M  V30 134 H 2.356007 0.534644 10.929675 0
M  V30 135 H -3.020410 -0.604941 0.890289 0
M  V30 136 H -2.961000 1.369423 -0.477688 0
M  V30 137 H 2.484107 -5.175090 -3.552358 0
M  V30 138 H 4.006965 -4.894922 -4.403904 0
M  V30 139 H 2.589803 -4.048944 -5.034486 0
M  V30 140 H 4.025434 -1.252874 -3.127306 0
M  V30 141 H 2.746230 -1.576345 -4.339808 0
M  V30 142 H 4.473693 -2.105953 -4.616432 0
M  V30 143 H 4.971187 -2.830875 -1.838008 0
M  V30 144 H 5.458921 -3.832899 -3.289362 0
M  V30 145 H 4.556990 -4.568063 -1.870708 0
M  V30 146 H 3.889746 3.310451 2.357346 0
M  V30 147 H 2.134300 4.535503 3.383958 0
M  V30 END ATOM
M  V30 BEGIN BOND
M  V30 1 1 1 2
M  V30 2 1 2 3
M  V30 3 2 3 4
M  V30 4 1 4 5
M  V30 5 1 5 6
M  V30 6 1 6 7
M  V30 7 2 7 8
M  V30 8 1 8 9
M  V30 9 2 9 10
M  V30 10 1 10 11
M  V30 11 1 11 12
M  V30 12 1 12 13
M  V30 13 2 13 14
M  V30 14 1 13 15
M  V30 15 1 15 16
M  V30 16 1 16 17
M  V30 17 1 17 18
M  V30 18 1 17 19
M  V30 19 1 19 20
M  V30 20 1 20 21
M  V30 21 2 21 22
M  V30 22 1 21 23
M  V30 23 1 23 24
M  V30 24 1 24 25
M  V30 25 2 25 26
M  V30 26 1 25 27
M  V30 27 1 27 28
M  V30 28 1 28 29
M  V30 29 1 29 30
M  V30 30 1 30 31
M  V30 31 1 31 32
M  V30 32 1 32 33
M  V30 33 1 33 34
M  V30 34 1 34 35
M  V30 35 1 35 36
M  V30 36 1 36 37
M  V30 37 1 37 38
M  V30 38 1 38 39
M  V30 39 1 39 40
M  V30 40 1 40 41
M  V30 41 1 41 42
M  V30 42 2 42 43
M  V30 43 1 43 44
M  V30 44 2 44 45
M  V30 45 1 45 46
M  V30 46 1 46 47
M  V30 47 2 47 48
M  V30 48 1 48 49
M  V30 49 2 49 50
M  V30 50 1 50 51
M  V30 51 1 50 52
M  V30 52 1 52 53
M  V30 53 1 53 54
M  V30 54 1 54 55
M  V30 55 1 55 56
M  V30 56 1 56 57
M  V30 57 1 57 58
M  V30 58 1 57 59
M  V30 59 2 59 60
M  V30 60 1 59 61
M  V30 61 1 61 62
M  V30 62 1 62 63
M  V30 63 1 63 64
M  V30 64 2 52 65
M  V30 65 1 45 66
M  V30 66 2 66 67
M  V30 67 1 23 68
M  V30 68 1 68 69
M  V30 69 1 68 70
M  V30 70 1 68 71
M  V30 71 1 10 72
M  V30 72 2 72 73
M  V30 73 2 6 2
M  V30 74 1 73 7
M  V30 75 1 20 15
M  V30 76 1 67 42
M  V30 77 1 65 47
M  V30 78 1 64 61
M  V30 79 1 1 74
M  V30 80 1 1 75
M  V30 81 1 1 76
M  V30 82 1 4 77
M  V30 83 1 8 78
M  V30 84 1 9 79
M  V30 85 1 11 80
M  V30 86 1 11 81
M  V30 87 1 12 82
M  V30 88 1 15 83 CFG=1
M  V30 89 1 16 84
M  V30 90 1 16 85
M  V30 91 1 17 86 CFG=3
M  V30 92 1 18 87
M  V30 93 1 19 88
M  V30 94 1 19 89
M  V30 95 1 23 90 CFG=1
M  V30 96 1 24 91
M  V30 97 1 27 92
M  V30 98 1 27 93
M  V30 99 1 29 94
M  V30 100 1 29 95
M  V30 101 1 30 96
M  V30 102 1 30 97
M  V30 103 1 31 98
M  V30 104 1 31 99
M  V30 105 1 33 100
M  V30 106 1 33 101
M  V30 107 1 34 102
M  V30 108 1 34 103
M  V30 109 1 35 104
M  V30 110 1 35 105
M  V30 111 1 36 106
M  V30 112 1 36 107
M  V30 113 1 38 108
M  V30 114 1 38 109
M  V30 115 1 39 110
M  V30 116 1 39 111
M  V30 117 1 40 112
M  V30 118 1 40 113
M  V30 119 1 43 114
M  V30 120 1 44 115
M  V30 121 1 46 116
M  V30 122 1 49 117
M  V30 123 1 53 118
M  V30 124 1 54 119
M  V30 125 1 54 120
M  V30 126 1 55 121
M  V30 127 1 55 122
M  V30 128 1 56 123
M  V30 129 1 56 124
M  V30 130 1 58 125
M  V30 131 1 58 126
M  V30 132 1 58 127
M  V30 133 1 61 128
M  V30 134 1 62 129
M  V30 135 1 62 130
M  V30 136 1 63 131
M  V30 137 1 63 132
M  V30 138 1 64 133
M  V30 139 1 64 134
M  V30 140 1 66 135
M  V30 141 1 67 136
M  V30 142 1 69 137
M  V30 143 1 69 138
M  V30 144 1 69 139
M  V30 145 1 70 140
M  V30 146 1 70 141
M  V30 147 1 70 142
M  V30 148 1 71 143
M  V30 149 1 71 144
M  V30 150 1 71 145
M  V30 151 1 72 146
M  V30 152 1 73 147
M  V30 END BOND
M  V30 END CTAB
M  END
>  <Dataset>  (954) 
ChEMBL_Kinases

>  <Ligand_Instance>  (954) 
nan

>  <PDB_ID>  (954) 
nan

>  <Standardized_SMILES>  (954) 
Cc1ncsc1-c1ccc(CNC(=O)[C@@H]2C[C@@H](O)CN2C(=O)[C@@H](NC(=O)COCCCOCCCCOCCCOc2ccc(Nc3ncc(I)c(NCCCN(C)C(=O)C4CCC4)n3)cc2)C(C)(C)C)cc1

>  <Name>  (954) 
nan

>  <Pocket>  (954) 
nan

>  <ATP_Site>  (954) 
nan

>  <Peripheral>  (954) 
nan

>  <Num_H_Atoms_ProtBoundConf>  (954) 
nan

>  <Num_Resolved_Atoms>  (954) 
nan

>  <Num_Not_Resolved_Atoms>  (954) 
nan

$$$$
CHEMBL4225708
     RDKit          3D

  0  0  0  0  0  0  0  0  0  0999 V3000
M  V30 BEGIN CTAB
M  V30 COUNTS 47 51 0 0 0
M  V30 BEGIN ATOM
M  V30 1 C -2.094958 -4.773997 4.514582 0
M  V30 2 C -0.769909 -4.421877 3.947236 0
M  V30 3 C 0.215859 -5.308076 3.604050 0
M  V30 4 C 1.412892 -4.826577 3.080492 0
M  V30 5 C 1.631366 -3.486915 2.899149 0
M  V30 6 C 2.879018 -2.927890 2.349627 0
M  V30 7 C 2.800773 -2.824829 0.847692 0
M  V30 8 C 2.360253 -1.714408 0.172963 0
M  V30 9 C 2.348749 -1.787899 -1.149504 0
M  V30 10 N 1.935912 -0.774629 -2.110335 0
M  V30 11 C 1.478196 0.482637 -1.628213 0
M  V30 12 N 2.322192 1.538566 -1.432598 0
M  V30 13 C 1.828326 2.720760 -0.969085 0
M  V30 14 C 2.741501 3.872557 -0.754681 0
M  V30 15 C 0.480242 2.768479 -0.724739 0
M  V30 16 N -0.391647 1.766747 -0.898298 0
M  V30 17 C -1.709672 1.717805 -0.689777 0
M  V30 18 C -2.688971 2.665275 -0.219301 0
M  V30 19 C -4.040270 2.320253 -0.099869 0
M  V30 20 N -4.761334 3.359395 0.355287 0
M  V30 21 N -3.962048 4.385085 0.547622 0
M  V30 22 C -2.735294 3.964786 0.204472 0
M  V30 23 C -2.011023 0.422833 -1.053895 0
M  V30 24 N -0.915019 -0.219724 -1.446529 0
M  V30 25 C 0.132564 0.617760 -1.356185 0
M  V30 26 S 2.925015 -3.346717 -1.621093 0
M  V30 27 N 3.199781 -3.934234 0.136692 0
M  V30 28 N 0.648414 -2.646349 3.244333 0
M  V30 29 C -0.507670 -3.076375 3.747545 0
M  V30 30 H -2.468419 -3.926117 5.138648 0
M  V30 31 H -2.836908 -4.910440 3.677466 0
M  V30 32 H -2.048823 -5.681819 5.154795 0
M  V30 33 H 0.012823 -6.346665 3.758454 0
M  V30 34 H 2.187269 -5.527895 2.810992 0
M  V30 35 H 3.009468 -1.880410 2.745187 0
M  V30 36 H 3.781295 -3.467038 2.624560 0
M  V30 37 H 2.037134 -0.820539 0.682878 0
M  V30 38 H 1.976745 -0.970732 -3.129825 0
M  V30 39 H 2.323979 4.543446 -0.003832 0
M  V30 40 H 2.830822 4.378053 -1.754002 0
M  V30 41 H 3.765489 3.548679 -0.493714 0
M  V30 42 H 0.125770 3.713843 -0.360882 0
M  V30 43 H -4.570278 1.396661 -0.305386 0
M  V30 44 H -4.213742 5.332499 0.893402 0
M  V30 45 H -1.875038 4.598757 0.260772 0
M  V30 46 H -2.948482 -0.143640 -1.076186 0
M  V30 47 H -1.252256 -2.313353 4.000626 0
M  V30 END ATOM
M  V30 BEGIN BOND
M  V30 1 1 1 2
M  V30 2 2 2 3
M  V30 3 1 3 4
M  V30 4 2 4 5
M  V30 5 1 5 6
M  V30 6 1 6 7
M  V30 7 1 7 8
M  V30 8 2 8 9
M  V30 9 1 9 10
M  V30 10 1 10 11
M  V30 11 2 11 12
M  V30 12 1 12 13
M  V30 13 1 13 14
M  V30 14 2 13 15
M  V30 15 1 15 16
M  V30 16 1 16 17
M  V30 17 1 17 18
M  V30 18 1 18 19
M  V30 19 2 19 20
M  V30 20 1 20 21
M  V30 21 1 21 22
M  V30 22 2 17 23
M  V30 23 1 23 24
M  V30 24 2 24 25
M  V30 25 1 9 26
M  V30 26 1 26 27
M  V30 27 1 5 28
M  V30 28 2 28 29
M  V30 29 1 29 2
M  V30 30 2 27 7
M  V30 31 1 25 11
M  V30 32 1 25 16
M  V30 33 2 22 18
M  V30 34 1 1 30
M  V30 35 1 1 31
M  V30 36 1 1 32
M  V30 37 1 3 33
M  V30 38 1 4 34
M  V30 39 1 6 35
M  V30 40 1 6 36
M  V30 41 1 8 37
M  V30 42 1 10 38
M  V30 43 1 14 39
M  V30 44 1 14 40
M  V30 45 1 14 41
M  V30 46 1 15 42
M  V30 47 1 19 43
M  V30 48 1 21 44
M  V30 49 1 22 45
M  V30 50 1 23 46
M  V30 51 1 29 47
M  V30 END BOND
M  V30 END CTAB
M  END
>  <Dataset>  (955) 
ChEMBL_Kinases

>  <Ligand_Instance>  (955) 
nan

>  <PDB_ID>  (955) 
nan

>  <Standardized_SMILES>  (955) 
Cc1ccc(Cc2cc(Nc3nc(C)cn4c(-c5cn[nH]c5)cnc34)sn2)nc1

>  <Name>  (955) 
nan

>  <Pocket>  (955) 
nan

>  <ATP_Site>  (955) 
nan

>  <Peripheral>  (955) 
nan

>  <Num_H_Atoms_ProtBoundConf>  (955) 
nan

>  <Num_Resolved_Atoms>  (955) 
nan

>  <Num_Not_Resolved_Atoms>  (955) 
nan

$$$$
CHEMBL4225654
     RDKit          3D

  0  0  0  0  0  0  0  0  0  0999 V3000
M  V30 BEGIN CTAB
M  V30 COUNTS 41 43 0 0 0
M  V30 BEGIN ATOM
M  V30 1 O 1.490389 -0.973254 2.132987 0
M  V30 2 C 0.334779 -0.510671 2.294666 0
M  V30 3 N -0.192272 -0.843302 3.570390 0
M  V30 4 O 0.255044 -1.533853 4.637822 0
M  V30 5 C 1.509846 -2.067273 4.511487 0
M  V30 6 C 1.974450 -2.779806 5.770819 0
M  V30 7 O 3.244996 -3.276317 5.532296 0
M  V30 8 C -0.408796 0.261919 1.348412 0
M  V30 9 C -1.651730 0.783499 1.621125 0
M  V30 10 C -2.331430 1.553027 0.680476 0
M  V30 11 C -1.743070 1.800368 -0.560704 0
M  V30 12 C -0.480319 1.256928 -0.808600 0
M  V30 13 F 0.003906 1.548902 -2.028976 0
M  V30 14 C 0.192814 0.490168 0.132142 0
M  V30 15 N 1.447365 0.012268 -0.330540 0
M  V30 16 C 1.865385 -1.032883 -1.203562 0
M  V30 17 C 2.594141 -0.440117 -2.246027 0
M  V30 18 C 3.135386 -1.220786 -3.272970 0
M  V30 19 C 2.947925 -2.576211 -3.253779 0
M  V30 20 I 3.704579 -3.870437 -4.731088 0
M  V30 21 C 2.235970 -3.145954 -2.233604 0
M  V30 22 C 1.696591 -2.399432 -1.216972 0
M  V30 23 F 0.982535 -2.825527 -0.176374 0
M  V30 24 O -2.632865 2.581732 -1.282057 0
M  V30 25 C -3.921605 2.552446 -0.694833 0
M  V30 26 C -3.677582 2.213981 0.759551 0
M  V30 27 H -1.139758 -0.549735 3.893034 0
M  V30 28 H 2.222446 -1.235052 4.337305 0
M  V30 29 H 1.532691 -2.747532 3.640660 0
M  V30 30 H 1.286224 -3.627468 5.935833 0
M  V30 31 H 1.939836 -2.096014 6.642709 0
M  V30 32 H 3.613331 -2.957971 4.661275 0
M  V30 33 H -2.141179 0.615586 2.568650 0
M  V30 34 H 2.164091 0.639019 0.135252 0
M  V30 35 H 2.836363 0.613319 -2.415242 0
M  V30 36 H 3.704509 -0.846786 -4.105504 0
M  V30 37 H 2.045727 -4.213416 -2.150357 0
M  V30 38 H -4.456246 1.710438 -1.217178 0
M  V30 39 H -4.487278 3.488524 -0.800420 0
M  V30 40 H -3.693218 3.072706 1.428712 0
M  V30 41 H -4.451136 1.478915 1.048267 0
M  V30 END ATOM
M  V30 BEGIN BOND
M  V30 1 2 1 2
M  V30 2 1 2 3
M  V30 3 1 3 4
M  V30 4 1 4 5
M  V30 5 1 5 6
M  V30 6 1 6 7
M  V30 7 1 2 8
M  V30 8 2 8 9
M  V30 9 1 9 10
M  V30 10 2 10 11
M  V30 11 1 11 12
M  V30 12 1 12 13
M  V30 13 2 12 14
M  V30 14 1 14 15
M  V30 15 1 15 16
M  V30 16 2 16 17
M  V30 17 1 17 18
M  V30 18 2 18 19
M  V30 19 1 19 20
M  V30 20 1 19 21
M  V30 21 2 21 22
M  V30 22 1 22 23
M  V30 23 1 11 24
M  V30 24 1 24 25
M  V30 25 1 25 26
M  V30 26 1 14 8
M  V30 27 1 22 16
M  V30 28 1 26 10
M  V30 29 1 3 27
M  V30 30 1 5 28
M  V30 31 1 5 29
M  V30 32 1 6 30
M  V30 33 1 6 31
M  V30 34 1 7 32
M  V30 35 1 9 33
M  V30 36 1 15 34
M  V30 37 1 17 35
M  V30 38 1 18 36
M  V30 39 1 21 37
M  V30 40 1 25 38
M  V30 41 1 25 39
M  V30 42 1 26 40
M  V30 43 1 26 41
M  V30 END BOND
M  V30 END CTAB
M  END
>  <Dataset>  (956) 
ChEMBL_Kinases

>  <Ligand_Instance>  (956) 
nan

>  <PDB_ID>  (956) 
nan

>  <Standardized_SMILES>  (956) 
O=C(NOCCO)c1cc2c(c(F)c1Nc1ccc(I)cc1F)OCC2

>  <Name>  (956) 
nan

>  <Pocket>  (956) 
nan

>  <ATP_Site>  (956) 
nan

>  <Peripheral>  (956) 
nan

>  <Num_H_Atoms_ProtBoundConf>  (956) 
nan

>  <Num_Resolved_Atoms>  (956) 
nan

>  <Num_Not_Resolved_Atoms>  (956) 
nan

$$$$
CHEMBL4225645
     RDKit          3D

  0  0  0  0  0  0  0  0  0  0999 V3000
M  V30 BEGIN CTAB
M  V30 COUNTS 66 71 0 0 0
M  V30 BEGIN ATOM
M  V30 1 C 2.746034 -1.467551 6.087462 0
M  V30 2 C 2.242120 -2.146985 4.866637 0
M  V30 3 C 2.386231 -1.460308 3.758252 0
M  V30 4 C 2.943433 -0.164609 3.450880 0
M  V30 5 O 2.975246 0.307302 2.253696 0
M  V30 6 N 3.561963 0.953385 4.057987 0
M  V30 7 C 3.837881 1.899371 3.005172 0
M  V30 8 C 5.001701 1.909629 2.299473 0
M  V30 9 C 5.134748 2.871838 1.316964 0
M  V30 10 C 4.097252 3.761299 1.102746 0
M  V30 11 N 3.941855 4.789683 0.230598 0
M  V30 12 N 2.775412 5.372620 0.381087 0
M  V30 13 C 2.075135 4.761654 1.373195 0
M  V30 14 C 2.913569 3.755154 1.816387 0
M  V30 15 C 2.787515 2.777689 2.809074 0
M  V30 16 C 1.831701 -2.069025 2.524753 0
M  V30 17 C 0.656132 -1.314349 1.988591 0
M  V30 18 C 0.143952 -0.184315 2.586800 0
M  V30 19 C -0.933792 0.477096 2.037026 0
M  V30 20 C -1.449901 -0.056337 0.878792 0
M  V30 21 F -2.499758 0.580672 0.335970 0
M  V30 22 C -0.997673 -1.176712 0.222179 0
M  V30 23 C -1.496606 -1.772961 -0.982431 0
M  V30 24 O -0.974246 -2.825152 -1.488803 0
M  V30 25 N -2.573943 -1.364264 -1.795188 0
M  V30 26 C -3.017233 -2.010052 -2.988049 0
M  V30 27 C -3.029481 -1.096648 -4.193515 0
M  V30 28 N -3.979480 -1.658620 -5.137212 0
M  V30 29 C -5.305963 -1.243551 -4.719221 0
M  V30 30 C -5.396184 -1.361000 -3.226783 0
M  V30 31 C -4.457072 -2.481831 -2.802021 0
M  V30 32 C -4.665580 -3.588305 -3.822791 0
M  V30 33 C -3.964721 -3.116518 -5.099169 0
M  V30 34 C 0.095136 -1.801599 0.827401 0
M  V30 35 N 1.481301 -3.449627 2.671754 0
M  V30 36 C 1.314405 -4.186367 3.863249 0
M  V30 37 O 0.850226 -5.351572 3.917289 0
M  V30 38 N 1.733371 -3.457307 5.005324 0
M  V30 39 H 2.667699 -2.180549 6.963255 0
M  V30 40 H 2.228190 -0.535409 6.308761 0
M  V30 41 H 3.837278 -1.287814 6.013962 0
M  V30 42 H 3.636594 0.767208 5.081209 0
M  V30 43 H 5.763277 1.175332 2.533003 0
M  V30 44 H 6.046381 2.914390 0.731980 0
M  V30 45 H 4.631084 5.122934 -0.494266 0
M  V30 46 H 1.079775 5.001676 1.743289 0
M  V30 47 H 1.860625 2.779647 3.361370 0
M  V30 48 H 2.611407 -1.990689 1.704688 0
M  V30 49 H 0.553684 0.218031 3.500528 0
M  V30 50 H -1.353033 1.353707 2.475329 0
M  V30 51 H -3.101214 -0.513297 -1.506553 0
M  V30 52 H -2.394035 -2.900134 -3.212904 0
M  V30 53 H -3.385867 -0.086927 -3.910888 0
M  V30 54 H -2.016983 -0.994163 -4.625989 0
M  V30 55 H -6.048356 -1.939855 -5.165343 0
M  V30 56 H -5.564166 -0.233982 -5.095852 0
M  V30 57 H -6.430911 -1.691965 -2.954238 0
M  V30 58 H -5.218704 -0.416579 -2.693800 0
M  V30 59 H -4.656853 -2.813163 -1.767479 0
M  V30 60 H -4.238068 -4.535891 -3.438830 0
M  V30 61 H -5.751793 -3.718411 -3.999113 0
M  V30 62 H -2.943458 -3.518583 -5.167589 0
M  V30 63 H -4.564710 -3.463334 -5.954495 0
M  V30 64 H 0.511104 -2.695048 0.366149 0
M  V30 65 H 1.344105 -3.921367 1.753044 0
M  V30 66 H 1.669046 -3.881895 5.954458 0
M  V30 END ATOM
M  V30 BEGIN BOND
M  V30 1 1 1 2
M  V30 2 2 2 3
M  V30 3 1 3 4
M  V30 4 2 4 5
M  V30 5 1 4 6
M  V30 6 1 6 7
M  V30 7 2 7 8
M  V30 8 1 8 9
M  V30 9 2 9 10
M  V30 10 1 10 11
M  V30 11 1 11 12
M  V30 12 2 12 13
M  V30 13 1 13 14
M  V30 14 2 14 15
M  V30 15 1 3 16
M  V30 16 1 16 17
M  V30 17 2 17 18
M  V30 18 1 18 19
M  V30 19 2 19 20
M  V30 20 1 20 21
M  V30 21 1 20 22
M  V30 22 1 22 23
M  V30 23 2 23 24
M  V30 24 1 23 25
M  V30 25 1 25 26
M  V30 26 1 26 27
M  V30 27 1 27 28
M  V30 28 1 28 29
M  V30 29 1 29 30
M  V30 30 1 30 31
M  V30 31 1 31 32
M  V30 32 1 32 33
M  V30 33 2 22 34
M  V30 34 1 16 35
M  V30 35 1 35 36
M  V30 36 2 36 37
M  V30 37 1 36 38
M  V30 38 1 38 2
M  V30 39 1 15 7
M  V30 40 1 34 17
M  V30 41 1 14 10
M  V30 42 1 31 26
M  V30 43 1 33 28
M  V30 44 1 1 39
M  V30 45 1 1 40
M  V30 46 1 1 41
M  V30 47 1 6 42
M  V30 48 1 8 43
M  V30 49 1 9 44
M  V30 50 1 11 45
M  V30 51 1 13 46
M  V30 52 1 15 47
M  V30 53 1 16 48
M  V30 54 1 18 49
M  V30 55 1 19 50
M  V30 56 1 25 51
M  V30 57 1 26 52
M  V30 58 1 27 53
M  V30 59 1 27 54
M  V30 60 1 29 55
M  V30 61 1 29 56
M  V30 62 1 30 57
M  V30 63 1 30 58
M  V30 64 1 31 59
M  V30 65 1 32 60
M  V30 66 1 32 61
M  V30 67 1 33 62
M  V30 68 1 33 63
M  V30 69 1 34 64
M  V30 70 1 35 65
M  V30 71 1 38 66
M  V30 END BOND
M  V30 END CTAB
M  END
>  <Dataset>  (957) 
ChEMBL_Kinases

>  <Ligand_Instance>  (957) 
nan

>  <PDB_ID>  (957) 
nan

>  <Standardized_SMILES>  (957) 
CC1=C(C(=O)Nc2ccc3[nH]ncc3c2)C(c2ccc(F)c(C(=O)NC3CN4CCC3CC4)c2)NC(=O)N1

>  <Name>  (957) 
nan

>  <Pocket>  (957) 
nan

>  <ATP_Site>  (957) 
nan

>  <Peripheral>  (957) 
nan

>  <Num_H_Atoms_ProtBoundConf>  (957) 
nan

>  <Num_Resolved_Atoms>  (957) 
nan

>  <Num_Not_Resolved_Atoms>  (957) 
nan

$$$$
CHEMBL4225547
     RDKit          3D

  0  0  0  0  0  0  0  0  0  0999 V3000
M  V30 BEGIN CTAB
M  V30 COUNTS 47 51 0 0 0
M  V30 BEGIN ATOM
M  V30 1 O -1.447569 -2.389520 2.102761 0
M  V30 2 C -1.816926 -3.055938 1.104017 0
M  V30 3 N -0.820478 -3.072654 0.075511 0
M  V30 4 C 0.196890 -2.264838 0.718885 0
M  V30 5 C 0.219213 -0.899244 0.518891 0
M  V30 6 C 1.214284 -0.175637 1.188841 0
M  V30 7 C 1.132317 1.248378 0.896794 0
M  V30 8 C 2.079470 2.050867 0.297171 0
M  V30 9 C 3.408374 1.702465 -0.185746 0
M  V30 10 C 3.839679 1.561317 -1.487638 0
M  V30 11 C 5.125598 1.238433 -1.831180 0
M  V30 12 C 6.073909 1.035147 -0.824251 0
M  V30 13 Cl 7.736603 0.620110 -1.219428 0
M  V30 14 C 5.677961 1.168985 0.510718 0
M  V30 15 C 4.370592 1.495449 0.797613 0
M  V30 16 N 1.543578 3.287394 0.235527 0
M  V30 17 C 0.310321 3.282373 0.769725 0
M  V30 18 C -0.672652 4.236455 0.967601 0
M  V30 19 C -1.882890 3.935176 1.561265 0
M  V30 20 C -2.054695 2.633031 1.944378 0
M  V30 21 N -1.118481 1.684199 1.765581 0
M  V30 22 N 0.037878 2.014740 1.188213 0
M  V30 23 C 2.076241 -0.895339 1.984306 0
M  V30 24 C 2.037484 -2.256419 2.169758 0
M  V30 25 N 1.063818 -2.953365 1.512219 0
M  V30 26 C -3.146097 -3.709418 1.091781 0
M  V30 27 C -3.835050 -3.514718 2.293432 0
M  V30 28 C -5.107777 -4.079574 2.428909 0
M  V30 29 C -5.687160 -4.813651 1.414623 0
M  V30 30 C -4.956540 -4.968314 0.257450 0
M  V30 31 C -3.680594 -4.424071 0.071913 0
M  V30 32 H -1.098533 -3.628461 -0.787724 0
M  V30 33 H -0.548642 -0.505895 -0.150091 0
M  V30 34 H 3.051654 1.732745 -2.232830 0
M  V30 35 H 5.391380 1.145803 -2.872253 0
M  V30 36 H 6.455327 0.998900 1.232515 0
M  V30 37 H 4.215925 1.565783 1.864476 0
M  V30 38 H -0.490117 5.248452 0.650011 0
M  V30 39 H -2.664438 4.662864 1.725819 0
M  V30 40 H -2.952767 2.256539 2.420234 0
M  V30 41 H 2.807152 -0.263478 2.465517 0
M  V30 42 H 2.795025 -2.660622 2.832378 0
M  V30 43 H -3.500148 -2.961150 3.170223 0
M  V30 44 H -5.679077 -3.951700 3.350506 0
M  V30 45 H -6.679420 -5.251041 1.528194 0
M  V30 46 H -5.338713 -5.530730 -0.587623 0
M  V30 47 H -3.091823 -4.524098 -0.807398 0
M  V30 END ATOM
M  V30 BEGIN BOND
M  V30 1 2 1 2
M  V30 2 1 2 3
M  V30 3 1 3 4
M  V30 4 2 4 5
M  V30 5 1 5 6
M  V30 6 1 6 7
M  V30 7 2 7 8
M  V30 8 1 8 9
M  V30 9 2 9 10
M  V30 10 1 10 11
M  V30 11 2 11 12
M  V30 12 1 12 13
M  V30 13 1 12 14
M  V30 14 2 14 15
M  V30 15 1 8 16
M  V30 16 2 16 17
M  V30 17 1 17 18
M  V30 18 2 18 19
M  V30 19 1 19 20
M  V30 20 2 20 21
M  V30 21 1 21 22
M  V30 22 2 6 23
M  V30 23 1 23 24
M  V30 24 2 24 25
M  V30 25 1 2 26
M  V30 26 2 26 27
M  V30 27 1 27 28
M  V30 28 2 28 29
M  V30 29 1 29 30
M  V30 30 2 30 31
M  V30 31 1 25 4
M  V30 32 1 31 26
M  V30 33 1 22 7
M  V30 34 1 15 9
M  V30 35 1 22 17
M  V30 36 1 3 32
M  V30 37 1 5 33
M  V30 38 1 10 34
M  V30 39 1 11 35
M  V30 40 1 14 36
M  V30 41 1 15 37
M  V30 42 1 18 38
M  V30 43 1 19 39
M  V30 44 1 20 40
M  V30 45 1 23 41
M  V30 46 1 24 42
M  V30 47 1 27 43
M  V30 48 1 28 44
M  V30 49 1 29 45
M  V30 50 1 30 46
M  V30 51 1 31 47
M  V30 END BOND
M  V30 END CTAB
M  END
>  <Dataset>  (958) 
ChEMBL_Kinases

>  <Ligand_Instance>  (958) 
nan

>  <PDB_ID>  (958) 
nan

>  <Standardized_SMILES>  (958) 
O=C(Nc1cc(-c2c(-c3ccc(Cl)cc3)nc3cccnn23)ccn1)c1ccccc1

>  <Name>  (958) 
nan

>  <Pocket>  (958) 
nan

>  <ATP_Site>  (958) 
nan

>  <Peripheral>  (958) 
nan

>  <Num_H_Atoms_ProtBoundConf>  (958) 
nan

>  <Num_Resolved_Atoms>  (958) 
nan

>  <Num_Not_Resolved_Atoms>  (958) 
nan

$$$$
CHEMBL4776399
     RDKit          3D

  0  0  0  0  0  0  0  0  0  0999 V3000
M  V30 BEGIN CTAB
M  V30 COUNTS 53 56 0 0 0
M  V30 BEGIN ATOM
M  V30 1 C 2.824090 -3.322447 -1.184244 0
M  V30 2 C 3.013725 -2.338222 -0.077576 0
M  V30 3 C 3.993520 -1.259706 -0.508376 0
M  V30 4 S 4.230262 -0.081672 0.790332 0
M  V30 5 O 5.318310 0.857569 0.370806 0
M  V30 6 O 4.768365 -0.829235 1.978121 0
M  V30 7 N 2.794298 0.705811 1.250618 0
M  V30 8 C 2.048003 1.505765 0.365232 0
M  V30 9 C 2.589414 1.858117 -0.853840 0
M  V30 10 C 1.878839 2.644125 -1.733428 0
M  V30 11 C 0.596075 3.099742 -1.409870 0
M  V30 12 F -0.030248 3.877864 -2.354803 0
M  V30 13 C 0.016926 2.772613 -0.207238 0
M  V30 14 C -1.287947 3.299142 0.078487 0
M  V30 15 O -1.494238 4.393280 -0.559937 0
M  V30 16 C -2.422564 2.926912 0.888238 0
M  V30 17 N -3.309572 3.824014 1.345910 0
M  V30 18 N -4.256105 3.197048 2.022352 0
M  V30 19 C -4.066126 1.866370 2.058030 0
M  V30 20 N -4.716348 0.815961 2.579285 0
M  V30 21 C -4.288784 -0.452015 2.436820 0
M  V30 22 C -3.110114 -0.645612 1.706152 0
M  V30 23 C -2.567171 -1.986349 1.496895 0
M  V30 24 C -2.792031 -2.906031 2.519516 0
M  V30 25 C -2.326666 -4.215142 2.442346 0
M  V30 26 C -1.629077 -4.568858 1.305560 0
M  V30 27 C -1.135389 -5.948873 1.217925 0
M  V30 28 O -1.368726 -6.718641 2.161351 0
M  V30 29 O -0.427083 -6.432232 0.143099 0
M  V30 30 C -1.389632 -3.665692 0.264922 0
M  V30 31 C -1.867659 -2.353642 0.364926 0
M  V30 32 C -2.436436 0.428698 1.168264 0
M  V30 33 C -2.901943 1.714720 1.334721 0
M  V30 34 C 0.781394 1.996118 0.605923 0
M  V30 35 F 0.331128 1.650115 1.846040 0
M  V30 36 H 3.694221 -3.973245 -1.323358 0
M  V30 37 H 1.947436 -3.971554 -0.958945 0
M  V30 38 H 2.578940 -2.764578 -2.130357 0
M  V30 39 H 2.079187 -1.867020 0.235394 0
M  V30 40 H 3.428848 -2.879582 0.792247 0
M  V30 41 H 3.592834 -0.812617 -1.426141 0
M  V30 42 H 4.959958 -1.718989 -0.756397 0
M  V30 43 H 2.406222 0.619094 2.238301 0
M  V30 44 H 3.567944 1.562070 -1.198956 0
M  V30 45 H 2.302213 2.928610 -2.703504 0
M  V30 46 H -5.043255 3.723021 2.461692 0
M  V30 47 H -4.821794 -1.297070 2.862800 0
M  V30 48 H -3.336374 -2.623710 3.402681 0
M  V30 49 H -2.505481 -4.918536 3.237952 0
M  V30 50 H -0.534808 -7.419084 -0.086442 0
M  V30 51 H -0.837587 -3.961560 -0.624926 0
M  V30 52 H -1.709757 -1.618535 -0.410050 0
M  V30 53 H -1.543173 0.269687 0.603057 0
M  V30 END ATOM
M  V30 BEGIN BOND
M  V30 1 1 1 2
M  V30 2 1 2 3
M  V30 3 1 3 4
M  V30 4 2 4 5
M  V30 5 2 4 6
M  V30 6 1 4 7
M  V30 7 1 7 8
M  V30 8 2 8 9
M  V30 9 1 9 10
M  V30 10 2 10 11
M  V30 11 1 11 12
M  V30 12 1 11 13
M  V30 13 1 13 14
M  V30 14 2 14 15
M  V30 15 1 14 16
M  V30 16 2 16 17
M  V30 17 1 17 18
M  V30 18 1 18 19
M  V30 19 2 19 20
M  V30 20 1 20 21
M  V30 21 2 21 22
M  V30 22 1 22 23
M  V30 23 2 23 24
M  V30 24 1 24 25
M  V30 25 2 25 26
M  V30 26 1 26 27
M  V30 27 2 27 28
M  V30 28 1 27 29
M  V30 29 1 26 30
M  V30 30 2 30 31
M  V30 31 1 22 32
M  V30 32 2 32 33
M  V30 33 2 13 34
M  V30 34 1 34 35
M  V30 35 1 34 8
M  V30 36 1 33 16
M  V30 37 1 33 19
M  V30 38 1 31 23
M  V30 39 1 1 36
M  V30 40 1 1 37
M  V30 41 1 1 38
M  V30 42 1 2 39
M  V30 43 1 2 40
M  V30 44 1 3 41
M  V30 45 1 3 42
M  V30 46 1 7 43
M  V30 47 1 9 44
M  V30 48 1 10 45
M  V30 49 1 18 46
M  V30 50 1 21 47
M  V30 51 1 24 48
M  V30 52 1 25 49
M  V30 53 1 29 50
M  V30 54 1 30 51
M  V30 55 1 31 52
M  V30 56 1 32 53
M  V30 END BOND
M  V30 END CTAB
M  END
>  <Dataset>  (959) 
ChEMBL_Kinases

>  <Ligand_Instance>  (959) 
nan

>  <PDB_ID>  (959) 
nan

>  <Standardized_SMILES>  (959) 
CCCS(=O)(=O)Nc1ccc(F)c(C(=O)c2n[nH]c3ncc(-c4ccc(C(=O)O)cc4)cc23)c1F

>  <Name>  (959) 
nan

>  <Pocket>  (959) 
nan

>  <ATP_Site>  (959) 
nan

>  <Peripheral>  (959) 
nan

>  <Num_H_Atoms_ProtBoundConf>  (959) 
nan

>  <Num_Resolved_Atoms>  (959) 
nan

>  <Num_Not_Resolved_Atoms>  (959) 
nan

$$$$
CHEMBL4225487
     RDKit          3D

  0  0  0  0  0  0  0  0  0  0999 V3000
M  V30 BEGIN CTAB
M  V30 COUNTS 50 54 0 0 0
M  V30 BEGIN ATOM
M  V30 1 O 1.640906 -2.012521 0.090558 0
M  V30 2 C 1.007277 -3.075768 -0.095317 0
M  V30 3 N 0.004964 -3.321209 0.896272 0
M  V30 4 C 0.024925 -2.236450 1.841901 0
M  V30 5 C -0.787510 -1.145225 1.559368 0
M  V30 6 C -0.796343 -0.076665 2.453134 0
M  V30 7 C -1.676993 1.023910 2.072762 0
M  V30 8 C -1.108728 2.286950 1.858365 0
M  V30 9 C 0.287900 2.722877 1.953791 0
M  V30 10 C 1.290074 2.229135 1.158932 0
M  V30 11 C 2.606949 2.648303 1.258161 0
M  V30 12 C 2.876657 3.618055 2.225003 0
M  V30 13 F 4.156831 4.052239 2.348990 0
M  V30 14 C 1.892107 4.149332 3.055368 0
M  V30 15 Cl 2.361172 5.367219 4.235029 0
M  V30 16 C 0.615873 3.680717 2.892477 0
M  V30 17 N -2.071027 3.189523 1.512156 0
M  V30 18 C -3.208431 2.512340 1.509809 0
M  V30 19 C -4.542285 2.762026 1.263311 0
M  V30 20 C -5.567148 1.833654 1.335349 0
M  V30 21 C -5.187932 0.534124 1.691944 0
M  V30 22 N -3.894191 0.256110 1.939363 0
M  V30 23 N -2.986568 1.229769 1.840291 0
M  V30 24 C -0.020433 -0.089361 3.596788 0
M  V30 25 C 0.766429 -1.200005 3.824907 0
M  V30 26 N 0.787270 -2.250858 2.963829 0
M  V30 27 C 1.237447 -4.012403 -1.212732 0
M  V30 28 C 0.578454 -5.187354 -1.452050 0
M  V30 29 C 0.924704 -5.943330 -2.554056 0
M  V30 30 C 1.909293 -5.587962 -3.448376 0
M  V30 31 C 2.563391 -4.410109 -3.200486 0
M  V30 32 C 3.654338 -3.915910 -4.103340 0
M  V30 33 F 3.452073 -4.413493 -5.384781 0
M  V30 34 F 3.626366 -2.535821 -4.197270 0
M  V30 35 F 4.867826 -4.403430 -3.667683 0
M  V30 36 C 2.246657 -3.613329 -2.098147 0
M  V30 37 H -0.588342 -4.185457 0.840847 0
M  V30 38 H -1.401807 -1.145908 0.645433 0
M  V30 39 H 1.024353 1.485987 0.433143 0
M  V30 40 H 3.399589 2.264314 0.636740 0
M  V30 41 H -0.104431 4.137872 3.573217 0
M  V30 42 H -4.838224 3.785952 0.982372 0
M  V30 43 H -6.586109 2.147388 1.117843 0
M  V30 44 H -6.017933 -0.159560 1.736569 0
M  V30 45 H -0.072434 0.772431 4.250456 0
M  V30 46 H 1.377159 -1.221981 4.714544 0
M  V30 47 H -0.183581 -5.443958 -0.743224 0
M  V30 48 H 0.380387 -6.883947 -2.725787 0
M  V30 49 H 2.177297 -6.183949 -4.310628 0
M  V30 50 H 2.803303 -2.675703 -1.945882 0
M  V30 END ATOM
M  V30 BEGIN BOND
M  V30 1 2 1 2
M  V30 2 1 2 3
M  V30 3 1 3 4
M  V30 4 2 4 5
M  V30 5 1 5 6
M  V30 6 1 6 7
M  V30 7 2 7 8
M  V30 8 1 8 9
M  V30 9 2 9 10
M  V30 10 1 10 11
M  V30 11 2 11 12
M  V30 12 1 12 13
M  V30 13 1 12 14
M  V30 14 1 14 15
M  V30 15 2 14 16
M  V30 16 1 8 17
M  V30 17 2 17 18
M  V30 18 1 18 19
M  V30 19 2 19 20
M  V30 20 1 20 21
M  V30 21 2 21 22
M  V30 22 1 22 23
M  V30 23 2 6 24
M  V30 24 1 24 25
M  V30 25 2 25 26
M  V30 26 1 2 27
M  V30 27 2 27 28
M  V30 28 1 28 29
M  V30 29 2 29 30
M  V30 30 1 30 31
M  V30 31 1 31 32
M  V30 32 1 32 33
M  V30 33 1 32 34
M  V30 34 1 32 35
M  V30 35 2 31 36
M  V30 36 1 26 4
M  V30 37 1 36 27
M  V30 38 1 23 7
M  V30 39 1 16 9
M  V30 40 1 23 18
M  V30 41 1 3 37
M  V30 42 1 5 38
M  V30 43 1 10 39
M  V30 44 1 11 40
M  V30 45 1 16 41
M  V30 46 1 19 42
M  V30 47 1 20 43
M  V30 48 1 21 44
M  V30 49 1 24 45
M  V30 50 1 25 46
M  V30 51 1 28 47
M  V30 52 1 29 48
M  V30 53 1 30 49
M  V30 54 1 36 50
M  V30 END BOND
M  V30 END CTAB
M  END
>  <Dataset>  (960) 
ChEMBL_Kinases

>  <Ligand_Instance>  (960) 
nan

>  <PDB_ID>  (960) 
nan

>  <Standardized_SMILES>  (960) 
O=C(Nc1cc(-c2c(-c3ccc(F)c(Cl)c3)nc3cccnn23)ccn1)c1cccc(C(F)(F)F)c1

>  <Name>  (960) 
nan

>  <Pocket>  (960) 
nan

>  <ATP_Site>  (960) 
nan

>  <Peripheral>  (960) 
nan

>  <Num_H_Atoms_ProtBoundConf>  (960) 
nan

>  <Num_Resolved_Atoms>  (960) 
nan

>  <Num_Not_Resolved_Atoms>  (960) 
nan

$$$$
CHEMBL4225401
     RDKit          3D

  0  0  0  0  0  0  0  0  0  0999 V3000
M  V30 BEGIN CTAB
M  V30 COUNTS 45 47 0 0 0
M  V30 BEGIN ATOM
M  V30 1 O 1.431358 -0.625318 1.535176 0
M  V30 2 C 0.751518 -0.860866 0.520814 0
M  V30 3 N 1.501131 -1.627977 -0.409191 0
M  V30 4 O 2.764337 -2.108709 -0.357350 0
M  V30 5 C 3.612324 -1.142828 -0.899434 0
M  V30 6 C 5.037138 -1.641773 -0.889234 0 CFG=2
M  V30 7 O 5.405142 -1.900859 0.410404 0
M  V30 8 C 5.987644 -0.720919 -1.576037 0
M  V30 9 O 7.245646 -1.318544 -1.579882 0
M  V30 10 C -0.612599 -0.469269 0.209169 0
M  V30 11 C -1.198221 -0.770882 -0.977101 0
M  V30 12 C -2.507108 -0.347105 -1.236290 0
M  V30 13 C -3.215924 0.380222 -0.291941 0
M  V30 14 C -2.598723 0.679193 0.918243 0
M  V30 15 F -3.339697 1.382132 1.780817 0
M  V30 16 C -1.295838 0.251658 1.164981 0
M  V30 17 N -0.831346 0.620387 2.456518 0
M  V30 18 C -1.055335 0.119333 3.768149 0
M  V30 19 C -1.595866 1.166095 4.528628 0
M  V30 20 C -1.935754 0.992168 5.872915 0
M  V30 21 C -1.734007 -0.238424 6.463441 0
M  V30 22 I -2.202974 -0.632542 8.479145 0
M  V30 23 C -1.202367 -1.262594 5.709650 0
M  V30 24 C -0.865939 -1.096997 4.385360 0
M  V30 25 F -0.347502 -2.004047 3.529260 0
M  V30 26 O -4.471648 0.658850 -0.820413 0
M  V30 27 C -4.511536 0.381759 -2.188464 0
M  V30 28 C -3.364142 -0.552490 -2.457871 0
M  V30 29 H 1.161902 -1.957938 -1.338348 0
M  V30 30 H 3.309070 -0.958320 -1.967135 0
M  V30 31 H 3.504318 -0.185372 -0.367798 0
M  V30 32 H 5.034340 -2.587192 -1.482352 0
M  V30 33 H 6.400427 -1.761420 0.470841 0
M  V30 34 H 5.652165 -0.594445 -2.637420 0
M  V30 35 H 6.115070 0.257644 -1.073407 0
M  V30 36 H 7.278519 -2.105960 -2.188245 0
M  V30 37 H -0.707880 -1.332301 -1.757354 0
M  V30 38 H -0.212310 1.431796 2.264777 0
M  V30 39 H -1.823863 2.199415 4.234089 0
M  V30 40 H -2.351704 1.735722 6.522654 0
M  V30 41 H -1.018163 -2.240283 6.096675 0
M  V30 42 H -4.342702 1.323995 -2.741721 0
M  V30 43 H -5.497211 -0.074965 -2.481595 0
M  V30 44 H -2.814422 -0.231319 -3.367038 0
M  V30 45 H -3.708434 -1.601717 -2.515939 0
M  V30 END ATOM
M  V30 BEGIN BOND
M  V30 1 2 1 2
M  V30 2 1 2 3
M  V30 3 1 3 4
M  V30 4 1 4 5
M  V30 5 1 5 6
M  V30 6 1 6 7
M  V30 7 1 6 8
M  V30 8 1 8 9
M  V30 9 1 2 10
M  V30 10 2 10 11
M  V30 11 1 11 12
M  V30 12 2 12 13
M  V30 13 1 13 14
M  V30 14 1 14 15
M  V30 15 2 14 16
M  V30 16 1 16 17
M  V30 17 1 17 18
M  V30 18 2 18 19
M  V30 19 1 19 20
M  V30 20 2 20 21
M  V30 21 1 21 22
M  V30 22 1 21 23
M  V30 23 2 23 24
M  V30 24 1 24 25
M  V30 25 1 13 26
M  V30 26 1 26 27
M  V30 27 1 27 28
M  V30 28 1 16 10
M  V30 29 1 24 18
M  V30 30 1 28 12
M  V30 31 1 3 29
M  V30 32 1 5 30
M  V30 33 1 5 31
M  V30 34 1 6 32 CFG=3
M  V30 35 1 7 33
M  V30 36 1 8 34
M  V30 37 1 8 35
M  V30 38 1 9 36
M  V30 39 1 11 37
M  V30 40 1 17 38
M  V30 41 1 19 39
M  V30 42 1 20 40
M  V30 43 1 23 41
M  V30 44 1 27 42
M  V30 45 1 27 43
M  V30 46 1 28 44
M  V30 47 1 28 45
M  V30 END BOND
M  V30 END CTAB
M  END
>  <Dataset>  (961) 
ChEMBL_Kinases

>  <Ligand_Instance>  (961) 
nan

>  <PDB_ID>  (961) 
nan

>  <Standardized_SMILES>  (961) 
O=C(NOC[C@H](O)CO)c1cc2c(c(F)c1Nc1ccc(I)cc1F)OCC2

>  <Name>  (961) 
nan

>  <Pocket>  (961) 
nan

>  <ATP_Site>  (961) 
nan

>  <Peripheral>  (961) 
nan

>  <Num_H_Atoms_ProtBoundConf>  (961) 
nan

>  <Num_Resolved_Atoms>  (961) 
nan

>  <Num_Not_Resolved_Atoms>  (961) 
nan

$$$$
CHEMBL4225400
     RDKit          3D

  0  0  0  0  0  0  0  0  0  0999 V3000
M  V30 BEGIN CTAB
M  V30 COUNTS 42 44 0 0 0
M  V30 BEGIN ATOM
M  V30 1 O -0.001800 -1.244937 -0.010284 0
M  V30 2 C 0.853394 -0.422552 0.397827 0
M  V30 3 N 2.072095 -0.181682 -0.294384 0
M  V30 4 O 2.491506 -0.762856 -1.441077 0
M  V30 5 C 2.054410 -0.012227 -2.549871 0
M  V30 6 C 2.517272 -0.652621 -3.852556 0
M  V30 7 C 2.030209 0.180772 -5.038350 0
M  V30 8 O 2.440071 -0.382402 -6.255882 0
M  V30 9 C 0.531866 0.282379 1.631810 0
M  V30 10 C 1.341578 1.220478 2.236322 0
M  V30 11 C 1.007378 1.869785 3.404856 0
M  V30 12 C 1.676319 2.823438 4.148689 0
M  V30 13 C 0.833537 3.089759 5.219690 0
M  V30 14 O -0.237919 2.347338 5.102344 0
M  V30 15 C -0.195552 1.592263 4.033790 0
M  V30 16 C -1.024489 0.656152 3.448113 0
M  V30 17 F -2.193808 0.400718 4.079052 0
M  V30 18 C -0.665266 0.008744 2.261195 0
M  V30 19 N -1.621416 -0.928855 1.780107 0
M  V30 20 C -1.575008 -2.283986 2.172883 0
M  V30 21 C -0.572070 -2.670242 3.038874 0
M  V30 22 C -0.563482 -4.006664 3.397894 0
M  V30 23 C -1.499940 -4.884557 2.915968 0
M  V30 24 I -1.537091 -6.910795 3.422067 0
M  V30 25 C -2.477686 -4.452426 2.057068 0
M  V30 26 C -2.538986 -3.133896 1.662607 0
M  V30 27 F -3.497942 -2.654386 0.805531 0
M  V30 28 H 2.780006 0.503979 0.050152 0
M  V30 29 H 0.956395 -0.000732 -2.495428 0
M  V30 30 H 2.447587 1.007004 -2.527184 0
M  V30 31 H 2.028630 -1.646214 -3.956825 0
M  V30 32 H 3.612048 -0.709793 -3.898285 0
M  V30 33 H 0.920754 0.093551 -5.033673 0
M  V30 34 H 2.306114 1.234218 -4.934272 0
M  V30 35 H 2.434393 0.373552 -6.917069 0
M  V30 36 H 2.271024 1.456537 1.779949 0
M  V30 37 H 2.658168 3.258602 3.920797 0
M  V30 38 H 1.043048 3.791500 6.004092 0
M  V30 39 H -2.336867 -0.530892 1.130126 0
M  V30 40 H 0.166943 -1.989471 3.422358 0
M  V30 41 H 0.184563 -4.421948 4.077348 0
M  V30 42 H -3.255095 -5.099178 1.635343 0
M  V30 END ATOM
M  V30 BEGIN BOND
M  V30 1 2 1 2
M  V30 2 1 2 3
M  V30 3 1 3 4
M  V30 4 1 4 5
M  V30 5 1 5 6
M  V30 6 1 6 7
M  V30 7 1 7 8
M  V30 8 1 2 9
M  V30 9 2 9 10
M  V30 10 1 10 11
M  V30 11 1 11 12
M  V30 12 2 12 13
M  V30 13 1 13 14
M  V30 14 1 14 15
M  V30 15 1 15 16
M  V30 16 1 16 17
M  V30 17 2 16 18
M  V30 18 1 18 19
M  V30 19 1 19 20
M  V30 20 2 20 21
M  V30 21 1 21 22
M  V30 22 2 22 23
M  V30 23 1 23 24
M  V30 24 1 23 25
M  V30 25 2 25 26
M  V30 26 1 26 27
M  V30 27 1 18 9
M  V30 28 1 26 20
M  V30 29 2 15 11
M  V30 30 1 3 28
M  V30 31 1 5 29
M  V30 32 1 5 30
M  V30 33 1 6 31
M  V30 34 1 6 32
M  V30 35 1 7 33
M  V30 36 1 7 34
M  V30 37 1 8 35
M  V30 38 1 10 36
M  V30 39 1 12 37
M  V30 40 1 13 38
M  V30 41 1 19 39
M  V30 42 1 21 40
M  V30 43 1 22 41
M  V30 44 1 25 42
M  V30 END BOND
M  V30 END CTAB
M  END
>  <Dataset>  (962) 
ChEMBL_Kinases

>  <Ligand_Instance>  (962) 
nan

>  <PDB_ID>  (962) 
nan

>  <Standardized_SMILES>  (962) 
O=C(NOCCCO)c1cc2ccoc2c(F)c1Nc1ccc(I)cc1F

>  <Name>  (962) 
nan

>  <Pocket>  (962) 
nan

>  <ATP_Site>  (962) 
nan

>  <Peripheral>  (962) 
nan

>  <Num_H_Atoms_ProtBoundConf>  (962) 
nan

>  <Num_Resolved_Atoms>  (962) 
nan

>  <Num_Not_Resolved_Atoms>  (962) 
nan

$$$$
CHEMBL4225054
     RDKit          3D

  0  0  0  0  0  0  0  0  0  0999 V3000
M  V30 BEGIN CTAB
M  V30 COUNTS 81 87 0 0 0
M  V30 BEGIN ATOM
M  V30 1 O -2.420348 -2.776301 -1.554986 0
M  V30 2 C -1.661199 -2.307069 -2.463582 0
M  V30 3 C -0.611411 -3.290558 -2.712519 0
M  V30 4 N 0.345123 -2.869583 -3.736448 0
M  V30 5 C 1.323460 -3.891497 -3.943144 0
M  V30 6 C 2.436190 -3.633084 -2.953627 0
M  V30 7 C 2.303073 -2.192919 -2.543089 0
M  V30 8 C 3.468276 -1.382994 -3.093480 0
M  V30 9 F 3.400658 -0.049694 -2.748729 0
M  V30 10 C 2.203203 -2.051074 -1.067673 0
M  V30 11 O 2.236180 -3.067934 -0.292597 0
M  V30 12 N 2.067309 -0.842117 -0.379843 0
M  V30 13 C 2.001943 -1.102598 1.038577 0
M  V30 14 C 3.054222 -1.171721 1.903159 0
M  V30 15 C 2.829136 -1.430268 3.242145 0
M  V30 16 C 1.565232 -1.626346 3.760089 0
M  V30 17 N 1.041533 -1.883008 4.955279 0
M  V30 18 N -0.270847 -1.967569 4.831373 0
M  V30 19 C -0.658677 -1.771054 3.557842 0
M  V30 20 C -2.046218 -1.802760 3.108823 0
M  V30 21 C -3.024506 -1.141741 3.843661 0
M  V30 22 C -4.344315 -1.137658 3.468759 0
M  V30 23 C -4.734600 -1.803155 2.331832 0
M  V30 24 F -6.032516 -1.830354 1.915274 0
M  V30 25 C -3.796555 -2.477457 1.564944 0
M  V30 26 C -2.475819 -2.466391 1.963404 0
M  V30 27 C 0.521175 -1.548268 2.849601 0
M  V30 28 C 0.689042 -1.289983 1.485798 0
M  V30 29 C 1.056794 -1.741170 -3.222811 0
M  V30 30 N -2.201166 -1.035144 -2.808806 0
M  V30 31 C -3.386668 -0.644436 -2.074165 0
M  V30 32 C -3.294414 0.723010 -1.455354 0
M  V30 33 N -1.971910 1.285569 -1.561440 0
M  V30 34 C -1.091932 1.675532 -0.535565 0
M  V30 35 C 0.142002 2.242084 -0.748430 0
M  V30 36 C 0.978895 2.609186 0.276982 0
M  V30 37 C 0.629641 2.430281 1.599374 0
M  V30 38 C 1.561828 2.840039 2.636852 0
M  V30 39 N 2.750879 3.387200 2.326579 0
M  V30 40 C 3.662890 3.789299 3.229848 0
M  V30 41 C 3.361793 3.631311 4.571360 0
M  V30 42 C 2.132857 3.065411 4.917063 0
M  V30 43 N 1.275530 2.689366 3.941999 0
M  V30 44 C -0.587254 1.871327 1.832387 0
M  V30 45 C -1.416489 1.507917 0.791802 0
M  V30 46 C -1.688531 1.382165 -2.970880 0
M  V30 47 C -1.967492 0.096524 -3.709563 0
M  V30 48 H -0.034139 -3.435000 -1.787592 0
M  V30 49 H -1.072054 -4.267421 -2.986634 0
M  V30 50 H 1.710686 -3.897334 -4.990052 0
M  V30 51 H 0.937152 -4.909549 -3.705280 0
M  V30 52 H 2.422757 -4.335938 -2.101673 0
M  V30 53 H 3.439330 -3.775259 -3.434431 0
M  V30 54 H 3.482410 -1.404267 -4.201734 0
M  V30 55 H 4.461519 -1.822797 -2.783203 0
M  V30 56 H 2.029859 0.049683 -0.919791 0
M  V30 57 H 4.031427 -1.015129 1.474584 0
M  V30 58 H 3.691235 -1.481133 3.917559 0
M  V30 59 H 1.601214 -1.998056 5.851919 0
M  V30 60 H -2.794629 -0.589046 4.760379 0
M  V30 61 H -5.151618 -0.646166 3.991903 0
M  V30 62 H -4.096999 -3.000939 0.672628 0
M  V30 63 H -1.735095 -2.992608 1.367751 0
M  V30 64 H -0.178174 -1.244926 0.840160 0
M  V30 65 H 1.279213 -0.973384 -3.995184 0
M  V30 66 H 0.414651 -1.236311 -2.448632 0
M  V30 67 H -4.233264 -0.638148 -2.820349 0
M  V30 68 H -3.677523 -1.363784 -1.277534 0
M  V30 69 H -3.591227 0.727128 -0.387979 0
M  V30 70 H -4.003432 1.423269 -1.985857 0
M  V30 71 H 0.506736 2.423546 -1.734797 0
M  V30 72 H 1.945979 3.053723 0.068057 0
M  V30 73 H 4.553633 4.202604 2.773727 0
M  V30 74 H 4.137099 3.974596 5.244895 0
M  V30 75 H 1.947713 2.964539 5.981075 0
M  V30 76 H -0.848455 1.736586 2.887908 0
M  V30 77 H -2.344759 1.078303 1.137928 0
M  V30 78 H -0.704107 1.802235 -3.201998 0
M  V30 79 H -2.425157 2.129325 -3.392861 0
M  V30 80 H -1.076605 -0.133644 -4.328619 0
M  V30 81 H -2.820896 0.168054 -4.423174 0
M  V30 END ATOM
M  V30 BEGIN BOND
M  V30 1 2 1 2
M  V30 2 1 2 3
M  V30 3 1 3 4
M  V30 4 1 4 5
M  V30 5 1 5 6
M  V30 6 1 6 7
M  V30 7 1 7 8
M  V30 8 1 8 9
M  V30 9 1 7 10
M  V30 10 2 10 11
M  V30 11 1 10 12
M  V30 12 1 12 13
M  V30 13 2 13 14
M  V30 14 1 14 15
M  V30 15 2 15 16
M  V30 16 1 16 17
M  V30 17 1 17 18
M  V30 18 2 18 19
M  V30 19 1 19 20
M  V30 20 2 20 21
M  V30 21 1 21 22
M  V30 22 2 22 23
M  V30 23 1 23 24
M  V30 24 1 23 25
M  V30 25 2 25 26
M  V30 26 1 19 27
M  V30 27 2 27 28
M  V30 28 1 7 29
M  V30 29 1 2 30
M  V30 30 1 30 31
M  V30 31 1 31 32
M  V30 32 1 32 33
M  V30 33 1 33 34
M  V30 34 2 34 35
M  V30 35 1 35 36
M  V30 36 2 36 37
M  V30 37 1 37 38
M  V30 38 2 38 39
M  V30 39 1 39 40
M  V30 40 2 40 41
M  V30 41 1 41 42
M  V30 42 2 42 43
M  V30 43 1 37 44
M  V30 44 2 44 45
M  V30 45 1 33 46
M  V30 46 1 46 47
M  V30 47 1 29 4
M  V30 48 1 47 30
M  V30 49 1 28 13
M  V30 50 1 45 34
M  V30 51 1 27 16
M  V30 52 1 43 38
M  V30 53 1 26 20
M  V30 54 1 3 48
M  V30 55 1 3 49
M  V30 56 1 5 50
M  V30 57 1 5 51
M  V30 58 1 6 52
M  V30 59 1 6 53
M  V30 60 1 8 54
M  V30 61 1 8 55
M  V30 62 1 12 56
M  V30 63 1 14 57
M  V30 64 1 15 58
M  V30 65 1 17 59
M  V30 66 1 21 60
M  V30 67 1 22 61
M  V30 68 1 25 62
M  V30 69 1 26 63
M  V30 70 1 28 64
M  V30 71 1 29 65
M  V30 72 1 29 66
M  V30 73 1 31 67
M  V30 74 1 31 68
M  V30 75 1 32 69
M  V30 76 1 32 70
M  V30 77 1 35 71
M  V30 78 1 36 72
M  V30 79 1 40 73
M  V30 80 1 41 74
M  V30 81 1 42 75
M  V30 82 1 44 76
M  V30 83 1 45 77
M  V30 84 1 46 78
M  V30 85 1 46 79
M  V30 86 1 47 80
M  V30 87 1 47 81
M  V30 END BOND
M  V30 END CTAB
M  END
>  <Dataset>  (963) 
ChEMBL_Kinases

>  <Ligand_Instance>  (963) 
nan

>  <PDB_ID>  (963) 
nan

>  <Standardized_SMILES>  (963) 
O=C(CN1CCC(CF)(C(=O)Nc2ccc3[nH]nc(-c4ccc(F)cc4)c3c2)C1)N1CCN(c2ccc(-c3ncccn3)cc2)CC1

>  <Name>  (963) 
nan

>  <Pocket>  (963) 
nan

>  <ATP_Site>  (963) 
nan

>  <Peripheral>  (963) 
nan

>  <Num_H_Atoms_ProtBoundConf>  (963) 
nan

>  <Num_Resolved_Atoms>  (963) 
nan

>  <Num_Not_Resolved_Atoms>  (963) 
nan

$$$$
CHEMBL4225385
     RDKit          3D

  0  0  0  0  0  0  0  0  0  0999 V3000
M  V30 BEGIN CTAB
M  V30 COUNTS 43 47 0 0 0
M  V30 BEGIN ATOM
M  V30 1 C 2.179672 -2.697858 2.826010 0
M  V30 2 C 2.073573 -1.346038 2.209458 0
M  V30 3 C 2.753411 -0.954015 1.087322 0
M  V30 4 N 2.717756 0.216585 0.476101 0
M  V30 5 C 3.330712 0.705082 -0.608849 0
M  V30 6 C 4.280235 0.109348 -1.527717 0
M  V30 7 C 4.912834 -1.093688 -1.691197 0
M  V30 8 N 5.717915 -1.068942 -2.761687 0
M  V30 9 N 5.658734 0.119989 -3.343125 0
M  V30 10 C 4.793626 0.835324 -2.604495 0
M  V30 11 C 2.839063 2.008209 -0.687982 0
M  V30 12 N 1.983751 2.220973 0.324964 0
M  V30 13 C 1.891429 1.116746 1.065683 0
M  V30 14 C 1.160018 0.828283 2.197803 0
M  V30 15 N 0.300962 1.846789 2.755030 0
M  V30 16 C -1.018439 1.583155 2.123269 0
M  V30 17 C -1.919858 0.804452 2.701603 0
M  V30 18 C -3.032215 0.730397 1.910052 0
M  V30 19 C -4.286466 -0.055077 2.203090 0
M  V30 20 C -4.114241 -1.406328 1.625281 0
M  V30 21 C -3.518395 -2.409809 2.394369 0
M  V30 22 N -3.309285 -3.688720 1.968317 0
M  V30 23 C -3.699763 -4.012784 0.726721 0
M  V30 24 C -4.292515 -3.044938 -0.060909 0
M  V30 25 N -4.491156 -1.782018 0.379699 0
M  V30 26 N -3.218559 1.397668 0.623909 0
M  V30 27 S -1.556049 2.212286 0.613564 0
M  V30 28 N 1.253250 -0.408277 2.769838 0
M  V30 29 H 2.136772 -2.563116 3.921049 0
M  V30 30 H 3.147544 -3.170361 2.562708 0
M  V30 31 H 1.312872 -3.341913 2.502910 0
M  V30 32 H 3.380398 -1.729750 0.692063 0
M  V30 33 H 4.780062 -1.938379 -1.048811 0
M  V30 34 H 6.197046 0.381110 -4.194313 0
M  V30 35 H 4.597408 1.854371 -2.911712 0
M  V30 36 H 3.052822 2.777850 -1.401779 0
M  V30 37 H 0.706033 2.522086 3.431776 0
M  V30 38 H -1.891848 0.271080 3.627160 0
M  V30 39 H -4.302150 -0.176552 3.321101 0
M  V30 40 H -5.205593 0.457558 1.932597 0
M  V30 41 H -3.194611 -2.170291 3.396908 0
M  V30 42 H -3.524092 -5.025943 0.415992 0
M  V30 43 H -4.607696 -3.293924 -1.054979 0
M  V30 END ATOM
M  V30 BEGIN BOND
M  V30 1 1 1 2
M  V30 2 2 2 3
M  V30 3 1 3 4
M  V30 4 1 4 5
M  V30 5 1 5 6
M  V30 6 1 6 7
M  V30 7 2 7 8
M  V30 8 1 8 9
M  V30 9 1 9 10
M  V30 10 2 5 11
M  V30 11 1 11 12
M  V30 12 2 12 13
M  V30 13 1 13 14
M  V30 14 1 14 15
M  V30 15 1 15 16
M  V30 16 2 16 17
M  V30 17 1 17 18
M  V30 18 1 18 19
M  V30 19 1 19 20
M  V30 20 2 20 21
M  V30 21 1 21 22
M  V30 22 2 22 23
M  V30 23 1 23 24
M  V30 24 2 24 25
M  V30 25 2 18 26
M  V30 26 1 26 27
M  V30 27 2 14 28
M  V30 28 1 28 2
M  V30 29 1 13 4
M  V30 30 1 27 16
M  V30 31 2 10 6
M  V30 32 1 25 20
M  V30 33 1 1 29
M  V30 34 1 1 30
M  V30 35 1 1 31
M  V30 36 1 3 32
M  V30 37 1 7 33
M  V30 38 1 9 34
M  V30 39 1 10 35
M  V30 40 1 11 36
M  V30 41 1 15 37
M  V30 42 1 17 38
M  V30 43 1 19 39
M  V30 44 1 19 40
M  V30 45 1 21 41
M  V30 46 1 23 42
M  V30 47 1 24 43
M  V30 END BOND
M  V30 END CTAB
M  END
>  <Dataset>  (964) 
ChEMBL_Kinases

>  <Ligand_Instance>  (964) 
nan

>  <PDB_ID>  (964) 
nan

>  <Standardized_SMILES>  (964) 
Cc1cn2c(-c3cn[nH]c3)cnc2c(Nc2cc(Cc3cnccn3)ns2)n1

>  <Name>  (964) 
nan

>  <Pocket>  (964) 
nan

>  <ATP_Site>  (964) 
nan

>  <Peripheral>  (964) 
nan

>  <Num_H_Atoms_ProtBoundConf>  (964) 
nan

>  <Num_Resolved_Atoms>  (964) 
nan

>  <Num_Not_Resolved_Atoms>  (964) 
nan

$$$$
CHEMBL4225378
     RDKit          3D

  0  0  0  0  0  0  0  0  0  0999 V3000
M  V30 BEGIN CTAB
M  V30 COUNTS 52 54 0 0 0
M  V30 BEGIN ATOM
M  V30 1 C 1.459174 -3.128545 3.625291 0
M  V30 2 C 2.315582 -1.923871 3.803628 0
M  V30 3 O 2.149881 -1.096624 4.762403 0
M  V30 4 N 3.386083 -1.587358 2.932409 0
M  V30 5 C 4.026197 -0.361556 3.377099 0
M  V30 6 C 5.167606 0.015493 2.486255 0
M  V30 7 C 4.842046 0.259668 1.054112 0
M  V30 8 N 3.907478 1.328436 0.794177 0
M  V30 9 C 2.522531 1.594986 0.948895 0
M  V30 10 C 1.962258 2.848564 0.650026 0
M  V30 11 N 0.643057 2.960444 0.815823 0
M  V30 12 C -0.162028 1.980543 1.238357 0
M  V30 13 C 0.379469 0.749498 1.533297 0
M  V30 14 N -0.590379 -0.195493 1.963231 0
M  V30 15 N -0.804617 -0.798540 3.120857 0
M  V30 16 C -1.883509 -1.628414 3.013140 0
M  V30 17 C -2.355928 -1.523124 1.704525 0
M  V30 18 C -3.410285 -2.132093 1.057884 0
M  V30 19 C -3.673917 -1.843679 -0.286171 0
M  V30 20 C -2.851707 -0.943434 -0.923396 0
M  V30 21 N -3.070322 -0.612766 -2.293531 0
M  V30 22 C -4.100898 -1.149090 -3.158508 0
M  V30 23 C -4.109424 -0.511359 -4.535171 0
M  V30 24 C -3.927979 -2.649719 -3.259060 0
M  V30 25 C -1.802728 -0.342259 -0.268795 0
M  V30 26 C -1.526851 -0.616416 1.063543 0
M  V30 27 N 1.706025 0.644194 1.364345 0
M  V30 28 H 1.946520 -4.052168 3.973872 0
M  V30 29 H 1.218044 -3.285813 2.543209 0
M  V30 30 H 0.543446 -3.007777 4.239298 0
M  V30 31 H 3.576307 -2.217156 2.127064 0
M  V30 32 H 3.302990 0.430301 3.591703 0
M  V30 33 H 4.513597 -0.622323 4.375566 0
M  V30 34 H 5.855031 -0.885253 2.489578 0
M  V30 35 H 5.802355 0.815802 2.933915 0
M  V30 36 H 5.751838 0.354360 0.431602 0
M  V30 37 H 4.398288 -0.732810 0.688443 0
M  V30 38 H 4.420818 2.159518 0.360124 0
M  V30 39 H 2.602089 3.649668 0.307641 0
M  V30 40 H -1.208569 2.240258 1.318585 0
M  V30 41 H -2.279291 -2.245044 3.812978 0
M  V30 42 H -4.042132 -2.845087 1.606245 0
M  V30 43 H -4.501834 -2.333833 -0.751349 0
M  V30 44 H -2.438126 0.093074 -2.768901 0
M  V30 45 H -5.061940 -0.922842 -2.679424 0
M  V30 46 H -4.475407 -1.300845 -5.222293 0
M  V30 47 H -4.826357 0.306954 -4.540942 0
M  V30 48 H -3.071912 -0.198719 -4.776299 0
M  V30 49 H -4.856916 -3.155474 -2.948623 0
M  V30 50 H -3.703907 -2.878839 -4.322474 0
M  V30 51 H -3.111447 -2.950495 -2.596466 0
M  V30 52 H -1.185961 0.350512 -0.794028 0
M  V30 END ATOM
M  V30 BEGIN BOND
M  V30 1 1 1 2
M  V30 2 2 2 3
M  V30 3 1 2 4
M  V30 4 1 4 5
M  V30 5 1 5 6
M  V30 6 1 6 7
M  V30 7 1 7 8
M  V30 8 1 8 9
M  V30 9 2 9 10
M  V30 10 1 10 11
M  V30 11 2 11 12
M  V30 12 1 12 13
M  V30 13 1 13 14
M  V30 14 1 14 15
M  V30 15 2 15 16
M  V30 16 1 16 17
M  V30 17 2 17 18
M  V30 18 1 18 19
M  V30 19 2 19 20
M  V30 20 1 20 21
M  V30 21 1 21 22
M  V30 22 1 22 23
M  V30 23 1 22 24
M  V30 24 1 20 25
M  V30 25 2 25 26
M  V30 26 2 13 27
M  V30 27 1 27 9
M  V30 28 1 26 14
M  V30 29 1 26 17
M  V30 30 1 1 28
M  V30 31 1 1 29
M  V30 32 1 1 30
M  V30 33 1 4 31
M  V30 34 1 5 32
M  V30 35 1 5 33
M  V30 36 1 6 34
M  V30 37 1 6 35
M  V30 38 1 7 36
M  V30 39 1 7 37
M  V30 40 1 8 38
M  V30 41 1 10 39
M  V30 42 1 12 40
M  V30 43 1 16 41
M  V30 44 1 18 42
M  V30 45 1 19 43
M  V30 46 1 21 44
M  V30 47 1 22 45
M  V30 48 1 23 46
M  V30 49 1 23 47
M  V30 50 1 23 48
M  V30 51 1 24 49
M  V30 52 1 24 50
M  V30 53 1 24 51
M  V30 54 1 25 52
M  V30 END BOND
M  V30 END CTAB
M  END
>  <Dataset>  (965) 
ChEMBL_Kinases

>  <Ligand_Instance>  (965) 
nan

>  <PDB_ID>  (965) 
nan

>  <Standardized_SMILES>  (965) 
CC(=O)NCCCNc1cncc(-n2ncc3ccc(NC(C)C)cc32)n1

>  <Name>  (965) 
nan

>  <Pocket>  (965) 
nan

>  <ATP_Site>  (965) 
nan

>  <Peripheral>  (965) 
nan

>  <Num_H_Atoms_ProtBoundConf>  (965) 
nan

>  <Num_Resolved_Atoms>  (965) 
nan

>  <Num_Not_Resolved_Atoms>  (965) 
nan

$$$$
CHEMBL4776402
     RDKit          3D

  0  0  0  0  0  0  0  0  0  0999 V3000
M  V30 BEGIN CTAB
M  V30 COUNTS 46 49 0 0 0
M  V30 BEGIN ATOM
M  V30 1 N -0.214006 -3.053049 -0.808233 0
M  V30 2 C 1.093886 -2.543798 -0.831918 0
M  V30 3 C 2.142713 -3.458465 -0.679092 0
M  V30 4 C 1.866804 -4.807030 -0.513684 0
M  V30 5 C 2.928100 -5.704285 -0.360389 0
M  V30 6 N 4.198299 -5.253807 -0.375124 0
M  V30 7 C 4.481830 -3.945241 -0.535008 0
M  V30 8 C 3.453671 -3.019653 -0.690050 0
M  V30 9 C 3.747461 -1.681372 -0.850793 0
M  V30 10 C 2.713640 -0.779776 -1.000907 0
M  V30 11 C 2.913822 0.573124 -1.161186 0
M  V30 12 N 1.896839 1.469252 -1.306051 0
M  V30 13 C 0.613962 0.992088 -1.290753 0
M  V30 14 N -0.279218 2.068258 -1.441706 0
M  V30 15 C -0.975996 2.169558 -0.208691 0
M  V30 16 C -0.151178 2.307679 1.035730 0
M  V30 17 C -1.020358 2.416962 2.233493 0
M  V30 18 N -1.902959 1.375305 2.523893 0
M  V30 19 C -1.424887 0.114485 2.943000 0
M  V30 20 C -2.553870 -0.598269 3.636591 0
M  V30 21 C -3.667766 0.403560 3.711977 0
M  V30 22 C -2.977609 1.723146 3.447277 0
M  V30 23 N 0.389286 -0.338723 -1.133692 0
M  V30 24 C 1.404336 -1.211034 -0.991191 0
M  V30 25 H -0.393504 -3.426751 0.127417 0
M  V30 26 H -0.999377 -3.124650 -1.514501 0
M  V30 27 H 0.828725 -5.137873 -0.505433 0
M  V30 28 H 2.708905 -6.771364 -0.231076 0
M  V30 29 H 5.495411 -3.556850 -0.551233 0
M  V30 30 H 4.755723 -1.288557 -0.865224 0
M  V30 31 H 3.968299 0.870869 -1.162813 0
M  V30 32 H -0.320867 2.602474 -2.338641 0
M  V30 33 H -1.644879 3.077157 -0.305505 0
M  V30 34 H -1.678098 1.321299 -0.115562 0
M  V30 35 H 0.432383 3.251837 0.946456 0
M  V30 36 H 0.594139 1.499209 1.158419 0
M  V30 37 H -1.629835 3.359390 2.102655 0
M  V30 38 H -0.394384 2.611334 3.154600 0
M  V30 39 H -0.585852 0.320502 3.682700 0
M  V30 40 H -1.066750 -0.572588 2.147092 0
M  V30 41 H -2.874391 -1.520422 3.064091 0
M  V30 42 H -2.290435 -0.881923 4.682655 0
M  V30 43 H -4.206369 0.385087 4.686877 0
M  V30 44 H -4.400980 0.216455 2.867388 0
M  V30 45 H -3.626548 2.523152 3.083113 0
M  V30 46 H -2.459820 1.976829 4.420933 0
M  V30 END ATOM
M  V30 BEGIN BOND
M  V30 1 1 1 2
M  V30 2 2 2 3
M  V30 3 1 3 4
M  V30 4 2 4 5
M  V30 5 1 5 6
M  V30 6 2 6 7
M  V30 7 1 7 8
M  V30 8 2 8 9
M  V30 9 1 9 10
M  V30 10 2 10 11
M  V30 11 1 11 12
M  V30 12 2 12 13
M  V30 13 1 13 14
M  V30 14 1 14 15
M  V30 15 1 15 16
M  V30 16 1 16 17
M  V30 17 1 17 18
M  V30 18 1 18 19
M  V30 19 1 19 20
M  V30 20 1 20 21
M  V30 21 1 21 22
M  V30 22 1 13 23
M  V30 23 2 23 24
M  V30 24 1 24 2
M  V30 25 1 8 3
M  V30 26 1 24 10
M  V30 27 1 22 18
M  V30 28 1 1 25
M  V30 29 1 1 26
M  V30 30 1 4 27
M  V30 31 1 5 28
M  V30 32 1 7 29
M  V30 33 1 9 30
M  V30 34 1 11 31
M  V30 35 1 14 32
M  V30 36 1 15 33
M  V30 37 1 15 34
M  V30 38 1 16 35
M  V30 39 1 16 36
M  V30 40 1 17 37
M  V30 41 1 17 38
M  V30 42 1 19 39
M  V30 43 1 19 40
M  V30 44 1 20 41
M  V30 45 1 20 42
M  V30 46 1 21 43
M  V30 47 1 21 44
M  V30 48 1 22 45
M  V30 49 1 22 46
M  V30 END BOND
M  V30 END CTAB
M  END
>  <Dataset>  (966) 
ChEMBL_Kinases

>  <Ligand_Instance>  (966) 
nan

>  <PDB_ID>  (966) 
nan

>  <Standardized_SMILES>  (966) 
Nc1c2ccncc2cc2cnc(NCCCN3CCCC3)nc12

>  <Name>  (966) 
nan

>  <Pocket>  (966) 
nan

>  <ATP_Site>  (966) 
nan

>  <Peripheral>  (966) 
nan

>  <Num_H_Atoms_ProtBoundConf>  (966) 
nan

>  <Num_Resolved_Atoms>  (966) 
nan

>  <Num_Not_Resolved_Atoms>  (966) 
nan

$$$$
CHEMBL4225310
     RDKit          3D

  0  0  0  0  0  0  0  0  0  0999 V3000
M  V30 BEGIN CTAB
M  V30 COUNTS 78 82 0 0 0
M  V30 BEGIN ATOM
M  V30 1 C 3.650224 -0.098309 2.454669 0
M  V30 2 C 2.720423 -0.712172 3.435033 0
M  V30 3 C 1.533604 -0.229051 3.731336 0
M  V30 4 C 1.134760 1.010080 3.026894 0
M  V30 5 O 1.859174 1.595328 2.181995 0
M  V30 6 N -0.111593 1.687948 3.219322 0
M  V30 7 C -0.195741 2.840979 2.397861 0
M  V30 8 C -0.752256 2.581364 1.153001 0
M  V30 9 C -0.903247 3.599207 0.234943 0
M  V30 10 C -0.497649 4.872886 0.563931 0
M  V30 11 N -0.492071 6.068456 -0.060124 0
M  V30 12 N 0.023520 6.986563 0.733716 0
M  V30 13 C 0.387951 6.465747 1.918334 0
M  V30 14 C 0.052967 5.124578 1.799405 0
M  V30 15 C 0.213970 4.111166 2.739997 0
M  V30 16 C 0.531281 -0.797117 4.657203 0
M  V30 17 C -0.627777 -1.369764 3.889838 0
M  V30 18 C -1.598567 -2.085726 4.599081 0
M  V30 19 C -2.683697 -2.647112 3.948098 0
M  V30 20 C -2.844433 -2.519421 2.578927 0
M  V30 21 F -3.889278 -3.048267 1.876830 0
M  V30 22 C -1.912832 -1.822895 1.838119 0
M  V30 23 C -1.938252 -1.600922 0.358476 0
M  V30 24 C -1.470348 -2.867596 -0.251289 0
M  V30 25 O -2.123158 -3.937137 -0.190999 0
M  V30 26 N -0.248270 -3.043447 -0.969021 0
M  V30 27 C -0.109078 -4.394142 -1.470876 0
M  V30 28 C -0.930192 -4.540428 -2.699949 0
M  V30 29 C -0.694713 -3.563776 -3.791574 0
M  V30 30 C -0.316820 -2.186346 -3.388095 0
M  V30 31 C -0.434305 -1.261566 -4.577690 0
M  V30 32 C -0.045072 0.172759 -4.184558 0
M  V30 33 C 0.459629 -1.644762 -5.714233 0
M  V30 34 C -1.857164 -1.188918 -5.077691 0
M  V30 35 C 1.022951 -2.062160 -2.713441 0
M  V30 36 C 0.791829 -2.034923 -1.194750 0
M  V30 37 C -0.858779 -1.289225 2.538309 0
M  V30 38 N 1.062220 -1.919620 5.423971 0
M  V30 39 C 2.335182 -2.508100 5.152963 0
M  V30 40 O 2.709078 -3.533861 5.778354 0
M  V30 41 N 3.135466 -1.887584 4.164010 0
M  V30 42 H 4.580053 -0.720732 2.406329 0
M  V30 43 H 4.009008 0.912740 2.759887 0
M  V30 44 H 3.254113 -0.120596 1.419400 0
M  V30 45 H -0.783987 1.263300 3.918212 0
M  V30 46 H -1.115363 1.628487 0.763972 0
M  V30 47 H -1.322217 3.517176 -0.760461 0
M  V30 48 H -0.860008 6.204667 -1.047607 0
M  V30 49 H 0.841806 6.977986 2.773128 0
M  V30 50 H 0.636005 4.210323 3.736533 0
M  V30 51 H 0.200531 -0.052725 5.412655 0
M  V30 52 H -1.548310 -2.231619 5.677402 0
M  V30 53 H -3.446004 -3.207714 4.498341 0
M  V30 54 H -2.981794 -1.389623 0.014677 0
M  V30 55 H -1.258884 -0.780946 0.124027 0
M  V30 56 H -0.522895 -5.086058 -0.708715 0
M  V30 57 H 0.947273 -4.691945 -1.636996 0
M  V30 58 H -0.673117 -5.556085 -3.125966 0
M  V30 59 H -2.002437 -4.656384 -2.408601 0
M  V30 60 H -0.026932 -3.971976 -4.599878 0
M  V30 61 H -1.686147 -3.458405 -4.324454 0
M  V30 62 H -1.091649 -1.828455 -2.665102 0
M  V30 63 H -0.528240 0.826741 -4.938178 0
M  V30 64 H -0.470403 0.461109 -3.200538 0
M  V30 65 H 1.032330 0.351993 -4.263031 0
M  V30 66 H 0.019029 -2.349722 -6.422684 0
M  V30 67 H 1.483920 -1.955837 -5.356348 0
M  V30 68 H 0.659373 -0.716046 -6.311532 0
M  V30 69 H -1.909896 -0.260602 -5.710775 0
M  V30 70 H -2.138812 -2.031839 -5.715938 0
M  V30 71 H -2.568648 -1.022873 -4.228677 0
M  V30 72 H 1.597879 -2.980663 -2.932299 0
M  V30 73 H 1.571446 -1.142710 -2.932537 0
M  V30 74 H 0.426503 -1.031917 -0.931849 0
M  V30 75 H 1.707317 -2.288627 -0.653780 0
M  V30 76 H -0.115437 -0.759122 1.977484 0
M  V30 77 H 0.439848 -2.257119 6.183247 0
M  V30 78 H 4.090665 -2.277365 3.922241 0
M  V30 END ATOM
M  V30 BEGIN BOND
M  V30 1 1 1 2
M  V30 2 2 2 3
M  V30 3 1 3 4
M  V30 4 2 4 5
M  V30 5 1 4 6
M  V30 6 1 6 7
M  V30 7 2 7 8
M  V30 8 1 8 9
M  V30 9 2 9 10
M  V30 10 1 10 11
M  V30 11 1 11 12
M  V30 12 2 12 13
M  V30 13 1 13 14
M  V30 14 2 14 15
M  V30 15 1 3 16
M  V30 16 1 16 17
M  V30 17 2 17 18
M  V30 18 1 18 19
M  V30 19 2 19 20
M  V30 20 1 20 21
M  V30 21 1 20 22
M  V30 22 1 22 23
M  V30 23 1 23 24
M  V30 24 2 24 25
M  V30 25 1 24 26
M  V30 26 1 26 27
M  V30 27 1 27 28
M  V30 28 1 28 29
M  V30 29 1 29 30
M  V30 30 1 30 31
M  V30 31 1 31 32
M  V30 32 1 31 33
M  V30 33 1 31 34
M  V30 34 1 30 35
M  V30 35 1 35 36
M  V30 36 2 22 37
M  V30 37 1 16 38
M  V30 38 1 38 39
M  V30 39 2 39 40
M  V30 40 1 39 41
M  V30 41 1 41 2
M  V30 42 1 15 7
M  V30 43 1 37 17
M  V30 44 1 14 10
M  V30 45 1 36 26
M  V30 46 1 1 42
M  V30 47 1 1 43
M  V30 48 1 1 44
M  V30 49 1 6 45
M  V30 50 1 8 46
M  V30 51 1 9 47
M  V30 52 1 11 48
M  V30 53 1 13 49
M  V30 54 1 15 50
M  V30 55 1 16 51
M  V30 56 1 18 52
M  V30 57 1 19 53
M  V30 58 1 23 54
M  V30 59 1 23 55
M  V30 60 1 27 56
M  V30 61 1 27 57
M  V30 62 1 28 58
M  V30 63 1 28 59
M  V30 64 1 29 60
M  V30 65 1 29 61
M  V30 66 1 30 62
M  V30 67 1 32 63
M  V30 68 1 32 64
M  V30 69 1 32 65
M  V30 70 1 33 66
M  V30 71 1 33 67
M  V30 72 1 33 68
M  V30 73 1 34 69
M  V30 74 1 34 70
M  V30 75 1 34 71
M  V30 76 1 35 72
M  V30 77 1 35 73
M  V30 78 1 36 74
M  V30 79 1 36 75
M  V30 80 1 37 76
M  V30 81 1 38 77
M  V30 82 1 41 78
M  V30 END BOND
M  V30 END CTAB
M  END
>  <Dataset>  (967) 
ChEMBL_Kinases

>  <Ligand_Instance>  (967) 
nan

>  <PDB_ID>  (967) 
nan

>  <Standardized_SMILES>  (967) 
CC1=C(C(=O)Nc2ccc3[nH]ncc3c2)C(c2ccc(F)c(CC(=O)N3CCCC(C(C)(C)C)CC3)c2)NC(=O)N1

>  <Name>  (967) 
nan

>  <Pocket>  (967) 
nan

>  <ATP_Site>  (967) 
nan

>  <Peripheral>  (967) 
nan

>  <Num_H_Atoms_ProtBoundConf>  (967) 
nan

>  <Num_Resolved_Atoms>  (967) 
nan

>  <Num_Not_Resolved_Atoms>  (967) 
nan

$$$$
CHEMBL4776438
     RDKit          3D

  0  0  0  0  0  0  0  0  0  0999 V3000
M  V30 BEGIN CTAB
M  V30 COUNTS 40 43 0 0 0
M  V30 BEGIN ATOM
M  V30 1 O -0.217366 -3.255689 0.228545 0
M  V30 2 C 0.746395 -2.516093 0.491569 0
M  V30 3 C 2.013878 -2.842544 0.048150 0
M  V30 4 C 2.184421 -4.014202 -0.696811 0
M  V30 5 C 3.490952 -4.289147 -1.116548 0
M  V30 6 F 3.670901 -5.428111 -1.843478 0
M  V30 7 C 4.596562 -3.505700 -0.854279 0
M  V30 8 C 4.383145 -2.346944 -0.108871 0
M  V30 9 C 3.113573 -2.054196 0.314543 0
M  V30 10 N 2.886458 -0.947262 1.031008 0
M  V30 11 C 3.704053 0.021289 1.461430 0
M  V30 12 S 5.278464 0.277930 1.312995 0
M  V30 13 N 2.974289 0.916694 2.146580 0
M  V30 14 N 1.699132 0.505409 2.143221 0
M  V30 15 C 1.648658 -0.644779 1.454137 0
M  V30 16 N 0.546824 -1.395481 1.211053 0
M  V30 17 C -0.769613 -0.993191 1.710343 0
M  V30 18 C -1.424746 -0.133430 0.669196 0
M  V30 19 N -2.728341 0.356799 0.984356 0
M  V30 20 C -3.159781 1.153267 -0.152704 0
M  V30 21 C -2.495879 2.482270 -0.259468 0
M  V30 22 O -2.564984 3.134804 0.936599 0
M  V30 23 C -3.233470 2.521260 1.952778 0
M  V30 24 C -2.792447 1.102416 2.215866 0
M  V30 25 H 1.378010 -4.682672 -0.947044 0
M  V30 26 H 5.560975 -3.823933 -1.234183 0
M  V30 27 H 5.272188 -1.776987 0.065549 0
M  V30 28 H 3.210213 1.811034 2.644359 0
M  V30 29 H -1.335651 -1.944422 1.818486 0
M  V30 30 H -0.614910 -0.506397 2.668623 0
M  V30 31 H -1.508987 -0.708605 -0.276708 0
M  V30 32 H -0.757350 0.729223 0.433421 0
M  V30 33 H -2.944871 0.607130 -1.093994 0
M  V30 34 H -4.276438 1.296852 -0.143950 0
M  V30 35 H -3.110048 3.083700 -0.985650 0
M  V30 36 H -1.475297 2.435105 -0.694960 0
M  V30 37 H -4.331399 2.613484 1.782818 0
M  V30 38 H -3.039556 3.116449 2.877024 0
M  V30 39 H -1.800073 1.153223 2.656237 0
M  V30 40 H -3.574403 0.642999 2.855593 0
M  V30 END ATOM
M  V30 BEGIN BOND
M  V30 1 2 1 2
M  V30 2 1 2 3
M  V30 3 2 3 4
M  V30 4 1 4 5
M  V30 5 1 5 6
M  V30 6 2 5 7
M  V30 7 1 7 8
M  V30 8 2 8 9
M  V30 9 1 9 10
M  V30 10 1 10 11
M  V30 11 2 11 12
M  V30 12 1 11 13
M  V30 13 1 13 14
M  V30 14 2 14 15
M  V30 15 1 15 16
M  V30 16 1 16 17
M  V30 17 1 17 18
M  V30 18 1 18 19
M  V30 19 1 19 20
M  V30 20 1 20 21
M  V30 21 1 21 22
M  V30 22 1 22 23
M  V30 23 1 23 24
M  V30 24 1 16 2
M  V30 25 1 24 19
M  V30 26 1 9 3
M  V30 27 1 15 10
M  V30 28 1 4 25
M  V30 29 1 7 26
M  V30 30 1 8 27
M  V30 31 1 13 28
M  V30 32 1 17 29
M  V30 33 1 17 30
M  V30 34 1 18 31
M  V30 35 1 18 32
M  V30 36 1 20 33
M  V30 37 1 20 34
M  V30 38 1 21 35
M  V30 39 1 21 36
M  V30 40 1 23 37
M  V30 41 1 23 38
M  V30 42 1 24 39
M  V30 43 1 24 40
M  V30 END BOND
M  V30 END CTAB
M  END
>  <Dataset>  (968) 
ChEMBL_Kinases

>  <Ligand_Instance>  (968) 
nan

>  <PDB_ID>  (968) 
nan

>  <Standardized_SMILES>  (968) 
O=c1c2cc(F)ccc2n2c(=S)[nH]nc2n1CCN1CCOCC1

>  <Name>  (968) 
nan

>  <Pocket>  (968) 
nan

>  <ATP_Site>  (968) 
nan

>  <Peripheral>  (968) 
nan

>  <Num_H_Atoms_ProtBoundConf>  (968) 
nan

>  <Num_Resolved_Atoms>  (968) 
nan

>  <Num_Not_Resolved_Atoms>  (968) 
nan

$$$$
CHEMBL4225250
     RDKit          3D

  0  0  0  0  0  0  0  0  0  0999 V3000
M  V30 BEGIN CTAB
M  V30 COUNTS 79 85 0 0 0
M  V30 BEGIN ATOM
M  V30 1 O 1.520014 -6.165118 0.440885 0
M  V30 2 C 0.912336 -5.241598 1.103949 0
M  V30 3 C -0.276038 -4.980934 0.290262 0
M  V30 4 N -1.165812 -3.956078 0.808585 0
M  V30 5 C -0.644683 -2.632297 0.767325 0
M  V30 6 C -1.577813 -1.835717 -0.169005 0
M  V30 7 C -2.850658 -2.580718 0.034026 0 CFG=1
M  V30 8 C -3.855945 -2.262817 -1.008777 0
M  V30 9 N -4.185504 -0.867938 -0.999086 0
M  V30 10 C -3.687789 0.367443 -1.461524 0
M  V30 11 C -2.564335 0.547689 -2.234917 0
M  V30 12 C -2.062899 1.755692 -2.672093 0
M  V30 13 C -2.793141 2.849541 -2.267982 0
M  V30 14 N -2.629750 4.165894 -2.485271 0
M  V30 15 N -3.580738 4.842655 -1.898641 0
M  V30 16 C -4.426700 4.019979 -1.261095 0
M  V30 17 C -5.611604 4.422027 -0.492709 0
M  V30 18 C -5.448618 5.492134 0.389331 0
M  V30 19 C -6.481152 5.972571 1.167861 0
M  V30 20 C -7.720711 5.365536 1.064310 0
M  V30 21 F -8.799914 5.758626 1.777125 0
M  V30 22 C -7.888727 4.312187 0.199183 0
M  V30 23 C -6.853520 3.835719 -0.576937 0
M  V30 24 C -3.922425 2.739894 -1.497338 0
M  V30 25 C -4.366732 1.504345 -1.097004 0
M  V30 26 C -2.366323 -4.015818 -0.010808 0
M  V30 27 N 1.589729 -4.842675 2.314642 0
M  V30 28 C 1.339252 -3.888131 3.387567 0
M  V30 29 C 2.327602 -2.749235 3.314160 0
M  V30 30 N 3.536726 -3.127509 2.614403 0
M  V30 31 C 4.225658 -2.311079 1.683403 0
M  V30 32 C 3.767072 -1.084061 1.263790 0
M  V30 33 C 4.424764 -0.277840 0.360453 0
M  V30 34 C 5.621925 -0.686843 -0.182586 0
M  V30 35 C 6.357349 0.126059 -1.144689 0
M  V30 36 N 5.903987 1.323960 -1.561283 0
M  V30 37 C 6.552589 2.100989 -2.446367 0
M  V30 38 C 7.753032 1.587685 -2.924358 0
M  V30 39 C 8.268342 0.349838 -2.524693 0
M  V30 40 N 7.514236 -0.324285 -1.631951 0
M  V30 41 C 6.105308 -1.908975 0.218241 0
M  V30 42 C 5.419993 -2.688279 1.123392 0
M  V30 43 C 3.906193 -4.446792 3.015691 0
M  V30 44 C 2.850914 -5.476826 2.663173 0
M  V30 45 H -0.916362 -5.907452 0.250440 0
M  V30 46 H -0.010635 -4.766265 -0.778070 0
M  V30 47 H 0.358473 -2.504650 0.365793 0
M  V30 48 H -0.799892 -2.121857 1.761176 0
M  V30 49 H -1.575426 -0.781172 0.099182 0
M  V30 50 H -1.225945 -2.069193 -1.204266 0
M  V30 51 H -3.266483 -2.447610 1.062673 0
M  V30 52 H -4.725554 -2.951663 -1.023339 0
M  V30 53 H -3.401987 -2.432398 -2.048073 0
M  V30 54 H -5.095436 -0.844924 -0.450733 0
M  V30 55 H -2.008565 -0.308917 -2.556424 0
M  V30 56 H -1.171053 1.821233 -3.279717 0
M  V30 57 H -1.843412 4.580956 -3.049181 0
M  V30 58 H -4.513677 6.019679 0.525716 0
M  V30 59 H -6.349732 6.803962 1.851925 0
M  V30 60 H -8.825256 3.765237 0.043536 0
M  V30 61 H -6.964341 3.007254 -1.266718 0
M  V30 62 H -5.279214 1.491749 -0.480615 0
M  V30 63 H -3.102612 -4.712478 0.411668 0
M  V30 64 H -2.159690 -4.294840 -1.063428 0
M  V30 65 H 1.399587 -4.443557 4.355922 0
M  V30 66 H 0.315487 -3.478732 3.352705 0
M  V30 67 H 2.536091 -2.459267 4.370671 0
M  V30 68 H 1.823338 -1.928699 2.770094 0
M  V30 69 H 2.848659 -0.660429 1.617705 0
M  V30 70 H 4.053762 0.682316 0.037519 0
M  V30 71 H 6.196635 3.057797 -2.783348 0
M  V30 72 H 8.361520 2.137318 -3.650450 0
M  V30 73 H 9.197951 -0.030124 -2.903310 0
M  V30 74 H 7.059512 -2.211103 -0.228842 0
M  V30 75 H 5.917799 -3.610614 1.339986 0
M  V30 76 H 3.989914 -4.454316 4.141305 0
M  V30 77 H 4.862990 -4.759216 2.557942 0
M  V30 78 H 3.191234 -6.056154 1.796277 0
M  V30 79 H 2.707285 -6.197050 3.505442 0
M  V30 END ATOM
M  V30 BEGIN BOND
M  V30 1 2 1 2
M  V30 2 1 2 3
M  V30 3 1 3 4
M  V30 4 1 4 5
M  V30 5 1 5 6
M  V30 6 1 6 7
M  V30 7 1 7 8
M  V30 8 1 8 9
M  V30 9 1 9 10
M  V30 10 2 10 11
M  V30 11 1 11 12
M  V30 12 2 12 13
M  V30 13 1 13 14
M  V30 14 1 14 15
M  V30 15 2 15 16
M  V30 16 1 16 17
M  V30 17 2 17 18
M  V30 18 1 18 19
M  V30 19 2 19 20
M  V30 20 1 20 21
M  V30 21 1 20 22
M  V30 22 2 22 23
M  V30 23 1 16 24
M  V30 24 2 24 25
M  V30 25 1 7 26
M  V30 26 1 2 27
M  V30 27 1 27 28
M  V30 28 1 28 29
M  V30 29 1 29 30
M  V30 30 1 30 31
M  V30 31 2 31 32
M  V30 32 1 32 33
M  V30 33 2 33 34
M  V30 34 1 34 35
M  V30 35 2 35 36
M  V30 36 1 36 37
M  V30 37 2 37 38
M  V30 38 1 38 39
M  V30 39 2 39 40
M  V30 40 1 34 41
M  V30 41 2 41 42
M  V30 42 1 30 43
M  V30 43 1 43 44
M  V30 44 1 26 4
M  V30 45 1 44 27
M  V30 46 1 25 10
M  V30 47 1 42 31
M  V30 48 1 24 13
M  V30 49 1 40 35
M  V30 50 1 23 17
M  V30 51 1 3 45
M  V30 52 1 3 46
M  V30 53 1 5 47
M  V30 54 1 5 48
M  V30 55 1 6 49
M  V30 56 1 6 50
M  V30 57 1 7 51 CFG=1
M  V30 58 1 8 52
M  V30 59 1 8 53
M  V30 60 1 9 54
M  V30 61 1 11 55
M  V30 62 1 12 56
M  V30 63 1 14 57
M  V30 64 1 18 58
M  V30 65 1 19 59
M  V30 66 1 22 60
M  V30 67 1 23 61
M  V30 68 1 25 62
M  V30 69 1 26 63
M  V30 70 1 26 64
M  V30 71 1 28 65
M  V30 72 1 28 66
M  V30 73 1 29 67
M  V30 74 1 29 68
M  V30 75 1 32 69
M  V30 76 1 33 70
M  V30 77 1 37 71
M  V30 78 1 38 72
M  V30 79 1 39 73
M  V30 80 1 41 74
M  V30 81 1 42 75
M  V30 82 1 43 76
M  V30 83 1 43 77
M  V30 84 1 44 78
M  V30 85 1 44 79
M  V30 END BOND
M  V30 END CTAB
M  END
>  <Dataset>  (969) 
ChEMBL_Kinases

>  <Ligand_Instance>  (969) 
nan

>  <PDB_ID>  (969) 
nan

>  <Standardized_SMILES>  (969) 
O=C(CN1CC[C@@H](CNc2ccc3[nH]nc(-c4ccc(F)cc4)c3c2)C1)N1CCN(c2ccc(-c3ncccn3)cc2)CC1

>  <Name>  (969) 
nan

>  <Pocket>  (969) 
nan

>  <ATP_Site>  (969) 
nan

>  <Peripheral>  (969) 
nan

>  <Num_H_Atoms_ProtBoundConf>  (969) 
nan

>  <Num_Resolved_Atoms>  (969) 
nan

>  <Num_Not_Resolved_Atoms>  (969) 
nan

$$$$
CHEMBL4776464
     RDKit          3D

  0  0  0  0  0  0  0  0  0  0999 V3000
M  V30 BEGIN CTAB
M  V30 COUNTS 36 38 0 0 0
M  V30 BEGIN ATOM
M  V30 1 C -0.528409 -3.885240 2.372381 0
M  V30 2 C 0.655838 -3.223799 3.088337 0
M  V30 3 N 1.331390 -2.384840 2.103692 0
M  V30 4 C 2.505343 -1.565445 2.308895 0
M  V30 5 O 2.980080 -1.596561 3.471751 0
M  V30 6 C 2.992989 -0.802040 1.136840 0
M  V30 7 C 4.305377 -0.792178 0.714593 0
M  V30 8 N 4.509363 -0.022847 -0.388028 0
M  V30 9 C 3.491784 0.636082 -0.958681 0
M  V30 10 N 3.824805 1.406848 -2.097756 0
M  V30 11 N 2.215006 0.637415 -0.560790 0
M  V30 12 N 1.086624 1.191287 -0.960518 0
M  V30 13 C 0.077187 0.829902 -0.163078 0
M  V30 14 C -1.353722 1.053464 -0.024519 0
M  V30 15 C -2.059369 1.810644 0.895589 0
M  V30 16 C -3.433192 1.855884 0.794120 0
M  V30 17 C -4.124374 1.175272 -0.187194 0
M  V30 18 C -3.440852 0.406964 -1.123401 0
M  V30 19 O -4.141275 -0.282433 -2.115286 0
M  V30 20 C -2.057991 0.364317 -1.019095 0
M  V30 21 N 0.615027 0.012730 0.772227 0
M  V30 22 C 1.946291 -0.104731 0.523946 0
M  V30 23 H -0.092127 -4.610181 1.622145 0
M  V30 24 H -1.187289 -4.421075 3.048375 0
M  V30 25 H -1.135918 -3.106805 1.839723 0
M  V30 26 H 0.294923 -2.578124 3.907454 0
M  V30 27 H 1.321806 -4.011506 3.474542 0
M  V30 28 H 0.939657 -2.351876 1.115012 0
M  V30 29 H 4.995209 -1.383168 1.298413 0
M  V30 30 H 3.353386 0.948912 -2.933849 0
M  V30 31 H 4.156082 2.063820 -2.811091 0
M  V30 32 H -1.414679 2.287520 1.606075 0
M  V30 33 H -3.930132 2.467755 1.548903 0
M  V30 34 H -5.212828 1.240415 -0.226109 0
M  V30 35 H -3.673051 -1.127040 -2.478845 0
M  V30 36 H -1.599291 -0.266212 -1.799792 0
M  V30 END ATOM
M  V30 BEGIN BOND
M  V30 1 1 1 2
M  V30 2 1 2 3
M  V30 3 1 3 4
M  V30 4 2 4 5
M  V30 5 1 4 6
M  V30 6 2 6 7
M  V30 7 1 7 8
M  V30 8 2 8 9
M  V30 9 1 9 10
M  V30 10 1 9 11
M  V30 11 1 11 12
M  V30 12 2 12 13
M  V30 13 1 13 14
M  V30 14 2 14 15
M  V30 15 1 15 16
M  V30 16 2 16 17
M  V30 17 1 17 18
M  V30 18 1 18 19
M  V30 19 2 18 20
M  V30 20 1 13 21
M  V30 21 2 21 22
M  V30 22 1 22 6
M  V30 23 1 22 11
M  V30 24 1 20 14
M  V30 25 1 1 23
M  V30 26 1 1 24
M  V30 27 1 1 25
M  V30 28 1 2 26
M  V30 29 1 2 27
M  V30 30 1 3 28
M  V30 31 1 7 29
M  V30 32 1 10 30
M  V30 33 1 10 31
M  V30 34 1 15 32
M  V30 35 1 16 33
M  V30 36 1 17 34
M  V30 37 1 19 35
M  V30 38 1 20 36
M  V30 END BOND
M  V30 END CTAB
M  END
>  <Dataset>  (970) 
ChEMBL_Kinases

>  <Ligand_Instance>  (970) 
nan

>  <PDB_ID>  (970) 
nan

>  <Standardized_SMILES>  (970) 
CCNC(=O)c1cnc(N)n2nc(-c3cccc(O)c3)nc12

>  <Name>  (970) 
nan

>  <Pocket>  (970) 
nan

>  <ATP_Site>  (970) 
nan

>  <Peripheral>  (970) 
nan

>  <Num_H_Atoms_ProtBoundConf>  (970) 
nan

>  <Num_Resolved_Atoms>  (970) 
nan

>  <Num_Not_Resolved_Atoms>  (970) 
nan

$$$$
CHEMBL4225206
     RDKit          3D

  0  0  0  0  0  0  0  0  0  0999 V3000
M  V30 BEGIN CTAB
M  V30 COUNTS 54 57 0 0 0
M  V30 BEGIN ATOM
M  V30 1 C 4.661312 -5.589792 2.741750 0
M  V30 2 C 5.169736 -4.194790 2.492710 0
M  V30 3 O 5.955372 -3.823175 1.584745 0
M  V30 4 N 4.723252 -3.160329 3.374785 0
M  V30 5 C 5.067778 -1.764755 3.335734 0
M  V30 6 C 4.347137 -1.033158 2.262727 0
M  V30 7 C 3.097969 -0.494659 2.589611 0
M  V30 8 C 2.346606 0.212073 1.658114 0
M  V30 9 C 2.801659 0.410945 0.375009 0
M  V30 10 C 1.958884 1.162195 -0.548815 0
M  V30 11 C 2.296782 1.433491 -1.856711 0
M  V30 12 N 1.480972 2.132513 -2.665106 0
M  V30 13 C 0.289135 2.592590 -2.201928 0
M  V30 14 C -0.069368 2.329211 -0.885960 0
M  V30 15 N -1.277641 2.732178 -0.242466 0
M  V30 16 N -1.694229 3.852226 0.325834 0
M  V30 17 C -2.932485 3.726295 0.796972 0
M  V30 18 C -3.350443 2.436238 0.516328 0
M  V30 19 C -4.553335 1.777168 0.785114 0
M  V30 20 C -4.638536 0.448210 0.352399 0
M  V30 21 C -3.629193 -0.212717 -0.301113 0
M  V30 22 N -3.745676 -1.560558 -0.728361 0
M  V30 23 C -4.933232 -2.349595 -0.521533 0
M  V30 24 C -6.147331 -1.797264 -1.209969 0
M  V30 25 C -4.659396 -3.760128 -1.028344 0
M  V30 26 C -2.492416 0.530176 -0.512888 0
M  V30 27 C -2.287719 1.837331 -0.137390 0
M  V30 28 N 0.778717 1.625025 -0.112026 0
M  V30 29 C 4.031140 -0.119439 0.054114 0
M  V30 30 C 4.788750 -0.823274 0.967757 0
M  V30 31 H 5.112734 -5.942016 3.697496 0
M  V30 32 H 3.544329 -5.580632 2.860467 0
M  V30 33 H 4.910316 -6.239866 1.887270 0
M  V30 34 H 4.057310 -3.443961 4.154007 0
M  V30 35 H 4.944035 -1.294812 4.321476 0
M  V30 36 H 6.148188 -1.700151 3.067397 0
M  V30 37 H 2.706181 -0.632635 3.595870 0
M  V30 38 H 1.376171 0.609428 1.972442 0
M  V30 39 H 3.241184 1.075328 -2.241046 0
M  V30 40 H -0.426715 3.159754 -2.776919 0
M  V30 41 H -3.498131 4.505067 1.306599 0
M  V30 42 H -5.368165 2.268598 1.297913 0
M  V30 43 H -5.566717 -0.018436 0.576363 0
M  V30 44 H -2.898578 -1.975402 -1.220059 0
M  V30 45 H -5.097908 -2.387764 0.585693 0
M  V30 46 H -6.946796 -1.672682 -0.452532 0
M  V30 47 H -6.471167 -2.528021 -2.008544 0
M  V30 48 H -5.986542 -0.788683 -1.649964 0
M  V30 49 H -3.810904 -3.728936 -1.768559 0
M  V30 50 H -5.550675 -4.109113 -1.591616 0
M  V30 51 H -4.395082 -4.453088 -0.201041 0
M  V30 52 H -1.678025 0.014426 -1.033879 0
M  V30 53 H 4.409299 0.023152 -0.949709 0
M  V30 54 H 5.752416 -1.237241 0.718484 0
M  V30 END ATOM
M  V30 BEGIN BOND
M  V30 1 1 1 2
M  V30 2 2 2 3
M  V30 3 1 2 4
M  V30 4 1 4 5
M  V30 5 1 5 6
M  V30 6 2 6 7
M  V30 7 1 7 8
M  V30 8 2 8 9
M  V30 9 1 9 10
M  V30 10 2 10 11
M  V30 11 1 11 12
M  V30 12 2 12 13
M  V30 13 1 13 14
M  V30 14 1 14 15
M  V30 15 1 15 16
M  V30 16 2 16 17
M  V30 17 1 17 18
M  V30 18 2 18 19
M  V30 19 1 19 20
M  V30 20 2 20 21
M  V30 21 1 21 22
M  V30 22 1 22 23
M  V30 23 1 23 24
M  V30 24 1 23 25
M  V30 25 1 21 26
M  V30 26 2 26 27
M  V30 27 2 14 28
M  V30 28 1 9 29
M  V30 29 2 29 30
M  V30 30 1 30 6
M  V30 31 1 28 10
M  V30 32 1 27 15
M  V30 33 1 27 18
M  V30 34 1 1 31
M  V30 35 1 1 32
M  V30 36 1 1 33
M  V30 37 1 4 34
M  V30 38 1 5 35
M  V30 39 1 5 36
M  V30 40 1 7 37
M  V30 41 1 8 38
M  V30 42 1 11 39
M  V30 43 1 13 40
M  V30 44 1 17 41
M  V30 45 1 19 42
M  V30 46 1 20 43
M  V30 47 1 22 44
M  V30 48 1 23 45
M  V30 49 1 24 46
M  V30 50 1 24 47
M  V30 51 1 24 48
M  V30 52 1 25 49
M  V30 53 1 25 50
M  V30 54 1 25 51
M  V30 55 1 26 52
M  V30 56 1 29 53
M  V30 57 1 30 54
M  V30 END BOND
M  V30 END CTAB
M  END
>  <Dataset>  (971) 
ChEMBL_Kinases

>  <Ligand_Instance>  (971) 
nan

>  <PDB_ID>  (971) 
nan

>  <Standardized_SMILES>  (971) 
CC(=O)NCc1ccc(-c2cncc(-n3ncc4ccc(NC(C)C)cc43)n2)cc1

>  <Name>  (971) 
nan

>  <Pocket>  (971) 
nan

>  <ATP_Site>  (971) 
nan

>  <Peripheral>  (971) 
nan

>  <Num_H_Atoms_ProtBoundConf>  (971) 
nan

>  <Num_Resolved_Atoms>  (971) 
nan

>  <Num_Not_Resolved_Atoms>  (971) 
nan

$$$$
CHEMBL4225181
     RDKit          3D

  0  0  0  0  0  0  0  0  0  0999 V3000
M  V30 BEGIN CTAB
M  V30 COUNTS 44 48 0 0 0
M  V30 BEGIN ATOM
M  V30 1 C -2.658569 2.069804 0.558934 0
M  V30 2 C -1.298895 1.702750 1.072913 0
M  V30 3 C -0.208028 1.769682 0.243577 0
M  V30 4 N 1.044226 1.469709 0.586904 0
M  V30 5 C 2.176725 1.482498 -0.120714 0
M  V30 6 C 2.480505 1.819941 -1.492452 0
M  V30 7 C 3.785978 1.731758 -1.997692 0
M  V30 8 N 3.848944 2.092758 -3.278116 0
M  V30 9 N 2.623924 2.429426 -3.681614 0
M  V30 10 C 1.830678 2.258706 -2.604036 0
M  V30 11 C 3.123936 1.062277 0.788418 0
M  V30 12 N 2.533271 0.820761 1.976719 0
M  V30 13 C 1.240956 1.074907 1.840802 0
M  V30 14 C 0.216389 0.973966 2.746448 0
M  V30 15 N 0.307571 0.540879 4.116113 0
M  V30 16 C 0.362167 -0.946004 4.144054 0
M  V30 17 C 0.550922 -1.799809 3.143295 0
M  V30 18 C 0.489261 -3.131716 3.559990 0
M  V30 19 C 0.712909 -4.160816 2.466781 0
M  V30 20 C -0.356277 -3.957751 1.428478 0
M  V30 21 C 0.011910 -3.205614 0.303498 0
M  V30 22 C -0.778448 -2.853531 -0.789512 0
M  V30 23 C -2.093785 -3.325919 -0.717134 0
M  V30 24 C -2.462420 -4.074544 0.399095 0
M  V30 25 F -3.725682 -4.531037 0.471537 0
M  V30 26 N -1.646489 -4.369198 1.401419 0
M  V30 27 N 0.264298 -3.511742 4.840688 0
M  V30 28 S 0.111145 -1.819657 5.600691 0
M  V30 29 N -1.052381 1.294278 2.342812 0
M  V30 30 H -3.168574 2.747723 1.262079 0
M  V30 31 H -2.492768 2.632938 -0.397536 0
M  V30 32 H -3.296522 1.190439 0.394797 0
M  V30 33 H -0.404769 2.087430 -0.759720 0
M  V30 34 H 4.727619 1.426146 -1.523049 0
M  V30 35 H 2.370170 2.746458 -4.635695 0
M  V30 36 H 0.776780 2.455628 -2.643257 0
M  V30 37 H 4.194034 0.897157 0.715289 0
M  V30 38 H 0.337011 1.080444 5.001174 0
M  V30 39 H 0.729796 -1.466764 2.132947 0
M  V30 40 H 1.676299 -4.046687 1.970951 0
M  V30 41 H 0.594898 -5.149650 2.915129 0
M  V30 42 H 1.045450 -2.834150 0.228466 0
M  V30 43 H -0.383737 -2.272261 -1.595073 0
M  V30 44 H -2.742541 -3.072435 -1.540810 0
M  V30 END ATOM
M  V30 BEGIN BOND
M  V30 1 1 1 2
M  V30 2 2 2 3
M  V30 3 1 3 4
M  V30 4 1 4 5
M  V30 5 1 5 6
M  V30 6 1 6 7
M  V30 7 2 7 8
M  V30 8 1 8 9
M  V30 9 1 9 10
M  V30 10 2 5 11
M  V30 11 1 11 12
M  V30 12 2 12 13
M  V30 13 1 13 14
M  V30 14 1 14 15
M  V30 15 1 15 16
M  V30 16 2 16 17
M  V30 17 1 17 18
M  V30 18 1 18 19
M  V30 19 1 19 20
M  V30 20 2 20 21
M  V30 21 1 21 22
M  V30 22 2 22 23
M  V30 23 1 23 24
M  V30 24 1 24 25
M  V30 25 2 24 26
M  V30 26 2 18 27
M  V30 27 1 27 28
M  V30 28 2 14 29
M  V30 29 1 29 2
M  V30 30 1 13 4
M  V30 31 1 28 16
M  V30 32 2 10 6
M  V30 33 1 26 20
M  V30 34 1 1 30
M  V30 35 1 1 31
M  V30 36 1 1 32
M  V30 37 1 3 33
M  V30 38 1 7 34
M  V30 39 1 9 35
M  V30 40 1 10 36
M  V30 41 1 11 37
M  V30 42 1 15 38
M  V30 43 1 17 39
M  V30 44 1 19 40
M  V30 45 1 19 41
M  V30 46 1 21 42
M  V30 47 1 22 43
M  V30 48 1 23 44
M  V30 END BOND
M  V30 END CTAB
M  END
>  <Dataset>  (972) 
ChEMBL_Kinases

>  <Ligand_Instance>  (972) 
nan

>  <PDB_ID>  (972) 
nan

>  <Standardized_SMILES>  (972) 
Cc1cn2c(-c3cn[nH]c3)cnc2c(Nc2cc(Cc3cccc(F)n3)ns2)n1

>  <Name>  (972) 
nan

>  <Pocket>  (972) 
nan

>  <ATP_Site>  (972) 
nan

>  <Peripheral>  (972) 
nan

>  <Num_H_Atoms_ProtBoundConf>  (972) 
nan

>  <Num_Resolved_Atoms>  (972) 
nan

>  <Num_Not_Resolved_Atoms>  (972) 
nan

$$$$
CHEMBL4225180
     RDKit          3D

  0  0  0  0  0  0  0  0  0  0999 V3000
M  V30 BEGIN CTAB
M  V30 COUNTS 41 43 0 0 0
M  V30 BEGIN ATOM
M  V30 1 O 1.338510 -0.130655 2.535705 0
M  V30 2 C 0.105186 -0.183650 2.302485 0
M  V30 3 N -0.579926 -0.729206 3.418257 0
M  V30 4 O -0.082015 -1.150469 4.580692 0
M  V30 5 C 0.270669 -2.483916 4.599556 0
M  V30 6 C 0.831985 -2.894408 5.955836 0
M  V30 7 O 1.182458 -4.260884 5.942814 0
M  V30 8 C -0.570811 0.231242 1.103327 0
M  V30 9 C -1.942272 0.160608 1.027925 0
M  V30 10 C -2.639528 0.577703 -0.109311 0
M  V30 11 C -1.931019 1.082257 -1.205764 0
M  V30 12 C -0.536249 1.144274 -1.106479 0
M  V30 13 Cl 0.306057 1.785145 -2.510132 0
M  V30 14 C 0.150058 0.723029 0.037671 0
M  V30 15 N 1.566814 0.813132 0.001834 0
M  V30 16 C 2.595677 0.044832 -0.601477 0
M  V30 17 C 3.317398 0.891134 -1.455736 0
M  V30 18 C 4.399575 0.405073 -2.199021 0
M  V30 19 C 4.760664 -0.902456 -2.096103 0
M  V30 20 I 6.342702 -1.800401 -3.124872 0
M  V30 21 C 4.049811 -1.731187 -1.256273 0
M  V30 22 C 2.984233 -1.271017 -0.518945 0
M  V30 23 F 2.208504 -1.971421 0.325532 0
M  V30 24 O -2.815314 1.435935 -2.221435 0
M  V30 25 C -4.066162 0.773207 -1.977226 0
M  V30 26 C -4.082746 0.623962 -0.480950 0
M  V30 27 H -1.613094 -0.864058 3.440538 0
M  V30 28 H 1.099419 -2.596905 3.861051 0
M  V30 29 H -0.516727 -3.178587 4.263647 0
M  V30 30 H 1.772713 -2.361030 6.176690 0
M  V30 31 H 0.098974 -2.735895 6.762317 0
M  V30 32 H 2.046348 -4.386700 5.464891 0
M  V30 33 H -2.589806 -0.206191 1.801443 0
M  V30 34 H 1.786540 1.658480 0.572003 0
M  V30 35 H 3.172698 1.960159 -1.662692 0
M  V30 36 H 5.000063 0.994094 -2.874544 0
M  V30 37 H 4.271469 -2.780880 -1.117396 0
M  V30 38 H -3.961575 -0.208412 -2.490521 0
M  V30 39 H -4.925838 1.359105 -2.368654 0
M  V30 40 H -4.645404 1.410125 0.031940 0
M  V30 41 H -4.607202 -0.341220 -0.273542 0
M  V30 END ATOM
M  V30 BEGIN BOND
M  V30 1 2 1 2
M  V30 2 1 2 3
M  V30 3 1 3 4
M  V30 4 1 4 5
M  V30 5 1 5 6
M  V30 6 1 6 7
M  V30 7 1 2 8
M  V30 8 2 8 9
M  V30 9 1 9 10
M  V30 10 2 10 11
M  V30 11 1 11 12
M  V30 12 1 12 13
M  V30 13 2 12 14
M  V30 14 1 14 15
M  V30 15 1 15 16
M  V30 16 2 16 17
M  V30 17 1 17 18
M  V30 18 2 18 19
M  V30 19 1 19 20
M  V30 20 1 19 21
M  V30 21 2 21 22
M  V30 22 1 22 23
M  V30 23 1 11 24
M  V30 24 1 24 25
M  V30 25 1 25 26
M  V30 26 1 14 8
M  V30 27 1 22 16
M  V30 28 1 26 10
M  V30 29 1 3 27
M  V30 30 1 5 28
M  V30 31 1 5 29
M  V30 32 1 6 30
M  V30 33 1 6 31
M  V30 34 1 7 32
M  V30 35 1 9 33
M  V30 36 1 15 34
M  V30 37 1 17 35
M  V30 38 1 18 36
M  V30 39 1 21 37
M  V30 40 1 25 38
M  V30 41 1 25 39
M  V30 42 1 26 40
M  V30 43 1 26 41
M  V30 END BOND
M  V30 END CTAB
M  END
>  <Dataset>  (973) 
ChEMBL_Kinases

>  <Ligand_Instance>  (973) 
nan

>  <PDB_ID>  (973) 
nan

>  <Standardized_SMILES>  (973) 
O=C(NOCCO)c1cc2c(c(Cl)c1Nc1ccc(I)cc1F)OCC2

>  <Name>  (973) 
nan

>  <Pocket>  (973) 
nan

>  <ATP_Site>  (973) 
nan

>  <Peripheral>  (973) 
nan

>  <Num_H_Atoms_ProtBoundConf>  (973) 
nan

>  <Num_Resolved_Atoms>  (973) 
nan

>  <Num_Not_Resolved_Atoms>  (973) 
nan

$$$$
CHEMBL4225173
     RDKit          3D

  0  0  0  0  0  0  0  0  0  0999 V3000
M  V30 BEGIN CTAB
M  V30 COUNTS 52 56 0 0 0
M  V30 BEGIN ATOM
M  V30 1 C 2.708400 -7.897267 2.155652 0
M  V30 2 C 2.724893 -6.592909 2.882234 0
M  V30 3 C 2.364807 -5.473244 2.123581 0
M  V30 4 C 2.380510 -4.269044 2.796852 0
M  V30 5 C 2.003772 -3.088977 2.006229 0
M  V30 6 O 1.702256 -3.247498 0.794136 0
M  V30 7 N 1.939980 -1.755267 2.468170 0
M  V30 8 C 1.526684 -0.939632 1.348586 0
M  V30 9 C 0.202385 -0.676386 1.064933 0
M  V30 10 C -0.037108 0.130046 -0.053590 0
M  V30 11 C -1.438624 0.394673 -0.334651 0
M  V30 12 C -2.159331 1.571190 -0.381024 0
M  V30 13 C -1.530916 2.858048 -0.122892 0
M  V30 14 C -0.928897 3.306094 1.035723 0
M  V30 15 C -0.384729 4.572839 1.082269 0
M  V30 16 C -0.444323 5.392160 -0.035361 0
M  V30 17 F 0.128088 6.631411 0.121856 0
M  V30 18 C -1.042715 4.961533 -1.204068 0
M  V30 19 C -1.051478 5.917882 -2.339525 0
M  V30 20 C -1.590163 3.683140 -1.246265 0
M  V30 21 N -3.447342 1.275707 -0.689894 0
M  V30 22 C -3.534091 -0.072516 -0.835893 0
M  V30 23 C -4.664996 -0.805462 -1.151771 0
M  V30 24 C -4.544948 -2.179184 -1.255105 0
M  V30 25 C -3.268833 -2.696431 -1.025446 0
M  V30 26 N -2.241578 -1.893189 -0.725558 0
M  V30 27 N -2.312040 -0.596180 -0.618611 0
M  V30 28 C 1.032454 0.600995 -0.785845 0
M  V30 29 C 2.343369 0.318092 -0.473628 0
M  V30 30 N 2.560681 -0.470077 0.620586 0
M  V30 31 C 2.723786 -4.147781 4.127513 0
M  V30 32 C 3.075635 -5.299993 4.839046 0
M  V30 33 N 3.060345 -6.481239 4.178994 0
M  V30 34 H 3.258288 -7.727871 1.183573 0
M  V30 35 H 3.151835 -8.714407 2.735780 0
M  V30 36 H 1.662820 -8.175793 1.833875 0
M  V30 37 H 2.096840 -5.583100 1.077672 0
M  V30 38 H 2.190719 -1.605120 3.486320 0
M  V30 39 H -0.556584 -1.104892 1.717146 0
M  V30 40 H -0.942592 2.574029 1.847266 0
M  V30 41 H 0.065898 4.840298 2.028469 0
M  V30 42 H -1.224611 5.418522 -3.327110 0
M  V30 43 H -1.857677 6.671240 -2.228164 0
M  V30 44 H -0.091337 6.437944 -2.440511 0
M  V30 45 H -2.031765 3.449282 -2.206251 0
M  V30 46 H -5.624460 -0.302374 -1.313518 0
M  V30 47 H -5.418409 -2.759394 -1.500453 0
M  V30 48 H -3.192937 -3.786194 -1.111748 0
M  V30 49 H 0.767973 1.210204 -1.625339 0
M  V30 50 H 3.165325 0.706521 -1.073514 0
M  V30 51 H 2.731649 -3.214571 4.633272 0
M  V30 52 H 3.357432 -5.262403 5.899691 0
M  V30 END ATOM
M  V30 BEGIN BOND
M  V30 1 1 1 2
M  V30 2 2 2 3
M  V30 3 1 3 4
M  V30 4 1 4 5
M  V30 5 2 5 6
M  V30 6 1 5 7
M  V30 7 1 7 8
M  V30 8 2 8 9
M  V30 9 1 9 10
M  V30 10 1 10 11
M  V30 11 2 11 12
M  V30 12 1 12 13
M  V30 13 2 13 14
M  V30 14 1 14 15
M  V30 15 2 15 16
M  V30 16 1 16 17
M  V30 17 1 16 18
M  V30 18 1 18 19
M  V30 19 2 18 20
M  V30 20 1 12 21
M  V30 21 2 21 22
M  V30 22 1 22 23
M  V30 23 2 23 24
M  V30 24 1 24 25
M  V30 25 2 25 26
M  V30 26 1 26 27
M  V30 27 2 10 28
M  V30 28 1 28 29
M  V30 29 2 29 30
M  V30 30 2 4 31
M  V30 31 1 31 32
M  V30 32 2 32 33
M  V30 33 1 33 2
M  V30 34 1 30 8
M  V30 35 1 27 11
M  V30 36 1 20 13
M  V30 37 1 27 22
M  V30 38 1 1 34
M  V30 39 1 1 35
M  V30 40 1 1 36
M  V30 41 1 3 37
M  V30 42 1 7 38
M  V30 43 1 9 39
M  V30 44 1 14 40
M  V30 45 1 15 41
M  V30 46 1 19 42
M  V30 47 1 19 43
M  V30 48 1 19 44
M  V30 49 1 20 45
M  V30 50 1 23 46
M  V30 51 1 24 47
M  V30 52 1 25 48
M  V30 53 1 28 49
M  V30 54 1 29 50
M  V30 55 1 31 51
M  V30 56 1 32 52
M  V30 END BOND
M  V30 END CTAB
M  END
>  <Dataset>  (974) 
ChEMBL_Kinases

>  <Ligand_Instance>  (974) 
nan

>  <PDB_ID>  (974) 
nan

>  <Standardized_SMILES>  (974) 
Cc1cc(C(=O)Nc2cc(-c3c(-c4ccc(F)c(C)c4)nc4cccnn34)ccn2)ccn1

>  <Name>  (974) 
nan

>  <Pocket>  (974) 
nan

>  <ATP_Site>  (974) 
nan

>  <Peripheral>  (974) 
nan

>  <Num_H_Atoms_ProtBoundConf>  (974) 
nan

>  <Num_Resolved_Atoms>  (974) 
nan

>  <Num_Not_Resolved_Atoms>  (974) 
nan

$$$$
CHEMBL4225133
     RDKit          3D

  0  0  0  0  0  0  0  0  0  0999 V3000
M  V30 BEGIN CTAB
M  V30 COUNTS 53 57 0 0 0
M  V30 BEGIN ATOM
M  V30 1 C 2.104886 -1.434209 5.790345 0
M  V30 2 C 1.793012 -1.572640 4.345649 0
M  V30 3 C 2.257621 -0.685665 3.402450 0
M  V30 4 C 1.999175 -0.761042 2.028119 0
M  V30 5 C 2.615400 0.306453 1.251603 0
M  V30 6 N 3.957392 0.316019 1.204778 0
M  V30 7 C 4.367364 1.356293 0.454987 0
M  V30 8 C 5.609523 1.823616 0.086890 0
M  V30 9 C 5.713438 2.959192 -0.721558 0
M  V30 10 C 4.524185 3.560773 -1.113078 0
M  V30 11 N 3.320701 3.053258 -0.717456 0
M  V30 12 N 3.248522 1.977509 0.047639 0
M  V30 13 C 2.141738 1.369248 0.511801 0
M  V30 14 C 0.717279 1.634080 0.361911 0
M  V30 15 C 0.254210 2.784602 0.988179 0
M  V30 16 C -1.111599 3.037556 0.837912 0
M  V30 17 N -1.968266 2.262374 0.149776 0
M  V30 18 C -1.517762 1.129552 -0.467856 0
M  V30 19 N -2.223682 0.167142 -1.241613 0
M  V30 20 C -2.748386 -0.901696 -0.469144 0
M  V30 21 O -2.483452 -0.790084 0.777947 0
M  V30 22 C -3.515383 -2.047740 -0.939653 0
M  V30 23 C -3.889089 -2.950329 0.057641 0
M  V30 24 C -4.620492 -4.037429 -0.422509 0
M  V30 25 C -4.947288 -4.212855 -1.747904 0
M  V30 26 C -5.732807 -5.406848 -2.178475 0
M  V30 27 N -4.549647 -3.300546 -2.637294 0 CHG=1 VAL=4
M  V30 28 O -4.902547 -3.522472 -3.950379 0 CHG=-1 VAL=1
M  V30 29 C -3.834279 -2.215095 -2.246896 0
M  V30 30 C -0.174095 0.846782 -0.341735 0
M  V30 31 C 1.213773 -1.820514 1.621642 0
M  V30 32 C 0.742607 -2.715268 2.556711 0
M  V30 33 C 1.003554 -2.630663 3.906476 0
M  V30 34 F 0.495226 -3.560266 4.750393 0
M  V30 35 H 3.149244 -1.021985 5.914209 0
M  V30 36 H 2.105899 -2.377363 6.337033 0
M  V30 37 H 1.404978 -0.733797 6.266773 0
M  V30 38 H 2.870507 0.117640 3.829316 0
M  V30 39 H 6.473262 1.302042 0.430822 0
M  V30 40 H 6.701176 3.314162 -1.002974 0
M  V30 41 H 4.652038 4.447378 -1.744811 0
M  V30 42 H 0.822372 3.484623 1.562982 0
M  V30 43 H -1.557702 3.917361 1.295836 0
M  V30 44 H -2.420260 0.111524 -2.270887 0
M  V30 45 H -3.667029 -2.874379 1.112425 0
M  V30 46 H -4.930535 -4.767936 0.338330 0
M  V30 47 H -6.577748 -5.035282 -2.795576 0
M  V30 48 H -6.175135 -5.935576 -1.322705 0
M  V30 49 H -5.091325 -6.141136 -2.711318 0
M  V30 50 H -3.519950 -1.482130 -2.993380 0
M  V30 51 H 0.310158 -0.008481 -0.779126 0
M  V30 52 H 1.044073 -1.838001 0.555823 0
M  V30 53 H 0.131213 -3.511733 2.107531 0
M  V30 END ATOM
M  V30 BEGIN BOND
M  V30 1 1 1 2
M  V30 2 2 2 3
M  V30 3 1 3 4
M  V30 4 1 4 5
M  V30 5 1 5 6
M  V30 6 2 6 7
M  V30 7 1 7 8
M  V30 8 2 8 9
M  V30 9 1 9 10
M  V30 10 2 10 11
M  V30 11 1 11 12
M  V30 12 1 12 13
M  V30 13 1 13 14
M  V30 14 2 14 15
M  V30 15 1 15 16
M  V30 16 2 16 17
M  V30 17 1 17 18
M  V30 18 1 18 19
M  V30 19 1 19 20
M  V30 20 2 20 21
M  V30 21 1 20 22
M  V30 22 2 22 23
M  V30 23 1 23 24
M  V30 24 2 24 25
M  V30 25 1 25 26
M  V30 26 1 25 27
M  V30 27 1 27 28
M  V30 28 2 27 29
M  V30 29 2 18 30
M  V30 30 2 4 31
M  V30 31 1 31 32
M  V30 32 2 32 33
M  V30 33 1 33 34
M  V30 34 1 33 2
M  V30 35 2 13 5
M  V30 36 1 30 14
M  V30 37 1 12 7
M  V30 38 1 29 22
M  V30 39 1 1 35
M  V30 40 1 1 36
M  V30 41 1 1 37
M  V30 42 1 3 38
M  V30 43 1 8 39
M  V30 44 1 9 40
M  V30 45 1 10 41
M  V30 46 1 15 42
M  V30 47 1 16 43
M  V30 48 1 19 44
M  V30 49 1 23 45
M  V30 50 1 24 46
M  V30 51 1 26 47
M  V30 52 1 26 48
M  V30 53 1 26 49
M  V30 54 1 29 50
M  V30 55 1 30 51
M  V30 56 1 31 52
M  V30 57 1 32 53
M  V30 END BOND
M  V30 END CTAB
M  END
>  <Dataset>  (975) 
ChEMBL_Kinases

>  <Ligand_Instance>  (975) 
nan

>  <PDB_ID>  (975) 
nan

>  <Standardized_SMILES>  (975) 
Cc1cc(-c2nc3cccnn3c2-c2ccnc(NC(=O)c3ccc(C)[n+]([O-])c3)c2)ccc1F

>  <Name>  (975) 
nan

>  <Pocket>  (975) 
nan

>  <ATP_Site>  (975) 
nan

>  <Peripheral>  (975) 
nan

>  <Num_H_Atoms_ProtBoundConf>  (975) 
nan

>  <Num_Resolved_Atoms>  (975) 
nan

>  <Num_Not_Resolved_Atoms>  (975) 
nan

$$$$
CHEMBL4225389
     RDKit          3D

  0  0  0  0  0  0  0  0  0  0999 V3000
M  V30 BEGIN CTAB
M  V30 COUNTS 15 16 0 0 0
M  V30 BEGIN ATOM
M  V30 1 Cl -1.282011 -2.616779 0.657969 0
M  V30 2 C 0.220340 -1.857376 1.197261 0
M  V30 3 N 1.252208 -2.416188 1.874205 0
M  V30 4 N 2.189698 -1.484331 2.080790 0
M  V30 5 C 1.824640 -0.297799 1.560739 0
M  V30 6 C 2.412518 0.947860 1.502651 0
M  V30 7 C 1.758962 1.991071 0.878327 0
M  V30 8 C 0.500152 1.803324 0.299192 0
M  V30 9 C -0.058755 0.544696 0.375514 0
M  V30 10 Br -1.772899 0.246868 -0.401151 0
M  V30 11 C 0.569914 -0.537368 0.998359 0
M  V30 12 H 3.098023 -1.667731 2.589155 0
M  V30 13 H 3.392283 1.053670 1.964844 0
M  V30 14 H 2.217553 2.972932 0.830130 0
M  V30 15 H -0.031867 2.615989 -0.198662 0
M  V30 END ATOM
M  V30 BEGIN BOND
M  V30 1 1 1 2
M  V30 2 2 2 3
M  V30 3 1 3 4
M  V30 4 1 4 5
M  V30 5 2 5 6
M  V30 6 1 6 7
M  V30 7 2 7 8
M  V30 8 1 8 9
M  V30 9 1 9 10
M  V30 10 2 9 11
M  V30 11 1 11 2
M  V30 12 1 11 5
M  V30 13 1 4 12
M  V30 14 1 6 13
M  V30 15 1 7 14
M  V30 16 1 8 15
M  V30 END BOND
M  V30 END CTAB
M  END
>  <Dataset>  (976) 
ChEMBL_Kinases

>  <Ligand_Instance>  (976) 
nan

>  <PDB_ID>  (976) 
nan

>  <Standardized_SMILES>  (976) 
Clc1n[nH]c2cccc(Br)c12

>  <Name>  (976) 
nan

>  <Pocket>  (976) 
nan

>  <ATP_Site>  (976) 
nan

>  <Peripheral>  (976) 
nan

>  <Num_H_Atoms_ProtBoundConf>  (976) 
nan

>  <Num_Resolved_Atoms>  (976) 
nan

>  <Num_Not_Resolved_Atoms>  (976) 
nan

$$$$
CHEMBL4777694
     RDKit          3D

  0  0  0  0  0  0  0  0  0  0999 V3000
M  V30 BEGIN CTAB
M  V30 COUNTS 76 81 0 0 0
M  V30 BEGIN ATOM
M  V30 1 C 2.125448 3.073116 3.015067 0
M  V30 2 C 2.958927 3.517077 1.866882 0
M  V30 3 C 3.681158 2.365401 1.137612 0 CFG=2
M  V30 4 C 4.424410 3.110155 0.046252 0
M  V30 5 N 5.577333 3.753272 0.210218 0
M  V30 6 N 5.840586 4.385612 -0.938004 0
M  V30 7 C 4.841761 4.136533 -1.838795 0
M  V30 8 C 4.846726 4.693582 -3.208915 0
M  V30 9 N 3.979548 3.337321 -1.193213 0
M  V30 10 C 2.825321 2.654105 -1.635617 0
M  V30 11 C 2.352349 2.920442 -2.893289 0
M  V30 12 N 1.261868 2.269112 -3.265735 0
M  V30 13 C 0.608104 1.381284 -2.495014 0
M  V30 14 N -0.555026 0.748014 -3.015151 0
M  V30 15 C -1.389228 -0.212030 -2.450031 0
M  V30 16 C -1.187473 -0.741161 -1.211305 0
M  V30 17 C -1.984448 -1.695456 -0.615133 0
M  V30 18 C -3.085183 -2.183358 -1.288815 0
M  V30 19 C -4.030181 -3.188152 -0.820923 0
M  V30 20 O -5.053120 -3.597964 -1.466758 0
M  V30 21 N -3.863493 -3.801626 0.439635 0
M  V30 22 C -4.685795 -4.812047 1.078260 0
M  V30 23 C -3.848863 -6.081897 1.100136 0
M  V30 24 C -2.624328 -5.820213 1.914478 0
M  V30 25 N -2.920989 -5.385304 3.252967 0
M  V30 26 C -2.051133 -4.352859 3.727376 0
M  V30 27 C -4.310917 -5.195965 3.526661 0
M  V30 28 C -5.080351 -4.458592 2.470507 0
M  V30 29 C -3.318958 -1.668848 -2.545792 0
M  V30 30 C -2.513258 -0.717602 -3.124134 0
M  V30 31 O -2.780707 -0.223500 -4.392034 0
M  V30 32 C -3.908947 -0.726599 -5.077024 0
M  V30 33 N 1.085006 1.135149 -1.271083 0
M  V30 34 C 2.178289 1.737521 -0.796753 0
M  V30 35 N 2.736048 1.503637 0.521523 0
M  V30 36 C 2.203640 0.260349 1.053316 0
M  V30 37 C 2.797681 -0.195848 2.298064 0
M  V30 38 C 3.978043 -0.960099 2.227619 0
M  V30 39 C 4.407733 -1.330080 3.481142 0
M  V30 40 O 3.548352 -0.830438 4.320327 0
M  V30 41 C 2.609043 -0.172923 3.686766 0
M  V30 42 H 1.415174 2.317001 2.651220 0
M  V30 43 H 2.805667 2.694471 3.806941 0
M  V30 44 H 1.540558 3.955581 3.369575 0
M  V30 45 H 2.411140 4.142971 1.133745 0
M  V30 46 H 3.796341 4.155548 2.263178 0
M  V30 47 H 4.351703 1.910606 1.850478 0
M  V30 48 H 5.822908 5.270386 -3.327854 0
M  V30 49 H 4.942116 3.925335 -4.010819 0
M  V30 50 H 4.051731 5.435723 -3.376561 0
M  V30 51 H 2.721945 3.584110 -3.638594 0
M  V30 52 H -0.849097 1.042645 -3.990201 0
M  V30 53 H -0.389914 -0.476987 -0.563536 0
M  V30 54 H -1.843924 -2.131223 0.370386 0
M  V30 55 H -3.088242 -3.581547 1.082919 0
M  V30 56 H -5.543220 -5.030125 0.393878 0
M  V30 57 H -3.548112 -6.360514 0.081064 0
M  V30 58 H -4.418481 -6.900578 1.581028 0
M  V30 59 H -1.874435 -5.187802 1.396568 0
M  V30 60 H -2.103392 -6.816700 2.023223 0
M  V30 61 H -2.553709 -3.425620 4.025800 0
M  V30 62 H -1.526538 -4.756930 4.628936 0
M  V30 63 H -1.269885 -4.130615 2.960205 0
M  V30 64 H -4.765911 -6.149167 3.803204 0
M  V30 65 H -4.359111 -4.544083 4.446290 0
M  V30 66 H -5.010612 -3.352684 2.595338 0
M  V30 67 H -6.157735 -4.688491 2.602363 0
M  V30 68 H -4.168945 -2.005129 -3.138009 0
M  V30 69 H -4.069958 -0.138033 -6.021449 0
M  V30 70 H -3.804504 -1.789627 -5.338041 0
M  V30 71 H -4.852543 -0.622475 -4.487379 0
M  V30 72 H 2.238359 -0.578883 0.310130 0
M  V30 73 H 1.111507 0.430693 1.203381 0
M  V30 74 H 4.564768 -1.281275 1.376145 0
M  V30 75 H 5.264538 -1.909958 3.783192 0
M  V30 76 H 1.717440 0.384430 4.009415 0
M  V30 END ATOM
M  V30 BEGIN BOND
M  V30 1 1 1 2
M  V30 2 1 2 3
M  V30 3 1 3 4
M  V30 4 2 4 5
M  V30 5 1 5 6
M  V30 6 2 6 7
M  V30 7 1 7 8
M  V30 8 1 7 9
M  V30 9 1 9 10
M  V30 10 2 10 11
M  V30 11 1 11 12
M  V30 12 2 12 13
M  V30 13 1 13 14
M  V30 14 1 14 15
M  V30 15 2 15 16
M  V30 16 1 16 17
M  V30 17 2 17 18
M  V30 18 1 18 19
M  V30 19 2 19 20
M  V30 20 1 19 21
M  V30 21 1 21 22
M  V30 22 1 22 23
M  V30 23 1 23 24
M  V30 24 1 24 25
M  V30 25 1 25 26
M  V30 26 1 25 27
M  V30 27 1 27 28
M  V30 28 1 18 29
M  V30 29 2 29 30
M  V30 30 1 30 31
M  V30 31 1 31 32
M  V30 32 1 13 33
M  V30 33 2 33 34
M  V30 34 1 34 35
M  V30 35 1 35 36
M  V30 36 1 36 37
M  V30 37 1 37 38
M  V30 38 2 38 39
M  V30 39 1 39 40
M  V30 40 1 40 41
M  V30 41 1 35 3
M  V30 42 2 41 37
M  V30 43 1 9 4
M  V30 44 1 34 10
M  V30 45 1 30 15
M  V30 46 1 28 22
M  V30 47 1 1 42
M  V30 48 1 1 43
M  V30 49 1 1 44
M  V30 50 1 2 45
M  V30 51 1 2 46
M  V30 52 1 3 47 CFG=1
M  V30 53 1 8 48
M  V30 54 1 8 49
M  V30 55 1 8 50
M  V30 56 1 11 51
M  V30 57 1 14 52
M  V30 58 1 16 53
M  V30 59 1 17 54
M  V30 60 1 21 55
M  V30 61 1 22 56
M  V30 62 1 23 57
M  V30 63 1 23 58
M  V30 64 1 24 59
M  V30 65 1 24 60
M  V30 66 1 26 61
M  V30 67 1 26 62
M  V30 68 1 26 63
M  V30 69 1 27 64
M  V30 70 1 27 65
M  V30 71 1 28 66
M  V30 72 1 28 67
M  V30 73 1 29 68
M  V30 74 1 32 69
M  V30 75 1 32 70
M  V30 76 1 32 71
M  V30 77 1 36 72
M  V30 78 1 36 73
M  V30 79 1 38 74
M  V30 80 1 39 75
M  V30 81 1 41 76
M  V30 END BOND
M  V30 END CTAB
M  END
>  <Dataset>  (977) 
ChEMBL_Kinases

>  <Ligand_Instance>  (977) 
nan

>  <PDB_ID>  (977) 
nan

>  <Standardized_SMILES>  (977) 
CC[C@@H]1c2nnc(C)n2-c2cnc(Nc3ccc(C(=O)NC4CCN(C)CC4)cc3OC)nc2N1Cc1ccoc1

>  <Name>  (977) 
nan

>  <Pocket>  (977) 
nan

>  <ATP_Site>  (977) 
nan

>  <Peripheral>  (977) 
nan

>  <Num_H_Atoms_ProtBoundConf>  (977) 
nan

>  <Num_Resolved_Atoms>  (977) 
nan

>  <Num_Not_Resolved_Atoms>  (977) 
nan

$$$$
CHEMBL4777705
     RDKit          3D

  0  0  0  0  0  0  0  0  0  0999 V3000
M  V30 BEGIN CTAB
M  V30 COUNTS 51 55 0 0 0
M  V30 BEGIN ATOM
M  V30 1 N -4.802346 -3.768355 2.426689 0
M  V30 2 C -3.788125 -2.825583 2.021549 0
M  V30 3 N -4.091860 -1.514859 1.833703 0
M  V30 4 C -3.153754 -0.613991 1.453192 0
M  V30 5 C -1.852413 -1.022427 1.247229 0
M  V30 6 C -0.752141 -0.131315 0.829723 0
M  V30 7 C 0.555811 -0.391908 1.247734 0
M  V30 8 C 1.570665 0.458257 0.838233 0
M  V30 9 C 1.308742 1.540351 0.036185 0
M  V30 10 C 2.252411 2.545389 -0.494990 0
M  V30 11 C 1.996065 3.906526 0.039371 0
M  V30 12 N 0.862191 4.616993 -0.164219 0
M  V30 13 N 1.009131 5.783796 0.470437 0
M  V30 14 N 2.192594 5.813945 1.055798 0
M  V30 15 N 2.792297 4.684289 0.799213 0
M  V30 16 C 3.694203 2.233790 -0.215035 0
M  V30 17 C 4.055320 1.230009 -1.253866 0
M  V30 18 C 3.394929 1.798137 -2.491540 0
M  V30 19 C 2.228262 2.603592 -2.011353 0
M  V30 20 C 0.000427 1.807425 -0.386298 0
M  V30 21 C -1.031301 0.952812 0.023390 0
M  V30 22 C -1.573539 -2.368383 1.447385 0
M  V30 23 C -2.501041 -3.304519 1.832358 0
M  V30 24 C -2.106141 -4.695261 2.014956 0
M  V30 25 C -2.922655 -5.695090 1.490661 0
M  V30 26 C -2.607854 -7.031510 1.626408 0
M  V30 27 C -1.459089 -7.415248 2.295026 0
M  V30 28 Cl -0.928870 -9.061314 2.546605 0
M  V30 29 C -0.653627 -6.444604 2.811617 0
M  V30 30 C -0.953620 -5.083356 2.685655 0
M  V30 31 H -5.634863 -4.152294 1.927156 0
M  V30 32 H -4.854447 -4.250580 3.373165 0
M  V30 33 H -3.380985 0.441598 1.298472 0
M  V30 34 H 0.799652 -1.230494 1.876702 0
M  V30 35 H 2.593926 0.361247 1.090930 0
M  V30 36 H 2.334650 6.713484 1.558956 0
M  V30 37 H 3.900777 1.931227 0.815000 0
M  V30 38 H 4.265789 3.164637 -0.408145 0
M  V30 39 H 5.143304 1.161347 -1.450936 0
M  V30 40 H 3.642202 0.219620 -1.062008 0
M  V30 41 H 3.113991 1.006933 -3.215496 0
M  V30 42 H 4.128857 2.442820 -3.009744 0
M  V30 43 H 1.295741 2.078304 -2.359619 0
M  V30 44 H 2.229374 3.644494 -2.406890 0
M  V30 45 H -0.328626 2.623955 -1.014815 0
M  V30 46 H -2.057997 1.095576 -0.261571 0
M  V30 47 H -0.563907 -2.699883 1.290624 0
M  V30 48 H -3.852351 -5.481536 0.945938 0
M  V30 49 H -3.200897 -7.853350 1.242164 0
M  V30 50 H 0.277816 -6.658820 3.357156 0
M  V30 51 H -0.338975 -4.292578 3.081807 0
M  V30 END ATOM
M  V30 BEGIN BOND
M  V30 1 1 1 2
M  V30 2 2 2 3
M  V30 3 1 3 4
M  V30 4 2 4 5
M  V30 5 1 5 6
M  V30 6 2 6 7
M  V30 7 1 7 8
M  V30 8 2 8 9
M  V30 9 1 9 10
M  V30 10 1 10 11
M  V30 11 1 11 12
M  V30 12 2 12 13
M  V30 13 1 13 14
M  V30 14 1 14 15
M  V30 15 1 10 16
M  V30 16 1 16 17
M  V30 17 1 17 18
M  V30 18 1 18 19
M  V30 19 1 9 20
M  V30 20 2 20 21
M  V30 21 1 5 22
M  V30 22 2 22 23
M  V30 23 1 23 24
M  V30 24 2 24 25
M  V30 25 1 25 26
M  V30 26 2 26 27
M  V30 27 1 27 28
M  V30 28 1 27 29
M  V30 29 2 29 30
M  V30 30 1 23 2
M  V30 31 1 30 24
M  V30 32 1 21 6
M  V30 33 1 19 10
M  V30 34 2 15 11
M  V30 35 1 1 31
M  V30 36 1 1 32
M  V30 37 1 4 33
M  V30 38 1 7 34
M  V30 39 1 8 35
M  V30 40 1 14 36
M  V30 41 1 16 37
M  V30 42 1 16 38
M  V30 43 1 17 39
M  V30 44 1 17 40
M  V30 45 1 18 41
M  V30 46 1 18 42
M  V30 47 1 19 43
M  V30 48 1 19 44
M  V30 49 1 20 45
M  V30 50 1 21 46
M  V30 51 1 22 47
M  V30 52 1 25 48
M  V30 53 1 26 49
M  V30 54 1 29 50
M  V30 55 1 30 51
M  V30 END BOND
M  V30 END CTAB
M  END
>  <Dataset>  (978) 
ChEMBL_Kinases

>  <Ligand_Instance>  (978) 
nan

>  <PDB_ID>  (978) 
nan

>  <Standardized_SMILES>  (978) 
Nc1ncc(-c2ccc(C3(c4nn[nH]n4)CCCC3)cc2)cc1-c1ccc(Cl)cc1

>  <Name>  (978) 
nan

>  <Pocket>  (978) 
nan

>  <ATP_Site>  (978) 
nan

>  <Peripheral>  (978) 
nan

>  <Num_H_Atoms_ProtBoundConf>  (978) 
nan

>  <Num_Resolved_Atoms>  (978) 
nan

>  <Num_Not_Resolved_Atoms>  (978) 
nan

$$$$
CHEMBL4218937
     RDKit          3D

  0  0  0  0  0  0  0  0  0  0999 V3000
M  V30 BEGIN CTAB
M  V30 COUNTS 51 54 0 0 0
M  V30 BEGIN ATOM
M  V30 1 C 2.676673 1.944456 4.864377 0
M  V30 2 C 3.101609 0.632356 4.303208 0 CFG=2
M  V30 3 C 2.895243 -0.539837 5.270136 0
M  V30 4 O 3.296590 -1.746572 4.725356 0
M  V30 5 C 4.565564 0.578915 3.897324 0
M  V30 6 N 4.540921 -0.639144 3.071812 0
M  V30 7 C 3.352130 -0.461305 2.280567 0
M  V30 8 C 2.933797 -0.875908 1.014795 0
M  V30 9 C 3.823068 -1.678369 0.224781 0
M  V30 10 N 4.543818 -2.329450 -0.439543 0
M  V30 11 C 1.671230 -0.511125 0.535388 0
M  V30 12 C 0.831657 0.262561 1.314301 0
M  V30 13 C -0.468385 0.599154 0.739999 0
M  V30 14 C -1.433377 1.362238 1.360224 0
M  V30 15 C -2.643007 1.648534 0.759166 0
M  V30 16 N -2.875844 1.160871 -0.472103 0
M  V30 17 C -1.943794 0.407339 -1.104169 0
M  V30 18 N -2.188008 -0.110503 -2.413038 0
M  V30 19 C -2.859091 -1.359771 -2.505971 0
M  V30 20 C -3.283857 -2.055653 -1.395804 0
M  V30 21 C -3.942950 -3.256367 -1.304160 0
M  V30 22 C -4.312906 -3.840952 -0.068616 0
M  V30 23 N -4.606602 -4.339659 0.946779 0
M  V30 24 C -4.213854 -3.842709 -2.523244 0
M  V30 25 C -3.829801 -3.227366 -3.716905 0
M  V30 26 C -3.166404 -2.011380 -3.707568 0
M  V30 27 C -2.745257 -1.339544 -4.973013 0
M  V30 28 O -1.358608 -1.520528 -5.131585 0
M  V30 29 N -0.777575 0.148260 -0.490597 0
M  V30 30 C 1.196642 0.698990 2.572942 0
M  V30 31 C 2.448784 0.316006 3.004890 0
M  V30 32 H 2.116812 1.827356 5.815660 0
M  V30 33 H 3.542150 2.615861 4.988159 0
M  V30 34 H 1.968974 2.434122 4.161553 0
M  V30 35 H 1.820033 -0.625471 5.546065 0
M  V30 36 H 3.460018 -0.383135 6.200699 0
M  V30 37 H 2.550493 -2.217244 4.257505 0
M  V30 38 H 5.256123 0.515684 4.737352 0
M  V30 39 H 4.772229 1.452315 3.228806 0
M  V30 40 H 5.116481 -1.502627 2.939914 0
M  V30 41 H 1.430235 -0.875891 -0.455350 0
M  V30 42 H -1.235872 1.742899 2.337499 0
M  V30 43 H -3.387591 2.248200 1.260456 0
M  V30 44 H -1.921131 0.338548 -3.327760 0
M  V30 45 H -3.058115 -1.570670 -0.432218 0
M  V30 46 H -4.727946 -4.787451 -2.577831 0
M  V30 47 H -4.050472 -3.702696 -4.685531 0
M  V30 48 H -2.978114 -0.260388 -4.973076 0
M  V30 49 H -3.245131 -1.839901 -5.830669 0
M  V30 50 H -0.961076 -1.910703 -4.293281 0
M  V30 51 H 0.551199 1.300947 3.186984 0
M  V30 END ATOM
M  V30 BEGIN BOND
M  V30 1 1 2 1 CFG=1
M  V30 2 1 2 3
M  V30 3 1 3 4
M  V30 4 1 2 5
M  V30 5 1 5 6
M  V30 6 1 6 7
M  V30 7 2 7 8
M  V30 8 1 8 9
M  V30 9 3 9 10
M  V30 10 1 8 11
M  V30 11 2 11 12
M  V30 12 1 12 13
M  V30 13 2 13 14
M  V30 14 1 14 15
M  V30 15 2 15 16
M  V30 16 1 16 17
M  V30 17 1 17 18
M  V30 18 1 18 19
M  V30 19 2 19 20
M  V30 20 1 20 21
M  V30 21 1 21 22
M  V30 22 3 22 23
M  V30 23 2 21 24
M  V30 24 1 24 25
M  V30 25 2 25 26
M  V30 26 1 26 27
M  V30 27 1 27 28
M  V30 28 2 17 29
M  V30 29 1 12 30
M  V30 30 2 30 31
M  V30 31 1 31 2
M  V30 32 1 31 7
M  V30 33 1 29 13
M  V30 34 1 26 19
M  V30 35 1 1 32
M  V30 36 1 1 33
M  V30 37 1 1 34
M  V30 38 1 3 35
M  V30 39 1 3 36
M  V30 40 1 4 37
M  V30 41 1 5 38
M  V30 42 1 5 39
M  V30 43 1 6 40
M  V30 44 1 11 41
M  V30 45 1 14 42
M  V30 46 1 15 43
M  V30 47 1 18 44
M  V30 48 1 20 45
M  V30 49 1 24 46
M  V30 50 1 25 47
M  V30 51 1 27 48
M  V30 52 1 27 49
M  V30 53 1 28 50
M  V30 54 1 30 51
M  V30 END BOND
M  V30 END CTAB
M  END
>  <Dataset>  (979) 
ChEMBL_Kinases

>  <Ligand_Instance>  (979) 
nan

>  <PDB_ID>  (979) 
nan

>  <Standardized_SMILES>  (979) 
C[C@]1(CO)CNc2c(C#N)cc(-c3ccnc(Nc4cc(C#N)ccc4CO)n3)cc21

>  <Name>  (979) 
nan

>  <Pocket>  (979) 
nan

>  <ATP_Site>  (979) 
nan

>  <Peripheral>  (979) 
nan

>  <Num_H_Atoms_ProtBoundConf>  (979) 
nan

>  <Num_Resolved_Atoms>  (979) 
nan

>  <Num_Not_Resolved_Atoms>  (979) 
nan

$$$$
CHEMBL4218913
     RDKit          3D

  0  0  0  0  0  0  0  0  0  0999 V3000
M  V30 BEGIN CTAB
M  V30 COUNTS 22 24 0 0 0
M  V30 BEGIN ATOM
M  V30 1 Br -1.117107 -1.739730 5.420812 0
M  V30 2 C 0.051878 -1.157824 4.032949 0
M  V30 3 C 1.381919 -0.884349 4.201349 0
M  V30 4 N 1.856702 -0.506188 2.999935 0
M  V30 5 N 0.865326 -0.538203 2.101735 0
M  V30 6 C 1.037289 -0.190927 0.720894 0
M  V30 7 C 2.171006 -0.723788 0.122000 0
M  V30 8 C 2.308434 -0.365592 -1.224580 0
M  V30 9 N 1.430179 0.419380 -1.882129 0
M  V30 10 C 0.344510 0.917028 -1.270548 0
M  V30 11 N -0.680349 1.702838 -1.645499 0
M  V30 12 C -1.546723 1.925834 -0.632727 0
M  V30 13 C -1.042545 1.237490 0.461021 0
M  V30 14 C 0.125865 0.611004 0.076744 0
M  V30 15 C -0.279460 -0.938338 2.697645 0
M  V30 16 H 1.921645 -0.970956 5.158242 0
M  V30 17 H 2.893402 -1.346556 0.593856 0
M  V30 18 H 3.129704 -0.694886 -1.829321 0
M  V30 19 H -0.782744 2.089428 -2.611271 0
M  V30 20 H -2.452452 2.519017 -0.658852 0
M  V30 21 H -1.477192 1.192016 1.443194 0
M  V30 22 H -1.252760 -1.064278 2.240811 0
M  V30 END ATOM
M  V30 BEGIN BOND
M  V30 1 1 1 2
M  V30 2 1 2 3
M  V30 3 2 3 4
M  V30 4 1 4 5
M  V30 5 1 5 6
M  V30 6 2 6 7
M  V30 7 1 7 8
M  V30 8 2 8 9
M  V30 9 1 9 10
M  V30 10 1 10 11
M  V30 11 1 11 12
M  V30 12 2 12 13
M  V30 13 1 13 14
M  V30 14 1 5 15
M  V30 15 2 15 2
M  V30 16 1 14 6
M  V30 17 2 14 10
M  V30 18 1 3 16
M  V30 19 1 7 17
M  V30 20 1 8 18
M  V30 21 1 11 19
M  V30 22 1 12 20
M  V30 23 1 13 21
M  V30 24 1 15 22
M  V30 END BOND
M  V30 END CTAB
M  END
>  <Dataset>  (980) 
ChEMBL_Kinases

>  <Ligand_Instance>  (980) 
nan

>  <PDB_ID>  (980) 
nan

>  <Standardized_SMILES>  (980) 
Brc1cnn(-c2ccnc3[nH]ccc23)c1

>  <Name>  (980) 
nan

>  <Pocket>  (980) 
nan

>  <ATP_Site>  (980) 
nan

>  <Peripheral>  (980) 
nan

>  <Num_H_Atoms_ProtBoundConf>  (980) 
nan

>  <Num_Resolved_Atoms>  (980) 
nan

>  <Num_Not_Resolved_Atoms>  (980) 
nan

$$$$
CHEMBL4218893
     RDKit          3D

  0  0  0  0  0  0  0  0  0  0999 V3000
M  V30 BEGIN CTAB
M  V30 COUNTS 38 41 0 0 0
M  V30 BEGIN ATOM
M  V30 1 C 0.517298 -5.990944 2.579354 0
M  V30 2 O 1.892252 -5.605269 2.556954 0
M  V30 3 C 2.182840 -4.362370 2.011870 0
M  V30 4 C 3.482818 -3.894975 1.941719 0
M  V30 5 C 3.903307 -2.686218 1.427062 0
M  V30 6 C 2.893335 -1.854515 0.926257 0
M  V30 7 C 1.595293 -2.311298 0.992092 0
M  V30 8 C 0.515090 -1.468663 0.490498 0
M  V30 9 N 0.785193 -0.270511 -0.043857 0
M  V30 10 C -0.208292 0.511041 -0.497901 0
M  V30 11 N -0.054843 1.813589 -1.094783 0
M  V30 12 C 0.014370 2.973764 -0.265458 0
M  V30 13 C 0.066109 4.258018 -0.803139 0
M  V30 14 C 0.140502 5.363610 0.016965 0
M  V30 15 N 0.164602 5.214167 1.367762 0
M  V30 16 C 0.113841 3.958410 1.895319 0
M  V30 17 C 0.037335 2.793841 1.125238 0
M  V30 18 C -1.536537 0.100254 -0.426938 0
M  V30 19 C -2.788643 0.601459 -0.774179 0
M  V30 20 C -3.761942 -0.327807 -0.429556 0
M  V30 21 C -3.089796 -1.395230 0.128627 0
M  V30 22 N -1.769797 -1.107360 0.114593 0
M  V30 23 N -0.773469 -1.854958 0.553490 0
M  V30 24 N 1.260387 -3.512984 1.512778 0
M  V30 25 H 0.310597 -6.689525 3.418273 0
M  V30 26 H -0.170363 -5.129508 2.659661 0
M  V30 27 H 0.272652 -6.495746 1.614702 0
M  V30 28 H 4.275662 -4.550865 2.336290 0
M  V30 29 H 4.962355 -2.436927 1.431183 0
M  V30 30 H 3.188252 -0.916100 0.523090 0
M  V30 31 H 0.007988 1.936094 -2.131336 0
M  V30 32 H 0.046812 4.396949 -1.890500 0
M  V30 33 H 0.179913 6.370196 -0.426394 0
M  V30 34 H 0.131328 3.783366 2.983593 0
M  V30 35 H -0.000459 1.822978 1.610434 0
M  V30 36 H -2.876059 1.586173 -1.241135 0
M  V30 37 H -4.837611 -0.159455 -0.606348 0
M  V30 38 H -3.597599 -2.283817 0.495901 0
M  V30 END ATOM
M  V30 BEGIN BOND
M  V30 1 1 1 2
M  V30 2 1 2 3
M  V30 3 2 3 4
M  V30 4 1 4 5
M  V30 5 2 5 6
M  V30 6 1 6 7
M  V30 7 1 7 8
M  V30 8 1 8 9
M  V30 9 2 9 10
M  V30 10 1 10 11
M  V30 11 1 11 12
M  V30 12 2 12 13
M  V30 13 1 13 14
M  V30 14 2 14 15
M  V30 15 1 15 16
M  V30 16 2 16 17
M  V30 17 1 10 18
M  V30 18 2 18 19
M  V30 19 1 19 20
M  V30 20 2 20 21
M  V30 21 1 21 22
M  V30 22 1 22 23
M  V30 23 2 7 24
M  V30 24 1 24 3
M  V30 25 2 23 8
M  V30 26 1 17 12
M  V30 27 1 22 18
M  V30 28 1 1 25
M  V30 29 1 1 26
M  V30 30 1 1 27
M  V30 31 1 4 28
M  V30 32 1 5 29
M  V30 33 1 6 30
M  V30 34 1 11 31
M  V30 35 1 13 32
M  V30 36 1 14 33
M  V30 37 1 16 34
M  V30 38 1 17 35
M  V30 39 1 19 36
M  V30 40 1 20 37
M  V30 41 1 21 38
M  V30 END BOND
M  V30 END CTAB
M  END
>  <Dataset>  (981) 
ChEMBL_Kinases

>  <Ligand_Instance>  (981) 
nan

>  <PDB_ID>  (981) 
nan

>  <Standardized_SMILES>  (981) 
COc1cccc(-c2nc(Nc3ccncc3)c3cccn3n2)n1

>  <Name>  (981) 
nan

>  <Pocket>  (981) 
nan

>  <ATP_Site>  (981) 
nan

>  <Peripheral>  (981) 
nan

>  <Num_H_Atoms_ProtBoundConf>  (981) 
nan

>  <Num_Resolved_Atoms>  (981) 
nan

>  <Num_Not_Resolved_Atoms>  (981) 
nan

$$$$
CHEMBL4218856
     RDKit          3D

  0  0  0  0  0  0  0  0  0  0999 V3000
M  V30 BEGIN CTAB
M  V30 COUNTS 39 42 0 0 0
M  V30 BEGIN ATOM
M  V30 1 O -1.745003 -1.446458 0.828821 0
M  V30 2 C -0.795581 -2.178647 0.440127 0
M  V30 3 N -0.653883 -3.541612 0.014320 0
M  V30 4 C 0.713484 -3.777222 -0.305242 0
M  V30 5 C 1.281777 -4.959409 -0.756148 0
M  V30 6 C 2.627406 -4.984700 -1.010028 0
M  V30 7 C 3.404393 -3.843517 -0.817548 0
M  V30 8 C 2.802266 -2.683481 -0.366942 0
M  V30 9 C 1.437815 -2.621450 -0.098837 0
M  V30 10 C 0.547816 -1.567426 0.373391 0
M  V30 11 N 1.024939 -0.377118 0.635193 0
M  V30 12 N 0.195043 0.656606 1.090440 0
M  V30 13 C -0.412245 1.448358 0.082481 0
M  V30 14 C -0.875093 2.725990 0.243417 0
M  V30 15 C -1.481307 3.483625 -0.735725 0
M  V30 16 C -1.642843 2.925065 -1.986646 0
M  V30 17 C -1.191631 1.639637 -2.197295 0
M  V30 18 C -0.593422 0.929838 -1.181053 0
M  V30 19 C 0.102367 0.736575 2.501703 0
M  V30 20 C 1.075458 0.221121 3.331346 0
M  V30 21 C 1.003009 0.270916 4.700377 0
M  V30 22 C -0.071073 0.852200 5.337161 0
M  V30 23 C -1.065188 1.378952 4.552296 0
M  V30 24 C -0.950490 1.306282 3.185603 0
M  V30 25 H -1.518771 -4.127537 0.000834 0
M  V30 26 H 0.695691 -5.855344 -0.911642 0
M  V30 27 H 3.053430 -5.916099 -1.361302 0
M  V30 28 H 4.464086 -3.885847 -1.024056 0
M  V30 29 H 3.431408 -1.793569 -0.221098 0
M  V30 30 H -0.774187 3.226919 1.180274 0
M  V30 31 H -1.834664 4.475518 -0.590061 0
M  V30 32 H -2.112204 3.477392 -2.789268 0
M  V30 33 H -1.339205 1.241030 -3.195427 0
M  V30 34 H -0.286138 -0.061139 -1.475208 0
M  V30 35 H 1.951781 -0.252728 2.868794 0
M  V30 36 H 1.830187 -0.168319 5.265211 0
M  V30 37 H -0.025884 0.836805 6.416330 0
M  V30 38 H -1.903426 1.832649 5.059394 0
M  V30 39 H -1.783153 1.735341 2.662127 0
M  V30 END ATOM
M  V30 BEGIN BOND
M  V30 1 2 1 2
M  V30 2 1 2 3
M  V30 3 1 3 4
M  V30 4 2 4 5
M  V30 5 1 5 6
M  V30 6 2 6 7
M  V30 7 1 7 8
M  V30 8 2 8 9
M  V30 9 1 9 10
M  V30 10 2 10 11 CFG=2
M  V30 11 1 11 12
M  V30 12 1 12 13
M  V30 13 2 13 14
M  V30 14 1 14 15
M  V30 15 2 15 16
M  V30 16 1 16 17
M  V30 17 2 17 18
M  V30 18 1 12 19
M  V30 19 2 19 20
M  V30 20 1 20 21
M  V30 21 2 21 22
M  V30 22 1 22 23
M  V30 23 2 23 24
M  V30 24 1 10 2
M  V30 25 1 18 13
M  V30 26 1 24 19
M  V30 27 1 9 4
M  V30 28 1 3 25
M  V30 29 1 5 26
M  V30 30 1 6 27
M  V30 31 1 7 28
M  V30 32 1 8 29
M  V30 33 1 14 30
M  V30 34 1 15 31
M  V30 35 1 16 32
M  V30 36 1 17 33
M  V30 37 1 18 34
M  V30 38 1 20 35
M  V30 39 1 21 36
M  V30 40 1 22 37
M  V30 41 1 23 38
M  V30 42 1 24 39
M  V30 END BOND
M  V30 END CTAB
M  END
>  <Dataset>  (982) 
ChEMBL_Kinases

>  <Ligand_Instance>  (982) 
nan

>  <PDB_ID>  (982) 
nan

>  <Standardized_SMILES>  (982) 
O=C1Nc2ccccc2C1=NN(c1ccccc1)c1ccccc1

>  <Name>  (982) 
nan

>  <Pocket>  (982) 
nan

>  <ATP_Site>  (982) 
nan

>  <Peripheral>  (982) 
nan

>  <Num_H_Atoms_ProtBoundConf>  (982) 
nan

>  <Num_Resolved_Atoms>  (982) 
nan

>  <Num_Not_Resolved_Atoms>  (982) 
nan

$$$$
CHEMBL4777753
     RDKit          3D

  0  0  0  0  0  0  0  0  0  0999 V3000
M  V30 BEGIN CTAB
M  V30 COUNTS 73 77 0 0 0
M  V30 BEGIN ATOM
M  V30 1 C 4.979234 -0.676826 3.317980 0
M  V30 2 O 3.821104 0.166016 3.426406 0
M  V30 3 C 2.582691 -0.331361 3.773313 0
M  V30 4 O 2.397123 -1.554357 4.014774 0
M  V30 5 C 1.471916 0.589309 3.858787 0
M  V30 6 S -0.169823 0.054223 4.296655 0
M  V30 7 C -0.932956 1.677200 4.189729 0
M  V30 8 C 0.129355 2.500374 3.827529 0
M  V30 9 C -0.145991 3.970593 3.644022 0
M  V30 10 C 1.359552 1.910533 3.663701 0
M  V30 11 N 2.527217 2.633570 3.298374 0
M  V30 12 C 2.928818 2.801404 1.947326 0
M  V30 13 N 2.254459 2.283889 0.915321 0
M  V30 14 C 2.530204 2.372610 -0.369276 0
M  V30 15 N 1.803367 1.814259 -1.432922 0
M  V30 16 C 0.620415 1.034713 -1.388049 0
M  V30 17 C -0.055779 0.683781 -0.237780 0
M  V30 18 C -1.205381 -0.071751 -0.153672 0
M  V30 19 C -1.753656 -0.535004 -1.327317 0
M  V30 20 N -2.929496 -1.321329 -1.325536 0
M  V30 21 C -3.587805 -1.784387 -0.111935 0
M  V30 22 C -4.319207 -3.088069 -0.295812 0
M  V30 23 C -3.736781 -3.984531 -1.336468 0
M  V30 24 N -2.618802 -4.772261 -0.983164 0
M  V30 25 C -2.104227 -5.597746 -2.035311 0
M  V30 26 C -1.557575 -6.853703 -1.397485 0
M  V30 27 C -2.148616 -6.905823 -0.014198 0
M  V30 28 C -2.570862 -5.471659 0.222517 0
M  V30 29 C -3.370835 -3.252554 -2.612011 0
M  V30 30 C -3.636909 -1.766470 -2.509065 0
M  V30 31 C -1.130258 -0.221616 -2.511684 0
M  V30 32 C 0.017720 0.536662 -2.550516 0
M  V30 33 O 0.633850 0.841779 -3.780923 0
M  V30 34 C 0.099710 0.383752 -5.003779 0
M  V30 35 N 3.637063 3.079531 -0.651247 0
M  V30 36 C 4.403399 3.650707 0.286511 0
M  V30 37 C 4.042240 3.508589 1.605745 0
M  V30 38 N 4.869072 4.124755 2.559737 0 CHG=1 VAL=4
M  V30 39 O 4.726486 4.650051 3.677514 0
M  V30 40 O 6.243058 4.289002 2.394658 0 CHG=-1 VAL=1
M  V30 41 H 5.903560 -0.102511 3.414608 0
M  V30 42 H 4.907447 -1.347535 4.215772 0
M  V30 43 H 4.958673 -1.289867 2.411581 0
M  V30 44 H -1.951077 1.916144 4.366738 0
M  V30 45 H -0.613477 4.203722 2.689997 0
M  V30 46 H -0.746803 4.356278 4.515584 0
M  V30 47 H 0.803373 4.559809 3.704213 0
M  V30 48 H 3.088752 3.043376 4.065729 0
M  V30 49 H 2.162191 1.981003 -2.413895 0
M  V30 50 H 0.325583 1.018494 0.715472 0
M  V30 51 H -1.650121 -0.282915 0.810698 0
M  V30 52 H -2.914785 -1.838569 0.764547 0
M  V30 53 H -4.307147 -0.948831 0.127821 0
M  V30 54 H -5.366830 -2.839163 -0.579127 0
M  V30 55 H -4.393448 -3.630350 0.665538 0
M  V30 56 H -4.542408 -4.697513 -1.621793 0
M  V30 57 H -1.225332 -5.045844 -2.471334 0
M  V30 58 H -2.790363 -5.773761 -2.870486 0
M  V30 59 H -1.823993 -7.744527 -1.993884 0
M  V30 60 H -0.451924 -6.820491 -1.310175 0
M  V30 61 H -1.408262 -7.258322 0.736148 0
M  V30 62 H -2.998442 -7.611354 0.068253 0
M  V30 63 H -3.426884 -5.393559 0.913950 0
M  V30 64 H -1.716916 -5.031828 0.822085 0
M  V30 65 H -3.932516 -3.604627 -3.502546 0
M  V30 66 H -2.294900 -3.352497 -2.869570 0
M  V30 67 H -3.328286 -1.308769 -3.443033 0
M  V30 68 H -4.749407 -1.672262 -2.360893 0
M  V30 69 H -1.481340 -0.538178 -3.486200 0
M  V30 70 H -0.945008 0.802071 -5.063871 0
M  V30 71 H 0.119688 -0.714138 -5.063115 0
M  V30 72 H 0.649156 0.893521 -5.817070 0
M  V30 73 H 5.278883 4.199513 -0.071062 0
M  V30 END ATOM
M  V30 BEGIN BOND
M  V30 1 1 1 2
M  V30 2 1 2 3
M  V30 3 2 3 4
M  V30 4 1 3 5
M  V30 5 1 5 6
M  V30 6 1 6 7
M  V30 7 2 7 8
M  V30 8 1 8 9
M  V30 9 1 8 10
M  V30 10 1 10 11
M  V30 11 1 11 12
M  V30 12 2 12 13
M  V30 13 1 13 14
M  V30 14 1 14 15
M  V30 15 1 15 16
M  V30 16 2 16 17
M  V30 17 1 17 18
M  V30 18 2 18 19
M  V30 19 1 19 20
M  V30 20 1 20 21
M  V30 21 1 21 22
M  V30 22 1 22 23
M  V30 23 1 23 24
M  V30 24 1 24 25
M  V30 25 1 25 26
M  V30 26 1 26 27
M  V30 27 1 27 28
M  V30 28 1 23 29
M  V30 29 1 29 30
M  V30 30 1 19 31
M  V30 31 2 31 32
M  V30 32 1 32 33
M  V30 33 1 33 34
M  V30 34 2 14 35
M  V30 35 1 35 36
M  V30 36 2 36 37
M  V30 37 1 37 38
M  V30 38 2 38 39
M  V30 39 1 38 40
M  V30 40 2 10 5
M  V30 41 1 37 12
M  V30 42 1 32 16
M  V30 43 1 30 20
M  V30 44 1 28 24
M  V30 45 1 1 41
M  V30 46 1 1 42
M  V30 47 1 1 43
M  V30 48 1 7 44
M  V30 49 1 9 45
M  V30 50 1 9 46
M  V30 51 1 9 47
M  V30 52 1 11 48
M  V30 53 1 15 49
M  V30 54 1 17 50
M  V30 55 1 18 51
M  V30 56 1 21 52
M  V30 57 1 21 53
M  V30 58 1 22 54
M  V30 59 1 22 55
M  V30 60 1 23 56
M  V30 61 1 25 57
M  V30 62 1 25 58
M  V30 63 1 26 59
M  V30 64 1 26 60
M  V30 65 1 27 61
M  V30 66 1 27 62
M  V30 67 1 28 63
M  V30 68 1 28 64
M  V30 69 1 29 65
M  V30 70 1 29 66
M  V30 71 1 30 67
M  V30 72 1 30 68
M  V30 73 1 31 69
M  V30 74 1 34 70
M  V30 75 1 34 71
M  V30 76 1 34 72
M  V30 77 1 36 73
M  V30 END BOND
M  V30 END CTAB
M  END
>  <Dataset>  (983) 
ChEMBL_Kinases

>  <Ligand_Instance>  (983) 
nan

>  <PDB_ID>  (983) 
nan

>  <Standardized_SMILES>  (983) 
COC(=O)c1scc(C)c1Nc1nc(Nc2ccc(N3CCC(N4CCCC4)CC3)cc2OC)ncc1[N+](=O)[O-]

>  <Name>  (983) 
nan

>  <Pocket>  (983) 
nan

>  <ATP_Site>  (983) 
nan

>  <Peripheral>  (983) 
nan

>  <Num_H_Atoms_ProtBoundConf>  (983) 
nan

>  <Num_Resolved_Atoms>  (983) 
nan

>  <Num_Not_Resolved_Atoms>  (983) 
nan

$$$$
CHEMBL4218831
     RDKit          3D

  0  0  0  0  0  0  0  0  0  0999 V3000
M  V30 BEGIN CTAB
M  V30 COUNTS 77 82 0 0 0
M  V30 BEGIN ATOM
M  V30 1 C 9.363123 -3.236486 3.815345 0
M  V30 2 C 8.681130 -2.375689 2.799749 0
M  V30 3 C 7.372592 -2.678907 2.489415 0
M  V30 4 C 6.699089 -1.918171 1.562063 0
M  V30 5 C 7.235921 -0.847519 0.895740 0
M  V30 6 N 6.590565 -0.029304 -0.064658 0
M  V30 7 C 5.271657 -0.127745 -0.540038 0
M  V30 8 N 4.389737 -1.052946 -0.150542 0
M  V30 9 C 3.132880 -1.147708 -0.598054 0
M  V30 10 C 2.687582 -0.225369 -1.539622 0
M  V30 11 C 3.614065 0.719333 -1.925729 0
M  V30 12 N 4.848660 0.761890 -1.445428 0
M  V30 13 N 3.118367 1.660309 -2.886757 0
M  V30 14 C 4.004601 2.687608 -3.364983 0
M  V30 15 C 1.791750 1.590705 -3.367684 0
M  V30 16 O 1.300730 2.367724 -4.197191 0
M  V30 17 N 0.914766 0.592799 -2.914805 0
M  V30 18 C -0.455860 0.361741 -3.235027 0
M  V30 19 C -1.372797 0.943360 -2.357492 0
M  V30 20 C -2.708983 0.712761 -2.673813 0
M  V30 21 N -3.663664 1.305481 -1.761911 0
M  V30 22 C -3.831364 0.281107 -0.803912 0
M  V30 23 O -3.116968 -0.740498 -1.081652 0
M  V30 24 C -4.682347 0.266045 0.398042 0
M  V30 25 C -4.643509 -0.877866 1.163305 0
M  V30 26 C -5.384563 -0.995906 2.298091 0
M  V30 27 N -5.337809 -2.191298 3.073077 0
M  V30 28 C -4.694490 -3.431741 2.663904 0
M  V30 29 C -3.480273 -3.511600 3.603601 0
M  V30 30 O -4.051558 -3.743596 4.870625 0
M  V30 31 C -4.731746 -2.620143 5.310892 0
M  V30 32 C -5.910606 -2.359279 4.397285 0
M  V30 33 C -6.193240 0.044145 2.697457 0
M  V30 34 C -6.218219 1.197421 1.904214 0
M  V30 35 C -7.100369 2.335482 2.334848 0
M  V30 36 F -6.730424 2.796931 3.575215 0
M  V30 37 F -8.419311 1.925876 2.428291 0
M  V30 38 F -7.013990 3.375921 1.456208 0
M  V30 39 C -5.469835 1.340300 0.741771 0
M  V30 40 C -3.197742 -0.010158 -3.734323 0
M  V30 41 C -2.242024 -0.556800 -4.560693 0
M  V30 42 C -0.893358 -0.373691 -4.314839 0
M  V30 43 C 0.088634 -0.974488 -5.238966 0
M  V30 44 C 1.286142 -0.434408 -1.961352 0
M  V30 45 C 8.548959 -0.616559 1.268201 0
M  V30 46 N 9.241275 -1.318997 2.155680 0
M  V30 47 H 10.422385 -2.942963 3.965097 0
M  V30 48 H 9.337836 -4.284048 3.395960 0
M  V30 49 H 8.781275 -3.274165 4.776678 0
M  V30 50 H 6.885465 -3.523832 2.985476 0
M  V30 51 H 5.695220 -2.208590 1.370016 0
M  V30 52 H 7.205200 0.744584 -0.453934 0
M  V30 53 H 2.554511 -1.946532 -0.186221 0
M  V30 54 H 4.846622 2.206621 -3.930649 0
M  V30 55 H 4.395081 3.257738 -2.498176 0
M  V30 56 H 3.460047 3.371389 -4.041640 0
M  V30 57 H -1.081143 1.532412 -1.493952 0
M  V30 58 H -4.243804 2.176255 -1.571656 0
M  V30 59 H -4.025403 -1.689600 0.878201 0
M  V30 60 H -5.308479 -4.338218 2.959713 0
M  V30 61 H -4.440211 -3.501993 1.614490 0
M  V30 62 H -2.761022 -4.272375 3.323172 0
M  V30 63 H -2.993687 -2.511279 3.667702 0
M  V30 64 H -5.180048 -2.923505 6.303163 0
M  V30 65 H -4.058626 -1.764400 5.411457 0
M  V30 66 H -6.518113 -3.313199 4.425176 0
M  V30 67 H -6.576709 -1.581051 4.733543 0
M  V30 68 H -6.804423 0.041432 3.562849 0
M  V30 69 H -5.491511 2.229993 0.134858 0
M  V30 70 H -4.260135 -0.103147 -3.852419 0
M  V30 71 H -2.573025 -1.142467 -5.420918 0
M  V30 72 H 0.959455 -1.402056 -4.711321 0
M  V30 73 H -0.350972 -1.831315 -5.822020 0
M  V30 74 H 0.407422 -0.254717 -6.041874 0
M  V30 75 H 0.664604 -0.281328 -1.049603 0
M  V30 76 H 1.146908 -1.456680 -2.345308 0
M  V30 77 H 9.129842 0.203980 0.834266 0
M  V30 END ATOM
M  V30 BEGIN BOND
M  V30 1 1 1 2
M  V30 2 2 2 3
M  V30 3 1 3 4
M  V30 4 2 4 5
M  V30 5 1 5 6
M  V30 6 1 6 7
M  V30 7 2 7 8
M  V30 8 1 8 9
M  V30 9 2 9 10
M  V30 10 1 10 11
M  V30 11 2 11 12
M  V30 12 1 11 13
M  V30 13 1 13 14
M  V30 14 1 13 15
M  V30 15 2 15 16
M  V30 16 1 15 17
M  V30 17 1 17 18
M  V30 18 2 18 19
M  V30 19 1 19 20
M  V30 20 1 20 21
M  V30 21 1 21 22
M  V30 22 2 22 23
M  V30 23 1 22 24
M  V30 24 2 24 25
M  V30 25 1 25 26
M  V30 26 1 26 27
M  V30 27 1 27 28
M  V30 28 1 28 29
M  V30 29 1 29 30
M  V30 30 1 30 31
M  V30 31 1 31 32
M  V30 32 2 26 33
M  V30 33 1 33 34
M  V30 34 1 34 35
M  V30 35 1 35 36
M  V30 36 1 35 37
M  V30 37 1 35 38
M  V30 38 2 34 39
M  V30 39 2 20 40
M  V30 40 1 40 41
M  V30 41 2 41 42
M  V30 42 1 42 43
M  V30 43 1 17 44
M  V30 44 1 5 45
M  V30 45 2 45 46
M  V30 46 1 46 2
M  V30 47 1 12 7
M  V30 48 1 42 18
M  V30 49 1 44 10
M  V30 50 1 39 24
M  V30 51 1 32 27
M  V30 52 1 1 47
M  V30 53 1 1 48
M  V30 54 1 1 49
M  V30 55 1 3 50
M  V30 56 1 4 51
M  V30 57 1 6 52
M  V30 58 1 9 53
M  V30 59 1 14 54
M  V30 60 1 14 55
M  V30 61 1 14 56
M  V30 62 1 19 57
M  V30 63 1 21 58
M  V30 64 1 25 59
M  V30 65 1 28 60
M  V30 66 1 28 61
M  V30 67 1 29 62
M  V30 68 1 29 63
M  V30 69 1 31 64
M  V30 70 1 31 65
M  V30 71 1 32 66
M  V30 72 1 32 67
M  V30 73 1 33 68
M  V30 74 1 39 69
M  V30 75 1 40 70
M  V30 76 1 41 71
M  V30 77 1 43 72
M  V30 78 1 43 73
M  V30 79 1 43 74
M  V30 80 1 44 75
M  V30 81 1 44 76
M  V30 82 1 45 77
M  V30 END BOND
M  V30 END CTAB
M  END
>  <Dataset>  (984) 
ChEMBL_Kinases

>  <Ligand_Instance>  (984) 
nan

>  <PDB_ID>  (984) 
nan

>  <Standardized_SMILES>  (984) 
Cc1ccc(Nc2ncc3c(n2)N(C)C(=O)N(c2cc(NC(=O)c4cc(N5CCOCC5)cc(C(F)(F)F)c4)ccc2C)C3)cn1

>  <Name>  (984) 
nan

>  <Pocket>  (984) 
nan

>  <ATP_Site>  (984) 
nan

>  <Peripheral>  (984) 
nan

>  <Num_H_Atoms_ProtBoundConf>  (984) 
nan

>  <Num_Resolved_Atoms>  (984) 
nan

>  <Num_Not_Resolved_Atoms>  (984) 
nan

$$$$
CHEMBL4777762
     RDKit          3D

  0  0  0  0  0  0  0  0  0  0999 V3000
M  V30 BEGIN CTAB
M  V30 COUNTS 43 46 0 0 0
M  V30 BEGIN ATOM
M  V30 1 C -1.274552 -3.954586 0.346555 0
M  V30 2 C 0.098753 -3.954582 0.896485 0
M  V30 3 O 0.354261 -4.791863 1.799543 0
M  V30 4 N 1.094357 -3.052359 0.432315 0
M  V30 5 C 2.453586 -2.981805 0.909105 0
M  V30 6 C 2.776478 -1.515706 0.708328 0
M  V30 7 C 2.092054 -1.194162 -0.625108 0 CFG=2
M  V30 8 N 1.797347 0.213863 -0.742141 0
M  V30 9 C 2.341926 1.070794 -1.645910 0
M  V30 10 C 3.340835 0.689071 -2.671059 0
M  V30 11 N 1.807577 2.293659 -1.427379 0
M  V30 12 C 0.935403 2.227920 -0.403072 0
M  V30 13 C 0.112442 3.119125 0.254789 0
M  V30 14 C -0.654126 2.632451 1.293978 0
M  V30 15 C -0.661558 1.322943 1.726571 0
M  V30 16 C -1.486435 0.851396 2.827929 0
M  V30 17 C -2.344965 1.637519 3.560742 0
M  V30 18 C -3.110670 1.137426 4.603306 0
M  V30 19 N -3.000460 -0.169148 4.899655 0
M  V30 20 C -2.180612 -0.978822 4.218954 0
M  V30 21 C -1.410295 -0.477076 3.170548 0
M  V30 22 N 0.161225 0.504965 1.045198 0
M  V30 23 C 0.928602 0.904716 0.033228 0
M  V30 24 C 0.870515 -2.056798 -0.609392 0
M  V30 25 H -1.957230 -3.686749 1.200343 0
M  V30 26 H -1.431475 -3.247462 -0.472426 0
M  V30 27 H -1.538409 -5.013752 0.073258 0
M  V30 28 H 3.169006 -3.555038 0.293079 0
M  V30 29 H 2.514151 -3.226051 1.980990 0
M  V30 30 H 3.845313 -1.294647 0.693540 0
M  V30 31 H 2.197530 -0.933445 1.474528 0
M  V30 32 H 2.819804 -1.485430 -1.410034 0
M  V30 33 H 4.097829 -0.026047 -2.265241 0
M  V30 34 H 3.849757 1.587963 -3.077971 0
M  V30 35 H 2.858394 0.181042 -3.534249 0
M  V30 36 H 0.089952 4.155401 -0.054913 0
M  V30 37 H -1.283015 3.364468 1.780195 0
M  V30 38 H -2.424979 2.668527 3.318899 0
M  V30 39 H -3.762123 1.814119 5.133399 0
M  V30 40 H -2.100405 -2.022325 4.464627 0
M  V30 41 H -0.742586 -1.144354 2.618698 0
M  V30 42 H 0.000705 -1.420310 -0.344873 0
M  V30 43 H 0.731058 -2.574233 -1.586228 0
M  V30 END ATOM
M  V30 BEGIN BOND
M  V30 1 1 1 2
M  V30 2 2 2 3
M  V30 3 1 2 4
M  V30 4 1 4 5
M  V30 5 1 5 6
M  V30 6 1 6 7
M  V30 7 1 7 8
M  V30 8 1 8 9
M  V30 9 1 9 10
M  V30 10 2 9 11
M  V30 11 1 11 12
M  V30 12 2 12 13
M  V30 13 1 13 14
M  V30 14 2 14 15
M  V30 15 1 15 16
M  V30 16 2 16 17
M  V30 17 1 17 18
M  V30 18 2 18 19
M  V30 19 1 19 20
M  V30 20 2 20 21
M  V30 21 1 15 22
M  V30 22 2 22 23
M  V30 23 1 7 24
M  V30 24 1 24 4
M  V30 25 1 23 8
M  V30 26 1 23 12
M  V30 27 1 21 16
M  V30 28 1 1 25
M  V30 29 1 1 26
M  V30 30 1 1 27
M  V30 31 1 5 28
M  V30 32 1 5 29
M  V30 33 1 6 30
M  V30 34 1 6 31
M  V30 35 1 7 32 CFG=3
M  V30 36 1 10 33
M  V30 37 1 10 34
M  V30 38 1 10 35
M  V30 39 1 13 36
M  V30 40 1 14 37
M  V30 41 1 17 38
M  V30 42 1 18 39
M  V30 43 1 20 40
M  V30 44 1 21 41
M  V30 45 1 24 42
M  V30 46 1 24 43
M  V30 END BOND
M  V30 END CTAB
M  END
>  <Dataset>  (985) 
ChEMBL_Kinases

>  <Ligand_Instance>  (985) 
nan

>  <PDB_ID>  (985) 
nan

>  <Standardized_SMILES>  (985) 
CC(=O)N1CC[C@H](n2c(C)nc3ccc(-c4ccncc4)nc32)C1

>  <Name>  (985) 
nan

>  <Pocket>  (985) 
nan

>  <ATP_Site>  (985) 
nan

>  <Peripheral>  (985) 
nan

>  <Num_H_Atoms_ProtBoundConf>  (985) 
nan

>  <Num_Resolved_Atoms>  (985) 
nan

>  <Num_Not_Resolved_Atoms>  (985) 
nan

$$$$
CHEMBL4218769
     RDKit          3D

  0  0  0  0  0  0  0  0  0  0999 V3000
M  V30 BEGIN CTAB
M  V30 COUNTS 62 65 0 0 0
M  V30 BEGIN ATOM
M  V30 1 C 1.301805 1.160667 -4.910751 0
M  V30 2 C -0.178763 1.031156 -4.949320 0
M  V30 3 N -0.672103 -0.210356 -4.350799 0
M  V30 4 C -0.295396 -1.316886 -5.148413 0
M  V30 5 C -0.687165 -2.675217 -4.685450 0
M  V30 6 C -2.058406 0.023778 -4.126550 0 CFG=1
M  V30 7 C -2.874366 0.271730 -5.377005 0
M  V30 8 C -2.750094 -0.899197 -3.177657 0
M  V30 9 N -2.137098 -0.843704 -1.849850 0
M  V30 10 C -2.540183 -1.586262 -0.714979 0
M  V30 11 O -3.500095 -2.374142 -0.798306 0
M  V30 12 C -1.877635 -1.478255 0.578363 0
M  V30 13 C -2.360006 -2.249279 1.626896 0
M  V30 14 C -1.739554 -2.163447 2.873949 0
M  V30 15 N -2.182141 -2.925894 3.996087 0
M  V30 16 C -1.429091 -4.167415 3.921064 0
M  V30 17 N -0.676796 -1.343787 3.081759 0
M  V30 18 C -0.179926 -0.576959 2.079504 0
M  V30 19 C 0.959437 0.324566 2.236990 0
M  V30 20 C 1.559341 1.155083 1.311685 0
M  V30 21 N 2.590988 1.814527 1.890844 0
M  V30 22 N 2.615257 1.385527 3.158708 0
M  V30 23 C 3.473778 1.762160 4.124750 0
M  V30 24 C 3.428615 1.264275 5.420858 0
M  V30 25 C 2.428627 0.346401 5.646152 0
M  V30 26 C 2.265022 -0.256419 6.952340 0
M  V30 27 C 1.414216 -1.144282 7.457351 0
M  V30 28 C 1.498576 -1.539528 8.763294 0
M  V30 29 C 2.534657 -0.947603 9.520197 0
M  V30 30 S 3.399433 0.209441 8.292852 0
M  V30 31 N 1.576734 -0.023780 4.677506 0
M  V30 32 C 1.642107 0.475557 3.424989 0
M  V30 33 C -0.798025 -0.670983 0.862013 0
M  V30 34 H 1.813763 0.347917 -4.349060 0
M  V30 35 H 1.559626 2.089415 -4.360217 0
M  V30 36 H 1.770836 1.315978 -5.925238 0
M  V30 37 H -0.672239 1.880838 -4.479613 0
M  V30 38 H -0.484135 1.025555 -6.022873 0
M  V30 39 H 0.835954 -1.297511 -5.188165 0
M  V30 40 H -0.590200 -1.237827 -6.216388 0
M  V30 41 H -0.654213 -2.849936 -3.601170 0
M  V30 42 H 0.083983 -3.403445 -5.092160 0
M  V30 43 H -1.632856 -3.057489 -5.174200 0
M  V30 44 H -2.076522 1.040108 -3.604428 0
M  V30 45 H -3.945865 0.237812 -5.091310 0
M  V30 46 H -2.663221 -0.432914 -6.185294 0
M  V30 47 H -2.697139 1.289442 -5.793932 0
M  V30 48 H -2.846623 -1.936959 -3.474094 0
M  V30 49 H -3.815494 -0.552279 -2.992632 0
M  V30 50 H -1.327832 -0.196234 -1.729881 0
M  V30 51 H -3.188279 -2.916680 1.547813 0
M  V30 52 H -2.876490 -2.784095 4.788519 0
M  V30 53 H -1.639574 -4.790731 4.822531 0
M  V30 54 H -1.618197 -4.708217 2.974836 0
M  V30 55 H -0.326867 -4.008054 3.948915 0
M  V30 56 H 1.209958 1.227488 0.285337 0
M  V30 57 H 4.260176 2.494824 3.917057 0
M  V30 58 H 4.127259 1.582925 6.170810 0
M  V30 59 H 0.661127 -1.531321 6.785465 0
M  V30 60 H 0.849053 -2.251378 9.246613 0
M  V30 61 H 2.738186 -1.165936 10.603283 0
M  V30 62 H -0.407108 -0.065008 0.064109 0
M  V30 END ATOM
M  V30 BEGIN BOND
M  V30 1 1 1 2
M  V30 2 1 2 3
M  V30 3 1 3 4
M  V30 4 1 4 5
M  V30 5 1 3 6
M  V30 6 1 6 7
M  V30 7 1 6 8
M  V30 8 1 8 9
M  V30 9 1 9 10
M  V30 10 2 10 11
M  V30 11 1 10 12
M  V30 12 2 12 13
M  V30 13 1 13 14
M  V30 14 1 14 15
M  V30 15 1 15 16
M  V30 16 2 14 17
M  V30 17 1 17 18
M  V30 18 1 18 19
M  V30 19 1 19 20
M  V30 20 2 20 21
M  V30 21 1 21 22
M  V30 22 1 22 23
M  V30 23 2 23 24
M  V30 24 1 24 25
M  V30 25 1 25 26
M  V30 26 2 26 27
M  V30 27 1 27 28
M  V30 28 2 28 29
M  V30 29 1 29 30
M  V30 30 2 25 31
M  V30 31 1 31 32
M  V30 32 2 18 33
M  V30 33 1 33 12
M  V30 34 2 32 19
M  V30 35 1 32 22
M  V30 36 1 30 26
M  V30 37 1 1 34
M  V30 38 1 1 35
M  V30 39 1 1 36
M  V30 40 1 2 37
M  V30 41 1 2 38
M  V30 42 1 4 39
M  V30 43 1 4 40
M  V30 44 1 5 41
M  V30 45 1 5 42
M  V30 46 1 5 43
M  V30 47 1 6 44 CFG=1
M  V30 48 1 7 45
M  V30 49 1 7 46
M  V30 50 1 7 47
M  V30 51 1 8 48
M  V30 52 1 8 49
M  V30 53 1 9 50
M  V30 54 1 13 51
M  V30 55 1 15 52
M  V30 56 1 16 53
M  V30 57 1 16 54
M  V30 58 1 16 55
M  V30 59 1 20 56
M  V30 60 1 23 57
M  V30 61 1 24 58
M  V30 62 1 27 59
M  V30 63 1 28 60
M  V30 64 1 29 61
M  V30 65 1 33 62
M  V30 END BOND
M  V30 END CTAB
M  END
>  <Dataset>  (986) 
ChEMBL_Kinases

>  <Ligand_Instance>  (986) 
nan

>  <PDB_ID>  (986) 
nan

>  <Standardized_SMILES>  (986) 
CCN(CC)[C@@H](C)CNC(=O)c1cc(NC)nc(-c2cnn3ccc(-c4cccs4)nc23)c1

>  <Name>  (986) 
nan

>  <Pocket>  (986) 
nan

>  <ATP_Site>  (986) 
nan

>  <Peripheral>  (986) 
nan

>  <Num_H_Atoms_ProtBoundConf>  (986) 
nan

>  <Num_Resolved_Atoms>  (986) 
nan

>  <Num_Not_Resolved_Atoms>  (986) 
nan

$$$$
CHEMBL4777770
     RDKit          3D

  0  0  0  0  0  0  0  0  0  0999 V3000
M  V30 BEGIN CTAB
M  V30 COUNTS 66 70 0 0 0
M  V30 BEGIN ATOM
M  V30 1 C 6.527352 -2.869822 -0.926373 0
M  V30 2 N 5.878606 -1.641473 -1.366441 0
M  V30 3 C 4.914726 -0.974921 -0.727221 0
M  V30 4 C 4.529625 0.156264 -1.431052 0
M  V30 5 C 3.495539 1.081010 -0.977581 0
M  V30 6 C 2.707803 1.771762 -1.902946 0
M  V30 7 C 1.738331 2.639152 -1.438091 0
M  V30 8 C 1.603389 2.773442 -0.090823 0
M  V30 9 C 0.628108 3.646315 0.354987 0
M  V30 10 N -0.251859 4.419610 -0.465499 0
M  V30 11 C -1.540947 4.072590 -0.957750 0
M  V30 12 C -2.226027 4.965976 -1.749027 0
M  V30 13 C -3.470906 4.572086 -2.193767 0
M  V30 14 C -4.007718 3.349535 -1.867585 0
M  V30 15 C -3.338470 2.445118 -1.079240 0
M  V30 16 N -3.961993 1.209091 -0.790057 0
M  V30 17 C -3.508646 0.112486 -0.023315 0
M  V30 18 O -2.376031 0.187131 0.513379 0
M  V30 19 N -4.204696 -1.078803 0.208169 0
M  V30 20 C -3.597379 -2.087868 1.009784 0
M  V30 21 C -3.683446 -2.247302 2.376944 0
M  V30 22 C -3.021682 -3.294032 2.988767 0
M  V30 23 C -2.265137 -4.203250 2.279260 0
M  V30 24 C -1.542132 -5.337152 2.909003 0
M  V30 25 C -0.808538 -6.167429 1.874649 0
M  V30 26 C -0.433169 -4.819583 3.827148 0
M  V30 27 C -2.437912 -6.209837 3.759136 0
M  V30 28 C -2.161669 -4.063368 0.889008 0
M  V30 29 C -2.833628 -3.008187 0.305815 0
M  V30 30 C -2.101720 2.866493 -0.651856 0
M  V30 31 N 0.465204 3.805267 1.678939 0
M  V30 32 C 1.203413 3.157936 2.612307 0
M  V30 33 N 2.164780 2.297748 2.198034 0
M  V30 34 C 2.348563 2.120534 0.879195 0
M  V30 35 C 3.308732 1.261771 0.386594 0
M  V30 36 C 5.339464 0.118284 -2.547638 0
M  V30 37 N 6.139220 -0.980177 -2.473187 0
M  V30 38 H 6.104694 -3.752463 -1.443648 0
M  V30 39 H 7.629047 -2.817018 -0.974033 0
M  V30 40 H 6.284530 -3.031980 0.161124 0
M  V30 41 H 4.514575 -1.318357 0.224531 0
M  V30 42 H 2.833183 1.647840 -2.969799 0
M  V30 43 H 1.099111 3.199852 -2.127323 0
M  V30 44 H 0.167871 5.346090 -0.695321 0
M  V30 45 H -1.835771 5.932575 -2.024344 0
M  V30 46 H -4.064842 5.220007 -2.817144 0
M  V30 47 H -5.004647 3.089978 -2.251331 0
M  V30 48 H -4.912541 1.010544 -1.174268 0
M  V30 49 H -5.168047 -1.181695 -0.229137 0
M  V30 50 H -4.283069 -1.516059 2.882019 0
M  V30 51 H -3.103164 -3.401578 4.069747 0
M  V30 52 H -0.287111 -6.972575 2.437135 0
M  V30 53 H -1.487286 -6.667378 1.160268 0
M  V30 54 H -0.029418 -5.560612 1.395866 0
M  V30 55 H 0.399656 -5.546998 3.891078 0
M  V30 56 H -0.086550 -3.863850 3.333789 0
M  V30 57 H -0.847466 -4.516588 4.804387 0
M  V30 58 H -2.386697 -7.267075 3.377290 0
M  V30 59 H -3.501610 -5.887185 3.700722 0
M  V30 60 H -2.164223 -6.155712 4.832199 0
M  V30 61 H -1.574614 -4.766653 0.324861 0
M  V30 62 H -2.713874 -2.956355 -0.769295 0
M  V30 63 H -1.516115 2.212242 -0.028897 0
M  V30 64 H 1.067172 3.289456 3.677650 0
M  V30 65 H 3.942544 0.705540 1.069226 0
M  V30 66 H 5.262293 0.905309 -3.311782 0
M  V30 END ATOM
M  V30 BEGIN BOND
M  V30 1 1 1 2
M  V30 2 1 2 3
M  V30 3 2 3 4
M  V30 4 1 4 5
M  V30 5 2 5 6
M  V30 6 1 6 7
M  V30 7 2 7 8
M  V30 8 1 8 9
M  V30 9 1 9 10
M  V30 10 1 10 11
M  V30 11 2 11 12
M  V30 12 1 12 13
M  V30 13 2 13 14
M  V30 14 1 14 15
M  V30 15 1 15 16
M  V30 16 1 16 17
M  V30 17 2 17 18
M  V30 18 1 17 19
M  V30 19 1 19 20
M  V30 20 2 20 21
M  V30 21 1 21 22
M  V30 22 2 22 23
M  V30 23 1 23 24
M  V30 24 1 24 25
M  V30 25 1 24 26
M  V30 26 1 24 27
M  V30 27 1 23 28
M  V30 28 2 28 29
M  V30 29 2 15 30
M  V30 30 2 9 31
M  V30 31 1 31 32
M  V30 32 2 32 33
M  V30 33 1 33 34
M  V30 34 2 34 35
M  V30 35 1 4 36
M  V30 36 2 36 37
M  V30 37 1 37 2
M  V30 38 1 35 5
M  V30 39 1 34 8
M  V30 40 1 30 11
M  V30 41 1 29 20
M  V30 42 1 1 38
M  V30 43 1 1 39
M  V30 44 1 1 40
M  V30 45 1 3 41
M  V30 46 1 6 42
M  V30 47 1 7 43
M  V30 48 1 10 44
M  V30 49 1 12 45
M  V30 50 1 13 46
M  V30 51 1 14 47
M  V30 52 1 16 48
M  V30 53 1 19 49
M  V30 54 1 21 50
M  V30 55 1 22 51
M  V30 56 1 25 52
M  V30 57 1 25 53
M  V30 58 1 25 54
M  V30 59 1 26 55
M  V30 60 1 26 56
M  V30 61 1 26 57
M  V30 62 1 27 58
M  V30 63 1 27 59
M  V30 64 1 27 60
M  V30 65 1 28 61
M  V30 66 1 29 62
M  V30 67 1 30 63
M  V30 68 1 32 64
M  V30 69 1 35 65
M  V30 70 1 36 66
M  V30 END BOND
M  V30 END CTAB
M  END
>  <Dataset>  (987) 
ChEMBL_Kinases

>  <Ligand_Instance>  (987) 
nan

>  <PDB_ID>  (987) 
nan

>  <Standardized_SMILES>  (987) 
Cn1cc(-c2ccc3c(Nc4cccc(NC(=O)Nc5ccc(C(C)(C)C)cc5)c4)ncnc3c2)cn1

>  <Name>  (987) 
nan

>  <Pocket>  (987) 
nan

>  <ATP_Site>  (987) 
nan

>  <Peripheral>  (987) 
nan

>  <Num_H_Atoms_ProtBoundConf>  (987) 
nan

>  <Num_Resolved_Atoms>  (987) 
nan

>  <Num_Not_Resolved_Atoms>  (987) 
nan

$$$$
CHEMBL4224729
     RDKit          3D

  0  0  0  0  0  0  0  0  0  0999 V3000
M  V30 BEGIN CTAB
M  V30 COUNTS 46 48 0 0 0
M  V30 BEGIN ATOM
M  V30 1 C 0.041618 -5.690928 2.004949 0
M  V30 2 O -0.999142 -4.848272 1.586151 0
M  V30 3 C -0.828516 -3.530928 1.206152 0
M  V30 4 N 0.391507 -2.976483 1.221595 0
M  V30 5 C 0.665020 -1.710309 0.873007 0
M  V30 6 N 1.999035 -1.235016 0.929906 0
M  V30 7 C 2.489383 0.043532 0.607355 0
M  V30 8 C 1.737408 1.107270 0.161074 0
M  V30 9 C 2.216628 2.360628 -0.156197 0
M  V30 10 C 3.572735 2.584151 -0.018746 0
M  V30 11 C 4.187312 3.869823 -0.326275 0
M  V30 12 O 5.062097 3.861720 -1.225036 0
M  V30 13 N 3.784683 5.036814 0.379092 0
M  V30 14 C 2.760947 4.946030 1.405972 0
M  V30 15 C 4.385364 6.323055 0.085275 0
M  V30 16 C 4.374666 1.553888 0.424763 0
M  V30 17 C 3.834493 0.325147 0.725084 0
M  V30 18 N -0.402978 -0.997933 0.490255 0
M  V30 19 C -1.665266 -1.440717 0.433939 0
M  V30 20 C -1.884795 -2.747052 0.803090 0
M  V30 21 C -3.222890 -3.290756 0.765473 0
M  V30 22 C -4.397254 -2.775971 0.427467 0
M  V30 23 C -5.545197 -3.520900 0.480415 0
M  V30 24 C -5.369224 -4.847139 0.914720 0
M  V30 25 C -6.323200 -5.956818 1.109169 0
M  V30 26 O -5.913348 -7.046319 1.506986 0
M  V30 27 O -7.635351 -5.700590 0.828688 0
M  V30 28 S -3.594895 -4.965048 1.222817 0
M  V30 29 H 0.678067 -5.296890 2.801625 0
M  V30 30 H -0.452255 -6.623911 2.382757 0
M  V30 31 H 0.601434 -6.011074 1.099902 0
M  V30 32 H 2.725655 -1.935958 1.259623 0
M  V30 33 H 0.686428 1.000072 0.033868 0
M  V30 34 H 1.584875 3.160272 -0.501730 0
M  V30 35 H 2.903222 5.815409 2.101712 0
M  V30 36 H 2.852510 3.986122 1.967284 0
M  V30 37 H 1.751616 5.063621 0.951693 0
M  V30 38 H 5.130456 6.191551 -0.708375 0
M  V30 39 H 4.919820 6.709509 0.989339 0
M  V30 40 H 3.614712 7.088788 -0.158835 0
M  V30 41 H 5.449602 1.708141 0.540756 0
M  V30 42 H 4.527912 -0.445859 1.071257 0
M  V30 43 H -2.487684 -0.815408 0.115613 0
M  V30 44 H -4.426891 -1.740976 0.105103 0
M  V30 45 H -6.547085 -3.205165 0.230037 0
M  V30 46 H -8.344938 -6.425592 0.739130 0
M  V30 END ATOM
M  V30 BEGIN BOND
M  V30 1 1 1 2
M  V30 2 1 2 3
M  V30 3 2 3 4
M  V30 4 1 4 5
M  V30 5 1 5 6
M  V30 6 1 6 7
M  V30 7 2 7 8
M  V30 8 1 8 9
M  V30 9 2 9 10
M  V30 10 1 10 11
M  V30 11 2 11 12
M  V30 12 1 11 13
M  V30 13 1 13 14
M  V30 14 1 13 15
M  V30 15 1 10 16
M  V30 16 2 16 17
M  V30 17 2 5 18
M  V30 18 1 18 19
M  V30 19 2 19 20
M  V30 20 1 20 21
M  V30 21 2 21 22
M  V30 22 1 22 23
M  V30 23 2 23 24
M  V30 24 1 24 25
M  V30 25 2 25 26
M  V30 26 1 25 27
M  V30 27 1 24 28
M  V30 28 1 20 3
M  V30 29 1 28 21
M  V30 30 1 17 7
M  V30 31 1 1 29
M  V30 32 1 1 30
M  V30 33 1 1 31
M  V30 34 1 6 32
M  V30 35 1 8 33
M  V30 36 1 9 34
M  V30 37 1 14 35
M  V30 38 1 14 36
M  V30 39 1 14 37
M  V30 40 1 15 38
M  V30 41 1 15 39
M  V30 42 1 15 40
M  V30 43 1 16 41
M  V30 44 1 17 42
M  V30 45 1 19 43
M  V30 46 1 22 44
M  V30 47 1 23 45
M  V30 48 1 27 46
M  V30 END BOND
M  V30 END CTAB
M  END
>  <Dataset>  (988) 
ChEMBL_Kinases

>  <Ligand_Instance>  (988) 
nan

>  <PDB_ID>  (988) 
nan

>  <Standardized_SMILES>  (988) 
COc1nc(Nc2ccc(C(=O)N(C)C)cc2)ncc1-c1ccc(C(=O)O)s1

>  <Name>  (988) 
nan

>  <Pocket>  (988) 
nan

>  <ATP_Site>  (988) 
nan

>  <Peripheral>  (988) 
nan

>  <Num_H_Atoms_ProtBoundConf>  (988) 
nan

>  <Num_Resolved_Atoms>  (988) 
nan

>  <Num_Not_Resolved_Atoms>  (988) 
nan

$$$$
CHEMBL4777788
     RDKit          3D

  0  0  0  0  0  0  0  0  0  0999 V3000
M  V30 BEGIN CTAB
M  V30 COUNTS 77 82 0 0 0
M  V30 BEGIN ATOM
M  V30 1 C 2.739899 -1.686249 7.458332 0
M  V30 2 N 2.905966 -1.372276 6.030307 0
M  V30 3 C 3.978928 -1.963671 5.308401 0
M  V30 4 O 4.773799 -2.753589 5.917426 0
M  V30 5 C 4.055467 -1.603513 3.947528 0
M  V30 6 S 3.027010 -0.523989 2.972478 0
M  V30 7 C 4.037018 -0.803184 1.388478 0
M  V30 8 C 3.649185 -0.128413 0.137137 0
M  V30 9 C 4.438942 -0.376792 -0.963590 0
M  V30 10 C 4.117154 0.226201 -2.158412 0
M  V30 11 N 3.056908 1.047129 -2.277081 0
M  V30 12 C 2.280981 1.286198 -1.180443 0
M  V30 13 N 1.109012 2.129882 -1.129129 0
M  V30 14 C 0.047829 1.207990 -1.444911 0
M  V30 15 O 0.622828 0.074672 -1.627210 0
M  V30 16 C -1.407107 1.606803 -1.517745 0
M  V30 17 N -2.145112 0.438485 -1.860715 0
M  V30 18 C -1.961033 -0.047758 -3.181999 0
M  V30 19 C -2.731864 -1.299591 -3.419033 0
M  V30 20 N -4.143145 -1.128178 -3.220534 0
M  V30 21 C -4.988469 -0.717503 -2.177695 0
M  V30 22 C -5.479857 0.528065 -1.874916 0
M  V30 23 C -6.273357 0.748826 -0.773221 0
M  V30 24 N -6.603546 -0.248141 0.054598 0
M  V30 25 C -6.160969 -1.509294 -0.173495 0
M  V30 26 C -6.511951 -2.520059 0.686702 0
M  V30 27 C -6.079507 -3.804757 0.478914 0
M  V30 28 Cl -6.532450 -5.085171 1.578030 0
M  V30 29 C -5.280031 -4.073343 -0.614596 0
M  V30 30 C -4.951921 -3.026095 -1.453212 0
M  V30 31 C -5.356315 -1.718346 -1.294046 0
M  V30 32 C -6.803223 2.069062 -0.424236 0
M  V30 33 C -6.234275 3.211899 -1.201865 0
M  V30 34 C -4.942460 2.873526 -1.925875 0
M  V30 35 C -5.166170 1.639740 -2.777333 0
M  V30 36 C 2.559107 0.706330 0.045176 0
M  V30 37 N 4.952824 -1.603567 1.734378 0
M  V30 38 C 5.010858 -2.029762 2.977942 0
M  V30 39 O 6.017238 -2.907137 3.349385 0
M  V30 40 C 7.020669 -3.415098 2.526390 0
M  V30 41 C 7.898579 -2.339099 1.927331 0
M  V30 42 C 9.038906 -2.761629 1.002847 0
M  V30 43 C 9.337990 -2.252609 2.353167 0
M  V30 44 H 2.300898 -0.803355 7.956775 0
M  V30 45 H 3.777041 -1.849482 7.858643 0
M  V30 46 H 2.111319 -2.587478 7.507490 0
M  V30 47 H 2.211874 -0.714925 5.606460 0
M  V30 48 H 5.292831 -1.042358 -0.853881 0
M  V30 49 H 4.735232 0.030179 -3.016336 0
M  V30 50 H 0.856226 3.137131 -0.942073 0
M  V30 51 H -1.527889 2.442840 -2.229589 0
M  V30 52 H -1.740802 1.985231 -0.511806 0
M  V30 53 H -2.351371 -0.226155 -1.122710 0
M  V30 54 H -0.872865 -0.292940 -3.324866 0
M  V30 55 H -2.185461 0.703301 -3.967223 0
M  V30 56 H -2.594397 -1.574147 -4.504285 0
M  V30 57 H -2.330239 -2.171323 -2.858838 0
M  V30 58 H -4.874391 -1.313866 -3.942706 0
M  V30 59 H -7.133096 -2.326188 1.541713 0
M  V30 60 H -4.945309 -5.080689 -0.771031 0
M  V30 61 H -4.329539 -3.322029 -2.281353 0
M  V30 62 H -7.926051 2.077434 -0.464495 0
M  V30 63 H -6.579850 2.242346 0.667157 0
M  V30 64 H -6.938760 3.592402 -1.998977 0
M  V30 65 H -6.017609 4.086793 -0.558443 0
M  V30 66 H -4.705285 3.769386 -2.551236 0
M  V30 67 H -4.136125 2.718972 -1.199127 0
M  V30 68 H -4.363698 1.486983 -3.486795 0
M  V30 69 H -6.100125 1.872504 -3.370672 0
M  V30 70 H 2.012453 0.836022 0.945110 0
M  V30 71 H 6.482946 -3.925432 1.672220 0
M  V30 72 H 7.674735 -4.144953 3.031934 0
M  V30 73 H 7.346454 -1.439275 1.601686 0
M  V30 74 H 9.247500 -2.158651 0.105564 0
M  V30 75 H 9.054878 -3.851648 0.798689 0
M  V30 76 H 9.703547 -2.931298 3.159834 0
M  V30 77 H 9.782333 -1.234318 2.405187 0
M  V30 END ATOM
M  V30 BEGIN BOND
M  V30 1 1 1 2
M  V30 2 1 2 3
M  V30 3 2 3 4
M  V30 4 1 3 5
M  V30 5 1 5 6
M  V30 6 1 6 7
M  V30 7 1 7 8
M  V30 8 2 8 9
M  V30 9 1 9 10
M  V30 10 2 10 11
M  V30 11 1 11 12
M  V30 12 1 12 13
M  V30 13 1 13 14
M  V30 14 2 14 15
M  V30 15 1 14 16
M  V30 16 1 16 17
M  V30 17 1 17 18
M  V30 18 1 18 19
M  V30 19 1 19 20
M  V30 20 1 20 21
M  V30 21 2 21 22
M  V30 22 1 22 23
M  V30 23 2 23 24
M  V30 24 1 24 25
M  V30 25 2 25 26
M  V30 26 1 26 27
M  V30 27 1 27 28
M  V30 28 2 27 29
M  V30 29 1 29 30
M  V30 30 2 30 31
M  V30 31 1 23 32
M  V30 32 1 32 33
M  V30 33 1 33 34
M  V30 34 1 34 35
M  V30 35 2 12 36
M  V30 36 2 7 37
M  V30 37 1 37 38
M  V30 38 1 38 39
M  V30 39 1 39 40
M  V30 40 1 40 41
M  V30 41 1 41 42
M  V30 42 1 42 43
M  V30 43 2 38 5
M  V30 44 1 43 41
M  V30 45 1 36 8
M  V30 46 1 31 21
M  V30 47 1 35 22
M  V30 48 1 31 25
M  V30 49 1 1 44
M  V30 50 1 1 45
M  V30 51 1 1 46
M  V30 52 1 2 47
M  V30 53 1 9 48
M  V30 54 1 10 49
M  V30 55 1 13 50
M  V30 56 1 16 51
M  V30 57 1 16 52
M  V30 58 1 17 53
M  V30 59 1 18 54
M  V30 60 1 18 55
M  V30 61 1 19 56
M  V30 62 1 19 57
M  V30 63 1 20 58
M  V30 64 1 26 59
M  V30 65 1 29 60
M  V30 66 1 30 61
M  V30 67 1 32 62
M  V30 68 1 32 63
M  V30 69 1 33 64
M  V30 70 1 33 65
M  V30 71 1 34 66
M  V30 72 1 34 67
M  V30 73 1 35 68
M  V30 74 1 35 69
M  V30 75 1 36 70
M  V30 76 1 40 71
M  V30 77 1 40 72
M  V30 78 1 41 73
M  V30 79 1 42 74
M  V30 80 1 42 75
M  V30 81 1 43 76
M  V30 82 1 43 77
M  V30 END BOND
M  V30 END CTAB
M  END
>  <Dataset>  (989) 
ChEMBL_Kinases

>  <Ligand_Instance>  (989) 
nan

>  <PDB_ID>  (989) 
nan

>  <Standardized_SMILES>  (989) 
CNC(=O)c1sc(-c2ccnc(NC(=O)CNCCNc3c4c(nc5cc(Cl)ccc35)CCCC4)c2)nc1OCC1CC1

>  <Name>  (989) 
nan

>  <Pocket>  (989) 
nan

>  <ATP_Site>  (989) 
nan

>  <Peripheral>  (989) 
nan

>  <Num_H_Atoms_ProtBoundConf>  (989) 
nan

>  <Num_Resolved_Atoms>  (989) 
nan

>  <Num_Not_Resolved_Atoms>  (989) 
nan

$$$$
CHEMBL4777802
     RDKit          3D

  0  0  0  0  0  0  0  0  0  0999 V3000
M  V30 BEGIN CTAB
M  V30 COUNTS 65 69 0 0 0
M  V30 BEGIN ATOM
M  V30 1 C 5.190315 -1.551209 3.306297 0
M  V30 2 O 4.480395 -1.563871 4.515471 0
M  V30 3 C 3.318266 -0.863840 4.770868 0
M  V30 4 C 2.806202 -1.041392 6.046994 0
M  V30 5 C 1.636579 -0.366457 6.375809 0
M  V30 6 C 1.002936 0.449558 5.476464 0
M  V30 7 C 1.499823 0.635423 4.205150 0
M  V30 8 C 1.011570 1.436779 3.102931 0
M  V30 9 N 1.462560 2.517689 2.435422 0
M  V30 10 C 0.602450 2.872572 1.473449 0
M  V30 11 C 0.787042 4.004816 0.567517 0
M  V30 12 C -0.159123 4.311662 -0.390825 0
M  V30 13 C -0.060144 5.359884 -1.282477 0
M  V30 14 C 1.077389 6.126896 -1.173418 0
M  V30 15 C 2.065061 5.865913 -0.227353 0
M  V30 16 C 1.916548 4.790897 0.653475 0
M  V30 17 N -0.415036 1.993554 1.536845 0
M  V30 18 C -0.193078 1.087707 2.538079 0
M  V30 19 C -1.264739 0.079285 2.681135 0
M  V30 20 C -2.144879 -0.100666 3.754974 0
M  V30 21 C -3.065760 -1.121598 3.626605 0
M  V30 22 N -3.139334 -1.912030 2.551807 0
M  V30 23 C -2.340272 -1.807947 1.490077 0
M  V30 24 N -2.358977 -2.596747 0.313525 0
M  V30 25 C -1.648872 -3.851039 0.518894 0
M  V30 26 C -1.667890 -4.622094 -0.786812 0
M  V30 27 N -1.011504 -3.879645 -1.843695 0
M  V30 28 S -0.985162 -4.666629 -3.351613 0
M  V30 29 O -1.427910 -6.091356 -3.183487 0
M  V30 30 O 0.455635 -4.709401 -3.837518 0
M  V30 31 C -1.990200 -3.889699 -4.561225 0
M  V30 32 C -3.325939 -4.124064 -4.808153 0
M  V30 33 C -3.992937 -3.442647 -5.793393 0
M  V30 34 C -3.376892 -2.491682 -6.589644 0
M  V30 35 F -4.040548 -1.816334 -7.567084 0
M  V30 36 C -2.020302 -2.244937 -6.348200 0
M  V30 37 C -1.351015 -2.931647 -5.356250 0
M  V30 38 C -1.403538 -0.783286 1.599444 0
M  V30 39 C 2.664555 -0.033330 3.869353 0
M  V30 40 H 5.712888 -0.600274 3.185777 0
M  V30 41 H 4.463547 -1.708731 2.478523 0
M  V30 42 H 5.947897 -2.363732 3.368394 0
M  V30 43 H 3.270969 -1.674790 6.792250 0
M  V30 44 H 1.193608 -0.469539 7.362409 0
M  V30 45 H 0.094078 1.011418 5.649131 0
M  V30 46 H -1.055372 3.690728 -0.461467 0
M  V30 47 H -0.843500 5.540853 -2.008647 0
M  V30 48 H 1.135063 6.956335 -1.895879 0
M  V30 49 H 2.940640 6.515466 -0.197637 0
M  V30 50 H 2.701365 4.614248 1.377350 0
M  V30 51 H -1.195006 2.120327 0.845472 0
M  V30 52 H -1.985555 0.596919 4.555799 0
M  V30 53 H -3.726262 -1.229125 4.473190 0
M  V30 54 H -2.843712 -2.242293 -0.540139 0
M  V30 55 H -0.647706 -3.732919 0.950210 0
M  V30 56 H -2.250116 -4.438177 1.242555 0
M  V30 57 H -1.160473 -5.594733 -0.625124 0
M  V30 58 H -2.716689 -4.816540 -1.051438 0
M  V30 59 H -0.134824 -3.424237 -1.549920 0
M  V30 60 H -3.762863 -4.871945 -4.164468 0
M  V30 61 H -5.046274 -3.674658 -5.937157 0
M  V30 62 H -1.519344 -1.494381 -6.971451 0
M  V30 63 H -0.304184 -2.677903 -5.238666 0
M  V30 64 H -0.729239 -0.671448 0.739233 0
M  V30 65 H 3.186726 0.002237 2.917052 0
M  V30 END ATOM
M  V30 BEGIN BOND
M  V30 1 1 1 2
M  V30 2 1 2 3
M  V30 3 2 3 4
M  V30 4 1 4 5
M  V30 5 2 5 6
M  V30 6 1 6 7
M  V30 7 1 7 8
M  V30 8 1 8 9
M  V30 9 2 9 10
M  V30 10 1 10 11
M  V30 11 2 11 12
M  V30 12 1 12 13
M  V30 13 2 13 14
M  V30 14 1 14 15
M  V30 15 2 15 16
M  V30 16 1 10 17
M  V30 17 1 17 18
M  V30 18 1 18 19
M  V30 19 2 19 20
M  V30 20 1 20 21
M  V30 21 2 21 22
M  V30 22 1 22 23
M  V30 23 1 23 24
M  V30 24 1 24 25
M  V30 25 1 25 26
M  V30 26 1 26 27
M  V30 27 1 27 28
M  V30 28 2 28 29
M  V30 29 2 28 30
M  V30 30 1 28 31
M  V30 31 2 31 32
M  V30 32 1 32 33
M  V30 33 2 33 34
M  V30 34 1 34 35
M  V30 35 1 34 36
M  V30 36 2 36 37
M  V30 37 2 23 38
M  V30 38 2 7 39
M  V30 39 1 39 3
M  V30 40 2 18 8
M  V30 41 1 38 19
M  V30 42 1 16 11
M  V30 43 1 37 31
M  V30 44 1 1 40
M  V30 45 1 1 41
M  V30 46 1 1 42
M  V30 47 1 4 43
M  V30 48 1 5 44
M  V30 49 1 6 45
M  V30 50 1 12 46
M  V30 51 1 13 47
M  V30 52 1 14 48
M  V30 53 1 15 49
M  V30 54 1 16 50
M  V30 55 1 17 51
M  V30 56 1 20 52
M  V30 57 1 21 53
M  V30 58 1 24 54
M  V30 59 1 25 55
M  V30 60 1 25 56
M  V30 61 1 26 57
M  V30 62 1 26 58
M  V30 63 1 27 59
M  V30 64 1 32 60
M  V30 65 1 33 61
M  V30 66 1 36 62
M  V30 67 1 37 63
M  V30 68 1 38 64
M  V30 69 1 39 65
M  V30 END BOND
M  V30 END CTAB
M  END
>  <Dataset>  (990) 
ChEMBL_Kinases

>  <Ligand_Instance>  (990) 
nan

>  <PDB_ID>  (990) 
nan

>  <Standardized_SMILES>  (990) 
COc1cccc(-c2nc(-c3ccccc3)[nH]c2-c2ccnc(NCCNS(=O)(=O)c3ccc(F)cc3)c2)c1

>  <Name>  (990) 
nan

>  <Pocket>  (990) 
nan

>  <ATP_Site>  (990) 
nan

>  <Peripheral>  (990) 
nan

>  <Num_H_Atoms_ProtBoundConf>  (990) 
nan

>  <Num_Resolved_Atoms>  (990) 
nan

>  <Num_Not_Resolved_Atoms>  (990) 
nan

$$$$
CHEMBL4218429
     RDKit          3D

  0  0  0  0  0  0  0  0  0  0999 V3000
M  V30 BEGIN CTAB
M  V30 COUNTS 38 40 0 0 0
M  V30 BEGIN ATOM
M  V30 1 C -0.124512 -3.454845 3.275585 0
M  V30 2 C 0.714743 -4.023967 2.171023 0
M  V30 3 C 2.108739 -3.525265 2.194507 0
M  V30 4 N 3.161462 -4.253290 2.650574 0
M  V30 5 N 4.240278 -3.536098 2.540132 0
M  V30 6 C 3.912153 -2.352482 2.020271 0
M  V30 7 C 2.557090 -2.291623 1.779338 0
M  V30 8 C 1.848616 -1.133475 1.206302 0
M  V30 9 C 0.569025 -0.869513 0.894761 0
M  V30 10 C 0.208395 0.313572 0.365209 0
M  V30 11 C 1.223818 1.239430 0.159749 0
M  V30 12 S 2.729242 0.298730 0.777708 0
M  V30 13 C 1.127957 2.631139 -0.417562 0
M  V30 14 O 2.178187 3.278561 -0.504142 0
M  V30 15 N -0.190355 3.001958 -0.785891 0
M  V30 16 C -1.160297 1.966027 -0.934937 0
M  V30 17 C -2.526026 2.610919 -0.648923 0
M  V30 18 C -1.220816 1.414870 -2.355762 0
M  V30 19 N -1.042736 0.851067 -0.050653 0
M  V30 20 C -2.271181 0.211764 0.461734 0
M  V30 21 H 0.511453 -2.851134 3.955525 0
M  V30 22 H -1.012963 -2.900582 2.917263 0
M  V30 23 H -0.523122 -4.278853 3.935531 0
M  V30 24 H 0.751280 -5.155519 2.302655 0
M  V30 25 H 0.224760 -3.913985 1.174344 0
M  V30 26 H 5.177806 -3.886385 2.828546 0
M  V30 27 H 4.687547 -1.613066 1.852737 0
M  V30 28 H -0.167787 -1.634229 1.081201 0
M  V30 29 H -0.330499 4.016814 -0.916119 0
M  V30 30 H -2.728955 2.489605 0.440876 0
M  V30 31 H -2.527714 3.672750 -0.914144 0
M  V30 32 H -3.315396 2.032782 -1.167183 0
M  V30 33 H -1.343315 0.312561 -2.349333 0
M  V30 34 H -0.256977 1.639665 -2.811072 0
M  V30 35 H -2.092222 1.825916 -2.904713 0
M  V30 36 H -2.025068 -0.857494 0.703608 0
M  V30 37 H -3.078604 0.214264 -0.275562 0
M  V30 38 H -2.519288 0.688279 1.428994 0
M  V30 END ATOM
M  V30 BEGIN BOND
M  V30 1 1 1 2
M  V30 2 1 2 3
M  V30 3 2 3 4
M  V30 4 1 4 5
M  V30 5 1 5 6
M  V30 6 2 6 7
M  V30 7 1 7 8
M  V30 8 2 8 9
M  V30 9 1 9 10
M  V30 10 2 10 11
M  V30 11 1 11 12
M  V30 12 1 11 13
M  V30 13 2 13 14
M  V30 14 1 13 15
M  V30 15 1 15 16
M  V30 16 1 16 17
M  V30 17 1 16 18
M  V30 18 1 16 19
M  V30 19 1 19 20
M  V30 20 1 7 3
M  V30 21 1 12 8
M  V30 22 1 19 10
M  V30 23 1 1 21
M  V30 24 1 1 22
M  V30 25 1 1 23
M  V30 26 1 2 24
M  V30 27 1 2 25
M  V30 28 1 5 26
M  V30 29 1 6 27
M  V30 30 1 9 28
M  V30 31 1 15 29
M  V30 32 1 17 30
M  V30 33 1 17 31
M  V30 34 1 17 32
M  V30 35 1 18 33
M  V30 36 1 18 34
M  V30 37 1 18 35
M  V30 38 1 20 36
M  V30 39 1 20 37
M  V30 40 1 20 38
M  V30 END BOND
M  V30 END CTAB
M  END
>  <Dataset>  (991) 
ChEMBL_Kinases

>  <Ligand_Instance>  (991) 
nan

>  <PDB_ID>  (991) 
nan

>  <Standardized_SMILES>  (991) 
CCc1n[nH]cc1-c1cc2c(s1)C(=O)NC(C)(C)N2C

>  <Name>  (991) 
nan

>  <Pocket>  (991) 
nan

>  <ATP_Site>  (991) 
nan

>  <Peripheral>  (991) 
nan

>  <Num_H_Atoms_ProtBoundConf>  (991) 
nan

>  <Num_Resolved_Atoms>  (991) 
nan

>  <Num_Not_Resolved_Atoms>  (991) 
nan

$$$$
CHEMBL4218417
     RDKit          3D

  0  0  0  0  0  0  0  0  0  0999 V3000
M  V30 BEGIN CTAB
M  V30 COUNTS 57 62 0 0 0
M  V30 BEGIN ATOM
M  V30 1 C 4.769718 3.120046 2.709498 0
M  V30 2 C 4.065277 1.766124 2.519050 0
M  V30 3 C 3.393969 1.494591 3.851169 0
M  V30 4 O 4.945635 0.798516 2.151432 0
M  V30 5 C 4.735779 0.167118 0.941432 0
M  V30 6 C 3.437765 -0.538459 0.864576 0
M  V30 7 C 3.446199 -1.839168 1.387950 0
M  V30 8 C 2.272812 -2.563181 1.339454 0
M  V30 9 C 1.081748 -2.057873 0.793509 0
M  V30 10 C 1.083671 -0.782048 0.282795 0
M  V30 11 C 2.253258 -0.087821 0.341887 0
M  V30 12 C -0.199096 -0.623909 -0.151620 0
M  V30 13 C -0.819797 0.429703 -0.755950 0
M  V30 14 C -2.136183 0.396646 -1.127103 0
M  V30 15 C -2.860916 -0.762233 -0.873702 0
M  V30 16 C -4.195380 -1.094601 -1.136877 0
M  V30 17 C -5.217373 -0.400295 -1.716719 0
M  V30 18 C -6.468143 -0.959331 -1.864715 0
M  V30 19 C -6.663948 -2.245278 -1.410093 0
M  V30 20 C -5.611013 -2.916599 -0.830241 0
M  V30 21 C -4.339243 -2.389794 -0.663169 0
M  V30 22 N -3.159581 -2.772159 -0.160902 0
M  V30 23 C -2.221560 -1.820133 -0.261951 0
M  V30 24 C -0.896365 -1.780310 0.109971 0
M  V30 25 N -0.122074 -2.705507 0.705433 0
M  V30 26 C -0.379037 -4.027327 1.178880 0
M  V30 27 C -0.182427 -5.096401 0.141597 0
M  V30 28 O -1.006248 -4.937522 -0.966841 0
M  V30 29 C -2.625287 1.649688 -1.772731 0
M  V30 30 N -1.435602 2.473473 -1.754730 0
M  V30 31 C -0.384662 1.742771 -1.154997 0
M  V30 32 O 0.682769 2.365668 -1.092762 0
M  V30 33 H 5.715842 3.012889 3.260771 0
M  V30 34 H 4.090932 3.754735 3.316585 0
M  V30 35 H 4.885331 3.610956 1.719137 0
M  V30 36 H 3.273533 1.947597 1.800308 0
M  V30 37 H 4.007817 0.836082 4.497163 0
M  V30 38 H 2.467529 0.932831 3.646242 0
M  V30 39 H 3.207293 2.425902 4.425666 0
M  V30 40 H 4.766509 0.872168 0.080799 0
M  V30 41 H 5.574841 -0.575630 0.825484 0
M  V30 42 H 4.347552 -2.268883 1.820056 0
M  V30 43 H 2.342846 -3.573665 1.764339 0
M  V30 44 H 2.307065 0.890961 -0.047291 0
M  V30 45 H -5.101103 0.608330 -2.084361 0
M  V30 46 H -7.305518 -0.446801 -2.317345 0
M  V30 47 H -7.631695 -2.721745 -1.507080 0
M  V30 48 H -5.791461 -3.915764 -0.485400 0
M  V30 49 H -3.155708 -3.736284 0.219593 0
M  V30 50 H 0.362425 -4.203379 2.019863 0
M  V30 51 H -1.398070 -4.101444 1.578588 0
M  V30 52 H -0.428817 -6.096551 0.553592 0
M  V30 53 H 0.897892 -5.189246 -0.154313 0
M  V30 54 H -0.657292 -5.534065 -1.670751 0
M  V30 55 H -3.454723 2.128325 -1.229052 0
M  V30 56 H -2.953035 1.402998 -2.796566 0
M  V30 57 H -1.552637 3.421537 -2.168469 0
M  V30 END ATOM
M  V30 BEGIN BOND
M  V30 1 1 1 2
M  V30 2 1 2 3
M  V30 3 1 2 4
M  V30 4 1 4 5
M  V30 5 1 5 6
M  V30 6 2 6 7
M  V30 7 1 7 8
M  V30 8 2 8 9
M  V30 9 1 9 10
M  V30 10 2 10 11
M  V30 11 1 10 12
M  V30 12 2 12 13
M  V30 13 1 13 14
M  V30 14 2 14 15
M  V30 15 1 15 16
M  V30 16 2 16 17
M  V30 17 1 17 18
M  V30 18 2 18 19
M  V30 19 1 19 20
M  V30 20 2 20 21
M  V30 21 1 21 22
M  V30 22 1 22 23
M  V30 23 2 23 24
M  V30 24 1 24 25
M  V30 25 1 25 26
M  V30 26 1 26 27
M  V30 27 1 27 28
M  V30 28 1 14 29
M  V30 29 1 29 30
M  V30 30 1 30 31
M  V30 31 2 31 32
M  V30 32 1 11 6
M  V30 33 1 24 12
M  V30 34 1 25 9
M  V30 35 1 31 13
M  V30 36 1 23 15
M  V30 37 1 21 16
M  V30 38 1 1 33
M  V30 39 1 1 34
M  V30 40 1 1 35
M  V30 41 1 2 36
M  V30 42 1 3 37
M  V30 43 1 3 38
M  V30 44 1 3 39
M  V30 45 1 5 40
M  V30 46 1 5 41
M  V30 47 1 7 42
M  V30 48 1 8 43
M  V30 49 1 11 44
M  V30 50 1 17 45
M  V30 51 1 18 46
M  V30 52 1 19 47
M  V30 53 1 20 48
M  V30 54 1 22 49
M  V30 55 1 26 50
M  V30 56 1 26 51
M  V30 57 1 27 52
M  V30 58 1 27 53
M  V30 59 1 28 54
M  V30 60 1 29 55
M  V30 61 1 29 56
M  V30 62 1 30 57
M  V30 END BOND
M  V30 END CTAB
M  END
>  <Dataset>  (992) 
ChEMBL_Kinases

>  <Ligand_Instance>  (992) 
nan

>  <PDB_ID>  (992) 
nan

>  <Standardized_SMILES>  (992) 
CC(C)OCc1ccc2c(c1)c1c3c(c4c5ccccc5[nH]c4c1n2CCO)CNC3=O

>  <Name>  (992) 
nan

>  <Pocket>  (992) 
nan

>  <ATP_Site>  (992) 
nan

>  <Peripheral>  (992) 
nan

>  <Num_H_Atoms_ProtBoundConf>  (992) 
nan

>  <Num_Resolved_Atoms>  (992) 
nan

>  <Num_Not_Resolved_Atoms>  (992) 
nan

$$$$
CHEMBL4218369
     RDKit          3D

  0  0  0  0  0  0  0  0  0  0999 V3000
M  V30 BEGIN CTAB
M  V30 COUNTS 66 71 0 0 0
M  V30 BEGIN ATOM
M  V30 1 C 5.706445 0.029422 5.120783 0
M  V30 2 N 5.808625 -0.307135 3.694326 0
M  V30 3 C 4.779125 -0.434739 2.735635 0
M  V30 4 N 4.430333 0.675507 2.046313 0
M  V30 5 C 3.464016 0.630666 1.122746 0
M  V30 6 C 2.835401 -0.575823 0.893950 0
M  V30 7 C 1.837501 -0.859716 0.015179 0
M  V30 8 C 1.104675 -0.044137 -0.953871 0
M  V30 9 C 0.615706 1.220516 -0.632850 0
M  V30 10 C -0.079809 1.995791 -1.551479 0
M  V30 11 C -0.236337 1.404604 -2.787002 0
M  V30 12 N -0.932077 2.105911 -3.808655 0
M  V30 13 C -1.510494 3.432685 -3.698054 0
M  V30 14 C -3.020971 3.202378 -3.544281 0
M  V30 15 N -3.385007 1.956131 -4.153004 0
M  V30 16 C -3.436645 0.845313 -3.252105 0
M  V30 17 C -2.666604 1.674668 -5.361859 0
M  V30 18 C -1.154087 1.554034 -5.133671 0
M  V30 19 N 0.232269 0.184426 -3.105579 0
M  V30 20 C 0.908224 -0.578099 -2.224951 0
M  V30 21 N 1.566100 -2.183389 0.170056 0
M  V30 22 N 2.378686 -2.668036 1.111811 0
M  V30 23 C 2.378893 -4.053235 1.549728 0
M  V30 24 C 1.407208 -4.176772 2.690291 0
M  V30 25 C 0.056689 -4.477849 2.518533 0
M  V30 26 N -0.531039 -4.514323 3.727824 0
M  V30 27 C -1.949392 -4.802661 3.926635 0
M  V30 28 C -2.672642 -3.493275 3.883267 0
M  V30 29 C -2.909831 -2.707741 4.986368 0
M  V30 30 C -3.588127 -1.501280 4.878571 0
M  V30 31 C -4.043537 -1.052955 3.671580 0
M  V30 32 C -3.817512 -1.827815 2.537899 0
M  V30 33 C -3.135535 -3.039367 2.650828 0
M  V30 34 N 0.411970 -4.246841 4.624994 0
M  V30 35 N 1.573400 -4.043212 4.021803 0
M  V30 36 C 3.183094 -1.713430 1.590860 0
M  V30 37 N 4.160138 -1.630087 2.512692 0
M  V30 38 H 4.785183 -0.430758 5.564117 0
M  V30 39 H 6.579582 -0.448557 5.622270 0
M  V30 40 H 5.670539 1.117329 5.234466 0
M  V30 41 H 6.705265 -0.501663 3.197400 0
M  V30 42 H 3.187843 1.510441 0.576727 0
M  V30 43 H 0.793324 1.597031 0.373682 0
M  V30 44 H -0.444972 2.964501 -1.278446 0
M  V30 45 H -1.356444 4.041513 -4.613463 0
M  V30 46 H -1.122287 4.030576 -2.869937 0
M  V30 47 H -3.552226 4.013203 -4.103467 0
M  V30 48 H -3.323314 3.255570 -2.494708 0
M  V30 49 H -4.436556 0.348761 -3.343217 0
M  V30 50 H -3.348002 1.141335 -2.185484 0
M  V30 51 H -2.699000 0.040483 -3.506283 0
M  V30 52 H -2.918935 2.474954 -6.082590 0
M  V30 53 H -3.072276 0.707273 -5.756369 0
M  V30 54 H -0.689577 2.182791 -5.922989 0
M  V30 55 H -0.863910 0.504871 -5.239517 0
M  V30 56 H 1.271691 -1.547861 -2.503467 0
M  V30 57 H 3.404496 -4.304660 1.872044 0
M  V30 58 H 2.037394 -4.705828 0.745013 0
M  V30 59 H -0.410372 -4.648322 1.557609 0
M  V30 60 H -2.077985 -5.268351 4.924291 0
M  V30 61 H -2.311837 -5.413571 3.096064 0
M  V30 62 H -2.537225 -3.087187 5.934356 0
M  V30 63 H -3.767238 -0.893558 5.757347 0
M  V30 64 H -4.575902 -0.117063 3.552485 0
M  V30 65 H -4.176995 -1.477476 1.574193 0
M  V30 66 H -2.962336 -3.640213 1.759797 0
M  V30 END ATOM
M  V30 BEGIN BOND
M  V30 1 1 1 2
M  V30 2 1 2 3
M  V30 3 2 3 4
M  V30 4 1 4 5
M  V30 5 2 5 6
M  V30 6 1 6 7
M  V30 7 1 7 8
M  V30 8 2 8 9
M  V30 9 1 9 10
M  V30 10 2 10 11
M  V30 11 1 11 12
M  V30 12 1 12 13
M  V30 13 1 13 14
M  V30 14 1 14 15
M  V30 15 1 15 16
M  V30 16 1 15 17
M  V30 17 1 17 18
M  V30 18 1 11 19
M  V30 19 2 19 20
M  V30 20 2 7 21
M  V30 21 1 21 22
M  V30 22 1 22 23
M  V30 23 1 23 24
M  V30 24 2 24 25
M  V30 25 1 25 26
M  V30 26 1 26 27
M  V30 27 1 27 28
M  V30 28 2 28 29
M  V30 29 1 29 30
M  V30 30 2 30 31
M  V30 31 1 31 32
M  V30 32 2 32 33
M  V30 33 1 26 34
M  V30 34 2 34 35
M  V30 35 1 22 36
M  V30 36 2 36 37
M  V30 37 1 37 3
M  V30 38 1 36 6
M  V30 39 1 20 8
M  V30 40 1 35 24
M  V30 41 1 18 12
M  V30 42 1 33 28
M  V30 43 1 1 38
M  V30 44 1 1 39
M  V30 45 1 1 40
M  V30 46 1 2 41
M  V30 47 1 5 42
M  V30 48 1 9 43
M  V30 49 1 10 44
M  V30 50 1 13 45
M  V30 51 1 13 46
M  V30 52 1 14 47
M  V30 53 1 14 48
M  V30 54 1 16 49
M  V30 55 1 16 50
M  V30 56 1 16 51
M  V30 57 1 17 52
M  V30 58 1 17 53
M  V30 59 1 18 54
M  V30 60 1 18 55
M  V30 61 1 20 56
M  V30 62 1 23 57
M  V30 63 1 23 58
M  V30 64 1 25 59
M  V30 65 1 27 60
M  V30 66 1 27 61
M  V30 67 1 29 62
M  V30 68 1 30 63
M  V30 69 1 31 64
M  V30 70 1 32 65
M  V30 71 1 33 66
M  V30 END BOND
M  V30 END CTAB
M  END
>  <Dataset>  (993) 
ChEMBL_Kinases

>  <Ligand_Instance>  (993) 
nan

>  <PDB_ID>  (993) 
nan

>  <Standardized_SMILES>  (993) 
CNc1ncc2c(-c3ccc(N4CCN(C)CC4)nc3)nn(Cc3cn(Cc4ccccc4)nn3)c2n1

>  <Name>  (993) 
nan

>  <Pocket>  (993) 
nan

>  <ATP_Site>  (993) 
nan

>  <Peripheral>  (993) 
nan

>  <Num_H_Atoms_ProtBoundConf>  (993) 
nan

>  <Num_Resolved_Atoms>  (993) 
nan

>  <Num_Not_Resolved_Atoms>  (993) 
nan

$$$$
CHEMBL4218285
     RDKit          3D

  0  0  0  0  0  0  0  0  0  0999 V3000
M  V30 BEGIN CTAB
M  V30 COUNTS 56 59 0 0 0
M  V30 BEGIN ATOM
M  V30 1 C 4.038532 -2.856653 4.121494 0
M  V30 2 N 3.979502 -1.944233 2.977629 0
M  V30 3 C 4.546328 -1.931361 1.667554 0
M  V30 4 O 5.248860 -2.943807 1.521382 0
M  V30 5 C 4.194968 -0.799967 0.845628 0
M  V30 6 C 4.937284 -0.538615 -0.284071 0
M  V30 7 C 4.679169 0.505874 -1.138969 0
M  V30 8 C 3.628860 1.353801 -0.880971 0
M  V30 9 C 3.381336 2.472116 -1.811523 0
M  V30 10 C 2.893479 1.081064 0.247546 0
M  V30 11 N 1.769210 1.935830 0.540010 0
M  V30 12 C 0.930880 1.632940 1.644893 0
M  V30 13 N 0.976680 1.917256 2.934306 0
M  V30 14 C 0.053180 1.495615 3.820510 0
M  V30 15 C -0.991688 0.728724 3.350286 0
M  V30 16 C -1.066547 0.411169 1.973539 0
M  V30 17 C -2.204698 -0.404354 1.486231 0
M  V30 18 C -3.174772 -0.868660 2.365569 0
M  V30 19 C -4.176322 -1.612666 1.720102 0
M  V30 20 C -5.235627 -2.142394 2.541196 0
M  V30 21 N -6.090253 -2.585158 3.195108 0
M  V30 22 C -4.144974 -1.821576 0.382170 0
M  V30 23 C -3.201695 -1.372316 -0.488623 0
M  V30 24 C -2.195476 -0.629059 0.133545 0
M  V30 25 C -3.488791 -1.785572 -1.866195 0 CFG=1
M  V30 26 C -4.124482 -0.668935 -2.622969 0
M  V30 27 C -2.286899 -2.358274 -2.569421 0
M  V30 28 O -2.649191 -2.711809 -3.869566 0
M  V30 29 C -4.501070 -2.904479 -1.693888 0
M  V30 30 N -5.083965 -2.555420 -0.413514 0
M  V30 31 N -0.089449 0.875421 1.129597 0
M  V30 32 C 3.141625 0.038518 1.113871 0
M  V30 33 H 4.534300 -2.329148 4.956308 0
M  V30 34 H 4.684900 -3.736444 3.888443 0
M  V30 35 H 3.068250 -3.258473 4.416039 0
M  V30 36 H 3.347818 -1.193335 3.370886 0
M  V30 37 H 5.779273 -1.183505 -0.535536 0
M  V30 38 H 5.296726 0.671386 -2.029232 0
M  V30 39 H 2.783089 3.299011 -1.384685 0
M  V30 40 H 2.983284 2.134366 -2.797727 0
M  V30 41 H 4.361611 2.964656 -2.082638 0
M  V30 42 H 1.463205 2.772013 0.043088 0
M  V30 43 H 0.200006 1.792454 4.847247 0
M  V30 44 H -1.686948 0.421087 4.109673 0
M  V30 45 H -3.156797 -0.680918 3.402254 0
M  V30 46 H -1.400243 -0.236496 -0.514827 0
M  V30 47 H -4.595311 0.018583 -1.874839 0
M  V30 48 H -4.968655 -0.991568 -3.276347 0
M  V30 49 H -3.416543 -0.063920 -3.204213 0
M  V30 50 H -1.956703 -3.312574 -2.094739 0
M  V30 51 H -1.417659 -1.686501 -2.513217 0
M  V30 52 H -2.172116 -3.533393 -4.176902 0
M  V30 53 H -5.221848 -2.833483 -2.519088 0
M  V30 54 H -4.016570 -3.889945 -1.689681 0
M  V30 55 H -6.076080 -2.875529 -0.248129 0
M  V30 56 H 2.512524 -0.087208 1.958251 0
M  V30 END ATOM
M  V30 BEGIN BOND
M  V30 1 1 1 2
M  V30 2 1 2 3
M  V30 3 2 3 4
M  V30 4 1 3 5
M  V30 5 2 5 6
M  V30 6 1 6 7
M  V30 7 2 7 8
M  V30 8 1 8 9
M  V30 9 1 8 10
M  V30 10 1 10 11
M  V30 11 1 11 12
M  V30 12 2 12 13
M  V30 13 1 13 14
M  V30 14 2 14 15
M  V30 15 1 15 16
M  V30 16 1 16 17
M  V30 17 2 17 18
M  V30 18 1 18 19
M  V30 19 1 19 20
M  V30 20 3 20 21
M  V30 21 2 19 22
M  V30 22 1 22 23
M  V30 23 2 23 24
M  V30 24 1 23 25
M  V30 25 1 25 26 CFG=3
M  V30 26 1 25 27
M  V30 27 1 27 28
M  V30 28 1 25 29
M  V30 29 1 29 30
M  V30 30 2 16 31
M  V30 31 2 10 32
M  V30 32 1 32 5
M  V30 33 1 31 12
M  V30 34 1 24 17
M  V30 35 1 30 22
M  V30 36 1 1 33
M  V30 37 1 1 34
M  V30 38 1 1 35
M  V30 39 1 2 36
M  V30 40 1 6 37
M  V30 41 1 7 38
M  V30 42 1 9 39
M  V30 43 1 9 40
M  V30 44 1 9 41
M  V30 45 1 11 42
M  V30 46 1 14 43
M  V30 47 1 15 44
M  V30 48 1 18 45
M  V30 49 1 24 46
M  V30 50 1 26 47
M  V30 51 1 26 48
M  V30 52 1 26 49
M  V30 53 1 27 50
M  V30 54 1 27 51
M  V30 55 1 28 52
M  V30 56 1 29 53
M  V30 57 1 29 54
M  V30 58 1 30 55
M  V30 59 1 32 56
M  V30 END BOND
M  V30 END CTAB
M  END
>  <Dataset>  (994) 
ChEMBL_Kinases

>  <Ligand_Instance>  (994) 
nan

>  <PDB_ID>  (994) 
nan

>  <Standardized_SMILES>  (994) 
CNC(=O)c1ccc(C)c(Nc2nccc(-c3cc(C#N)c4c(c3)[C@@](C)(CO)CN4)n2)c1

>  <Name>  (994) 
nan

>  <Pocket>  (994) 
nan

>  <ATP_Site>  (994) 
nan

>  <Peripheral>  (994) 
nan

>  <Num_H_Atoms_ProtBoundConf>  (994) 
nan

>  <Num_Resolved_Atoms>  (994) 
nan

>  <Num_Not_Resolved_Atoms>  (994) 
nan

$$$$
CHEMBL4777817
     RDKit          3D

  0  0  0  0  0  0  0  0  0  0999 V3000
M  V30 BEGIN CTAB
M  V30 COUNTS 145 151 0 0 0
M  V30 BEGIN ATOM
M  V30 1 C 9.822455 -1.157545 -3.120459 0
M  V30 2 C 9.182979 -1.359514 -1.796063 0
M  V30 3 N 9.880736 -2.038925 -0.931945 0
M  V30 4 C 9.365502 -2.286012 0.254955 0
M  V30 5 S 7.672830 -1.459711 0.159285 0
M  V30 6 C 7.935773 -0.901126 -1.494413 0
M  V30 7 C 6.921149 -0.138251 -2.226034 0
M  V30 8 C 6.991361 0.454192 -3.433790 0
M  V30 9 C 6.002470 1.139757 -4.092195 0
M  V30 10 C 4.769770 1.244997 -3.443345 0
M  V30 11 C 3.728871 2.005205 -4.158347 0
M  V30 12 N 2.960242 1.260649 -5.099980 0
M  V30 13 C 1.976219 0.401937 -4.577399 0
M  V30 14 O 1.609330 0.132172 -3.412547 0
M  V30 15 C 0.944558 -0.555604 -5.089638 0 CFG=2
M  V30 16 C -0.045613 0.210572 -5.891165 0
M  V30 17 C -1.306240 0.234821 -5.095085 0 CFG=1
M  V30 18 O -2.332326 -0.192902 -5.956720 0
M  V30 19 C -1.133855 -0.744718 -3.973764 0
M  V30 20 N 0.234999 -1.194062 -4.050003 0
M  V30 21 C 0.994357 -2.123866 -3.303797 0
M  V30 22 O 2.229778 -2.417963 -3.493559 0
M  V30 23 C 0.958401 -3.085139 -2.173676 0 CFG=1
M  V30 24 N 2.333717 -3.358072 -1.837872 0
M  V30 25 C 3.412906 -4.173203 -1.423349 0
M  V30 26 O 2.735004 -5.260213 -1.232313 0
M  V30 27 C 4.852958 -3.961332 -1.229687 0
M  V30 28 C 5.243943 -4.484721 0.186226 0
M  V30 29 C 4.481912 -3.576656 1.065199 0
M  V30 30 C 4.502017 -3.705546 2.549808 0
M  V30 31 C 3.641478 -2.562694 3.001314 0
M  V30 32 C 3.365381 -2.354305 4.425930 0
M  V30 33 N 2.528851 -1.115162 4.480794 0
M  V30 34 C 1.902634 -0.440019 5.553056 0
M  V30 35 O 2.140843 -1.080575 6.589987 0
M  V30 36 C 1.187852 0.766221 5.101125 0
M  V30 37 C 0.225609 1.347869 6.071257 0
M  V30 38 C -0.372059 2.570967 5.468053 0
M  V30 39 O 0.495638 3.246925 4.805686 0
M  V30 40 N -1.669153 3.143802 5.472554 0
M  V30 41 C -2.807465 2.506609 6.096263 0
M  V30 42 C -4.072595 2.985966 5.438650 0
M  V30 43 N -4.008591 3.330980 4.073241 0
M  V30 44 C -4.345095 2.380411 3.086750 0 CFG=1
M  V30 45 C -5.753063 1.822835 3.181424 0
M  V30 46 C -5.816942 0.558762 2.336327 0
M  V30 47 C -5.037278 0.737980 1.060483 0 CFG=1
M  V30 48 N -5.622342 -0.050799 0.020651 0
M  V30 49 C -6.964068 0.113614 -0.420073 0
M  V30 50 N -7.761107 1.031767 0.145539 0
M  V30 51 C -9.036968 1.256890 -0.166221 0
M  V30 52 N -9.589840 0.488560 -1.145691 0
M  V30 53 N -8.805528 -0.414521 -1.700564 0
M  V30 54 C -9.243877 -1.225703 -2.680334 0
M  V30 55 C -8.148842 -2.008485 -3.001869 0
M  V30 56 C -7.034511 -1.669446 -2.207687 0
M  V30 57 C -5.678024 -2.253609 -2.283593 0
M  V30 58 C -5.396970 -3.292848 -1.238185 0
M  V30 59 C -5.681856 -3.048807 -3.619427 0
M  V30 60 C -7.521852 -0.660975 -1.410616 0
M  V30 61 C -5.078279 2.210968 0.694879 0
M  V30 62 C -4.226056 2.995790 1.703567 0
M  V30 63 C -2.932640 4.179551 3.715810 0
M  V30 64 C -1.967915 4.421589 4.875125 0
M  V30 65 C 0.173944 -2.680369 -0.981422 0
M  V30 66 C 0.240326 -3.846357 0.031534 0
M  V30 67 C -1.310533 -2.518578 -1.248435 0
M  V30 68 C 0.674032 -1.465216 -0.253080 0
M  V30 69 C 4.605616 0.660058 -2.185853 0
M  V30 70 C 5.674126 0.002907 -1.638532 0
M  V30 71 H 10.060075 -0.106514 -3.270238 0
M  V30 72 H 10.755245 -1.747763 -3.288921 0
M  V30 73 H 9.121745 -1.589080 -3.898665 0
M  V30 74 H 9.839078 -2.848320 1.088173 0
M  V30 75 H 7.923739 0.402253 -3.947800 0
M  V30 76 H 6.165852 1.580449 -5.058057 0
M  V30 77 H 3.107408 2.513580 -3.386641 0
M  V30 78 H 4.229100 2.821770 -4.721465 0
M  V30 79 H 2.905843 1.146575 -6.129880 0
M  V30 80 H 1.392044 -1.335632 -5.754097 0
M  V30 81 H 0.266329 1.304205 -5.984210 0
M  V30 82 H -0.188181 -0.210727 -6.920981 0
M  V30 83 H -1.603337 1.250109 -4.731603 0
M  V30 84 H -2.638982 0.646337 -6.429033 0
M  V30 85 H -1.340327 -0.219363 -3.006128 0
M  V30 86 H -1.872480 -1.546638 -4.084203 0
M  V30 87 H 0.476045 -4.085550 -2.478088 0
M  V30 88 H 2.886777 -2.420689 -1.882224 0
M  V30 89 H 5.473608 -4.376671 -2.011774 0
M  V30 90 H 5.006204 -2.866371 -1.170179 0
M  V30 91 H 5.104059 -5.547137 0.284446 0
M  V30 92 H 6.315138 -4.237024 0.278602 0
M  V30 93 H 3.395798 -3.530992 0.775557 0
M  V30 94 H 4.818200 -2.505677 0.836407 0
M  V30 95 H 5.563614 -3.487542 2.870366 0
M  V30 96 H 4.220113 -4.672837 2.970138 0
M  V30 97 H 4.091202 -1.624353 2.582501 0
M  V30 98 H 2.632770 -2.625614 2.474470 0
M  V30 99 H 2.880698 -3.150780 4.986091 0
M  V30 100 H 4.316003 -2.113545 4.968924 0
M  V30 101 H 2.398771 -0.680289 3.501371 0
M  V30 102 H 0.701553 0.615519 4.104335 0
M  V30 103 H 1.984749 1.536007 4.905258 0
M  V30 104 H 0.745366 1.654649 7.008326 0
M  V30 105 H -0.538754 0.590034 6.359383 0
M  V30 106 H -2.643534 1.409269 5.958339 0
M  V30 107 H -2.836123 2.791239 7.167123 0
M  V30 108 H -4.354285 3.939308 5.993847 0
M  V30 109 H -4.937579 2.315300 5.670664 0
M  V30 110 H -3.643098 1.519612 3.129436 0
M  V30 111 H -6.518391 2.514570 2.780542 0
M  V30 112 H -6.050795 1.517902 4.196072 0
M  V30 113 H -5.363976 -0.296844 2.887846 0
M  V30 114 H -6.841501 0.246516 2.102431 0
M  V30 115 H -3.967731 0.409362 1.209847 0
M  V30 116 H -4.920685 -0.715714 -0.311096 0
M  V30 117 H -9.666022 2.008857 0.313698 0
M  V30 118 H -10.213699 -1.314474 -3.161765 0
M  V30 119 H -8.169174 -2.778608 -3.769354 0
M  V30 120 H -4.864558 -1.528278 -2.328404 0
M  V30 121 H -4.265965 -3.349872 -1.170892 0
M  V30 122 H -5.795807 -4.274930 -1.551460 0
M  V30 123 H -5.745722 -2.990541 -0.217482 0
M  V30 124 H -5.878585 -2.349009 -4.461955 0
M  V30 125 H -6.443894 -3.825983 -3.575356 0
M  V30 126 H -4.697603 -3.494233 -3.742489 0
M  V30 127 H -6.116740 2.560146 0.713918 0
M  V30 128 H -4.681805 2.324408 -0.326775 0
M  V30 129 H -3.167257 2.986397 1.328514 0
M  V30 130 H -4.613298 4.015960 1.732550 0
M  V30 131 H -3.369272 5.162253 3.420071 0
M  V30 132 H -2.337534 3.827524 2.855071 0
M  V30 133 H -1.071365 4.879812 4.404239 0
M  V30 134 H -2.419557 5.127450 5.596489 0
M  V30 135 H -0.665710 -3.804479 0.691080 0
M  V30 136 H 1.167465 -3.816891 0.606282 0
M  V30 137 H 0.221647 -4.773986 -0.570421 0
M  V30 138 H -1.598397 -2.966477 -2.220388 0
M  V30 139 H -1.589108 -1.488744 -1.078528 0
M  V30 140 H -1.870315 -3.117371 -0.467630 0
M  V30 141 H -0.204040 -0.892615 0.103558 0
M  V30 142 H 1.274547 -0.788405 -0.891921 0
M  V30 143 H 1.242796 -1.725196 0.668464 0
M  V30 144 H 3.654190 0.760403 -1.720899 0
M  V30 145 H 5.422495 -0.409780 -0.656697 0
M  V30 END ATOM
M  V30 BEGIN BOND
M  V30 1 1 1 2
M  V30 2 1 2 3
M  V30 3 2 3 4
M  V30 4 1 4 5
M  V30 5 1 5 6
M  V30 6 1 6 7
M  V30 7 2 7 8
M  V30 8 1 8 9
M  V30 9 2 9 10
M  V30 10 1 10 11
M  V30 11 1 11 12
M  V30 12 1 12 13
M  V30 13 2 13 14
M  V30 14 1 13 15
M  V30 15 1 15 16
M  V30 16 1 16 17
M  V30 17 1 17 18
M  V30 18 1 17 19
M  V30 19 1 19 20
M  V30 20 1 20 21
M  V30 21 2 21 22
M  V30 22 1 21 23
M  V30 23 1 23 24
M  V30 24 1 24 25
M  V30 25 2 25 26
M  V30 26 1 25 27
M  V30 27 1 27 28
M  V30 28 1 28 29
M  V30 29 1 29 30
M  V30 30 1 30 31
M  V30 31 1 31 32
M  V30 32 1 32 33
M  V30 33 1 33 34
M  V30 34 2 34 35
M  V30 35 1 34 36
M  V30 36 1 36 37
M  V30 37 1 37 38
M  V30 38 2 38 39
M  V30 39 1 38 40
M  V30 40 1 40 41
M  V30 41 1 41 42
M  V30 42 1 42 43
M  V30 43 1 43 44
M  V30 44 1 44 45
M  V30 45 1 45 46
M  V30 46 1 46 47
M  V30 47 1 47 48
M  V30 48 1 48 49
M  V30 49 2 49 50
M  V30 50 1 50 51
M  V30 51 2 51 52
M  V30 52 1 52 53
M  V30 53 1 53 54
M  V30 54 2 54 55
M  V30 55 1 55 56
M  V30 56 1 56 57
M  V30 57 1 57 58
M  V30 58 1 57 59
M  V30 59 2 56 60
M  V30 60 1 47 61
M  V30 61 1 61 62
M  V30 62 1 43 63
M  V30 63 1 63 64
M  V30 64 1 23 65
M  V30 65 1 65 66
M  V30 66 1 65 67
M  V30 67 1 65 68
M  V30 68 1 10 69
M  V30 69 2 69 70
M  V30 70 2 6 2
M  V30 71 1 70 7
M  V30 72 1 20 15
M  V30 73 1 64 40
M  V30 74 1 62 44
M  V30 75 1 60 49
M  V30 76 1 60 53
M  V30 77 1 1 71
M  V30 78 1 1 72
M  V30 79 1 1 73
M  V30 80 1 4 74
M  V30 81 1 8 75
M  V30 82 1 9 76
M  V30 83 1 11 77
M  V30 84 1 11 78
M  V30 85 1 12 79
M  V30 86 1 15 80 CFG=3
M  V30 87 1 16 81
M  V30 88 1 16 82
M  V30 89 1 17 83 CFG=1
M  V30 90 1 18 84
M  V30 91 1 19 85
M  V30 92 1 19 86
M  V30 93 1 23 87 CFG=3
M  V30 94 1 24 88
M  V30 95 1 27 89
M  V30 96 1 27 90
M  V30 97 1 28 91
M  V30 98 1 28 92
M  V30 99 1 29 93
M  V30 100 1 29 94
M  V30 101 1 30 95
M  V30 102 1 30 96
M  V30 103 1 31 97
M  V30 104 1 31 98
M  V30 105 1 32 99
M  V30 106 1 32 100
M  V30 107 1 33 101
M  V30 108 1 36 102
M  V30 109 1 36 103
M  V30 110 1 37 104
M  V30 111 1 37 105
M  V30 112 1 41 106
M  V30 113 1 41 107
M  V30 114 1 42 108
M  V30 115 1 42 109
M  V30 116 1 44 110 CFG=3
M  V30 117 1 45 111
M  V30 118 1 45 112
M  V30 119 1 46 113
M  V30 120 1 46 114
M  V30 121 1 47 115 CFG=1
M  V30 122 1 48 116
M  V30 123 1 51 117
M  V30 124 1 54 118
M  V30 125 1 55 119
M  V30 126 1 57 120
M  V30 127 1 58 121
M  V30 128 1 58 122
M  V30 129 1 58 123
M  V30 130 1 59 124
M  V30 131 1 59 125
M  V30 132 1 59 126
M  V30 133 1 61 127
M  V30 134 1 61 128
M  V30 135 1 62 129
M  V30 136 1 62 130
M  V30 137 1 63 131
M  V30 138 1 63 132
M  V30 139 1 64 133
M  V30 140 1 64 134
M  V30 141 1 66 135
M  V30 142 1 66 136
M  V30 143 1 66 137
M  V30 144 1 67 138
M  V30 145 1 67 139
M  V30 146 1 67 140
M  V30 147 1 68 141
M  V30 148 1 68 142
M  V30 149 1 68 143
M  V30 150 1 69 144
M  V30 151 1 70 145
M  V30 END BOND
M  V30 END CTAB
M  END
>  <Dataset>  (995) 
ChEMBL_Kinases

>  <Ligand_Instance>  (995) 
nan

>  <PDB_ID>  (995) 
nan

>  <Standardized_SMILES>  (995) 
Cc1ncsc1-c1ccc(CNC(=O)[C@@H]2C[C@@H](O)CN2C(=O)[C@@H](NC(=O)CCCCCCNC(=O)CCC(=O)N2CCN([C@H]3CC[C@@H](Nc4ncnn5ccc(C(C)C)c45)CC3)CC2)C(C)(C)C)cc1

>  <Name>  (995) 
nan

>  <Pocket>  (995) 
nan

>  <ATP_Site>  (995) 
nan

>  <Peripheral>  (995) 
nan

>  <Num_H_Atoms_ProtBoundConf>  (995) 
nan

>  <Num_Resolved_Atoms>  (995) 
nan

>  <Num_Not_Resolved_Atoms>  (995) 
nan

$$$$
CHEMBL4218245
     RDKit          3D

  0  0  0  0  0  0  0  0  0  0999 V3000
M  V30 BEGIN CTAB
M  V30 COUNTS 69 72 0 0 0
M  V30 BEGIN ATOM
M  V30 1 C 2.423760 -5.046618 -1.411881 0
M  V30 2 C 3.022498 -4.378615 -2.612949 0
M  V30 3 N 2.360032 -3.246400 -3.122106 0
M  V30 4 C 1.129263 -3.480444 -3.745631 0
M  V30 5 C 0.033299 -3.889327 -2.812993 0
M  V30 6 C 3.229573 -2.251929 -3.642500 0 CFG=1
M  V30 7 C 4.043385 -2.659072 -4.838562 0
M  V30 8 C 2.510002 -0.917357 -3.854590 0
M  V30 9 N 1.987735 -0.486240 -2.557113 0
M  V30 10 C 1.220291 0.686301 -2.275695 0
M  V30 11 O 0.985063 1.407273 -3.266749 0
M  V30 12 C 0.803954 0.887561 -0.866599 0
M  V30 13 C 1.325547 0.315517 0.266759 0
M  V30 14 C 0.747613 0.560350 1.491142 0
M  V30 15 N 1.398670 -0.081371 2.575382 0
M  V30 16 C 1.135580 -1.500043 2.586414 0
M  V30 17 C -0.373875 -1.693224 2.670418 0
M  V30 18 O -0.661477 -3.058637 2.677641 0
M  V30 19 C -1.996526 -3.365782 2.732922 0
M  V30 20 N -0.325242 1.363592 1.546020 0
M  V30 21 C -0.854626 1.940289 0.438436 0
M  V30 22 C -2.064998 2.779496 0.560827 0
M  V30 23 C -2.621226 3.479674 -0.484717 0
M  V30 24 N -3.719850 4.070897 0.055374 0
M  V30 25 N -3.803837 3.740836 1.335988 0
M  V30 26 C -4.724998 4.082645 2.265363 0
M  V30 27 C -4.649552 3.629402 3.556262 0
M  V30 28 C -3.597214 2.809584 3.877738 0
M  V30 29 C -3.430776 2.269244 5.244758 0
M  V30 30 C -4.213085 2.422198 6.410047 0
M  V30 31 C -3.771489 1.777695 7.531889 0
M  V30 32 C -2.582813 1.013462 7.452328 0
M  V30 33 S -1.992507 1.154453 5.755897 0
M  V30 34 N -2.685456 2.463908 2.982899 0
M  V30 35 C -2.795325 2.929469 1.724959 0
M  V30 36 C -0.294852 1.715984 -0.824647 0
M  V30 37 H 2.002076 -6.056825 -1.611564 0
M  V30 38 H 1.728872 -4.374993 -0.874266 0
M  V30 39 H 3.226954 -5.271687 -0.633743 0
M  V30 40 H 3.065695 -5.182806 -3.407495 0
M  V30 41 H 4.109385 -4.180546 -2.370764 0
M  V30 42 H 0.730259 -2.593943 -4.313223 0
M  V30 43 H 1.198178 -4.284908 -4.539226 0
M  V30 44 H -0.938280 -3.779766 -3.367015 0
M  V30 45 H 0.018268 -3.179808 -1.980029 0
M  V30 46 H 0.141706 -4.944621 -2.551424 0
M  V30 47 H 3.956198 -2.013612 -2.797488 0
M  V30 48 H 3.398031 -3.085254 -5.647397 0
M  V30 49 H 4.790689 -3.404085 -4.541077 0
M  V30 50 H 4.616592 -1.767244 -5.213408 0
M  V30 51 H 1.784439 -0.915336 -4.655673 0
M  V30 52 H 3.326849 -0.213452 -4.155143 0
M  V30 53 H 2.200877 -1.115822 -1.730966 0
M  V30 54 H 2.193199 -0.313079 0.110384 0
M  V30 55 H 1.989352 0.426309 3.270163 0
M  V30 56 H 1.637989 -2.044270 3.407493 0
M  V30 57 H 1.451160 -1.936163 1.601709 0
M  V30 58 H -0.822504 -1.197655 1.807184 0
M  V30 59 H -0.675089 -1.199552 3.618216 0
M  V30 60 H -2.185203 -4.468118 2.741124 0
M  V30 61 H -2.489731 -2.971763 3.643135 0
M  V30 62 H -2.490723 -2.920012 1.833767 0
M  V30 63 H -2.293369 3.568712 -1.512869 0
M  V30 64 H -5.575060 4.724207 2.073469 0
M  V30 65 H -5.306227 3.826754 4.366445 0
M  V30 66 H -5.079466 3.039646 6.269094 0
M  V30 67 H -4.342167 1.870836 8.443717 0
M  V30 68 H -2.176001 0.491910 8.264684 0
M  V30 69 H -0.780650 2.216396 -1.666219 0
M  V30 END ATOM
M  V30 BEGIN BOND
M  V30 1 1 1 2
M  V30 2 1 2 3
M  V30 3 1 3 4
M  V30 4 1 4 5
M  V30 5 1 3 6
M  V30 6 1 6 7
M  V30 7 1 6 8
M  V30 8 1 8 9
M  V30 9 1 9 10
M  V30 10 2 10 11
M  V30 11 1 10 12
M  V30 12 2 12 13
M  V30 13 1 13 14
M  V30 14 1 14 15
M  V30 15 1 15 16
M  V30 16 1 16 17
M  V30 17 1 17 18
M  V30 18 1 18 19
M  V30 19 2 14 20
M  V30 20 1 20 21
M  V30 21 1 21 22
M  V30 22 1 22 23
M  V30 23 2 23 24
M  V30 24 1 24 25
M  V30 25 1 25 26
M  V30 26 2 26 27
M  V30 27 1 27 28
M  V30 28 1 28 29
M  V30 29 2 29 30
M  V30 30 1 30 31
M  V30 31 2 31 32
M  V30 32 1 32 33
M  V30 33 2 28 34
M  V30 34 1 34 35
M  V30 35 2 21 36
M  V30 36 1 36 12
M  V30 37 2 35 22
M  V30 38 1 35 25
M  V30 39 1 33 29
M  V30 40 1 1 37
M  V30 41 1 1 38
M  V30 42 1 1 39
M  V30 43 1 2 40
M  V30 44 1 2 41
M  V30 45 1 4 42
M  V30 46 1 4 43
M  V30 47 1 5 44
M  V30 48 1 5 45
M  V30 49 1 5 46
M  V30 50 1 6 47 CFG=1
M  V30 51 1 7 48
M  V30 52 1 7 49
M  V30 53 1 7 50
M  V30 54 1 8 51
M  V30 55 1 8 52
M  V30 56 1 9 53
M  V30 57 1 13 54
M  V30 58 1 15 55
M  V30 59 1 16 56
M  V30 60 1 16 57
M  V30 61 1 17 58
M  V30 62 1 17 59
M  V30 63 1 19 60
M  V30 64 1 19 61
M  V30 65 1 19 62
M  V30 66 1 23 63
M  V30 67 1 26 64
M  V30 68 1 27 65
M  V30 69 1 30 66
M  V30 70 1 31 67
M  V30 71 1 32 68
M  V30 72 1 36 69
M  V30 END BOND
M  V30 END CTAB
M  END
>  <Dataset>  (996) 
ChEMBL_Kinases

>  <Ligand_Instance>  (996) 
nan

>  <PDB_ID>  (996) 
nan

>  <Standardized_SMILES>  (996) 
CCN(CC)[C@@H](C)CNC(=O)c1cc(NCCOC)nc(-c2cnn3ccc(-c4cccs4)nc23)c1

>  <Name>  (996) 
nan

>  <Pocket>  (996) 
nan

>  <ATP_Site>  (996) 
nan

>  <Peripheral>  (996) 
nan

>  <Num_H_Atoms_ProtBoundConf>  (996) 
nan

>  <Num_Resolved_Atoms>  (996) 
nan

>  <Num_Not_Resolved_Atoms>  (996) 
nan

$$$$
CHEMBL4218106
     RDKit          3D

  0  0  0  0  0  0  0  0  0  0999 V3000
M  V30 BEGIN CTAB
M  V30 COUNTS 70 73 0 0 0
M  V30 BEGIN ATOM
M  V30 1 C 4.442138 0.754271 4.295821 0
M  V30 2 C 5.325573 1.704004 3.537481 0
M  V30 3 C 5.899900 1.127839 2.264916 0 CFG=2
M  V30 4 C 6.751878 2.208275 1.643498 0
M  V30 5 O 7.969598 2.389690 1.379611 0
M  V30 6 N 5.919536 3.322465 1.256990 0
M  V30 7 C 4.536759 3.131624 0.888286 0
M  V30 8 C 3.703642 4.162303 0.520208 0
M  V30 9 N 2.447017 3.863950 0.206273 0
M  V30 10 C 1.902646 2.637828 0.213303 0
M  V30 11 N 0.549137 2.499651 -0.158612 0
M  V30 12 C -0.255622 1.342080 -0.125152 0
M  V30 13 C 0.129551 0.115097 0.365972 0
M  V30 14 C -0.660189 -1.015699 0.409838 0
M  V30 15 C -1.950862 -0.937923 -0.073049 0
M  V30 16 C -2.783517 -2.135555 -0.025857 0
M  V30 17 O -2.296614 -3.173654 0.472138 0
M  V30 18 N -4.113108 -2.158728 -0.522340 0
M  V30 19 C -4.851769 -3.388618 -0.430421 0
M  V30 20 C -5.065118 -3.892361 -1.858041 0
M  V30 21 C -6.539361 -3.949468 -2.137351 0
M  V30 22 N -7.127451 -4.957068 -1.280746 0
M  V30 23 C -6.592495 -6.243505 -1.688081 0
M  V30 24 C -6.833594 -4.656819 0.106428 0
M  V30 25 C -6.179378 -3.276336 0.254277 0
M  V30 26 C -2.385385 0.268159 -0.575263 0
M  V30 27 C -1.557504 1.368237 -0.596758 0
M  V30 28 O -2.083829 2.555531 -1.126026 0
M  V30 29 C -3.387115 2.669541 -1.623295 0
M  V30 30 N 2.742879 1.655878 0.576317 0
M  V30 31 C 4.011206 1.847336 0.906869 0
M  V30 32 N 4.879712 0.792015 1.287955 0
M  V30 33 C 4.750854 -0.515115 0.720728 0
M  V30 34 C 4.349534 -1.497211 1.800687 0
M  V30 35 C 3.932134 -0.604077 -0.526504 0
M  V30 36 H 3.449977 0.730940 3.800554 0
M  V30 37 H 4.894448 -0.249901 4.410802 0
M  V30 38 H 4.310896 1.114714 5.358809 0
M  V30 39 H 6.130538 2.055690 4.222722 0
M  V30 40 H 4.749189 2.617589 3.280855 0
M  V30 41 H 6.500759 0.235320 2.487311 0
M  V30 42 H 6.196417 4.337221 1.195390 0
M  V30 43 H 4.100051 5.167742 0.501005 0
M  V30 44 H 0.052459 3.371033 -0.513753 0
M  V30 45 H 1.106906 -0.007317 0.758687 0
M  V30 46 H -0.277413 -1.958808 0.817921 0
M  V30 47 H -4.553881 -1.315064 -0.944065 0
M  V30 48 H -4.281040 -4.198578 0.070636 0
M  V30 49 H -4.646305 -4.897588 -2.025836 0
M  V30 50 H -4.628563 -3.177780 -2.611820 0
M  V30 51 H -7.024178 -2.957481 -2.066262 0
M  V30 52 H -6.687178 -4.254513 -3.209027 0
M  V30 53 H -7.403357 -7.005736 -1.783554 0
M  V30 54 H -5.855028 -6.652374 -0.958945 0
M  V30 55 H -6.077548 -6.202224 -2.682210 0
M  V30 56 H -7.696326 -4.792665 0.769662 0
M  V30 57 H -6.017115 -5.373454 0.414170 0
M  V30 58 H -6.821224 -2.468324 -0.097245 0
M  V30 59 H -6.006397 -3.162530 1.355589 0
M  V30 60 H -3.392885 0.356161 -0.959685 0
M  V30 61 H -3.697277 1.863814 -2.298807 0
M  V30 62 H -4.123902 2.723510 -0.775414 0
M  V30 63 H -3.421651 3.613700 -2.214979 0
M  V30 64 H 5.789085 -0.875263 0.405107 0
M  V30 65 H 4.163587 -2.461562 1.260164 0
M  V30 66 H 3.457806 -1.182224 2.378133 0
M  V30 67 H 5.178207 -1.671616 2.516302 0
M  V30 68 H 3.869386 0.375362 -1.040135 0
M  V30 69 H 4.409699 -1.292747 -1.293698 0
M  V30 70 H 2.952847 -1.053005 -0.269979 0
M  V30 END ATOM
M  V30 BEGIN BOND
M  V30 1 1 1 2
M  V30 2 1 2 3
M  V30 3 1 3 4
M  V30 4 2 4 5
M  V30 5 1 4 6
M  V30 6 1 6 7
M  V30 7 2 7 8
M  V30 8 1 8 9
M  V30 9 2 9 10
M  V30 10 1 10 11
M  V30 11 1 11 12
M  V30 12 2 12 13
M  V30 13 1 13 14
M  V30 14 2 14 15
M  V30 15 1 15 16
M  V30 16 2 16 17
M  V30 17 1 16 18
M  V30 18 1 18 19
M  V30 19 1 19 20
M  V30 20 1 20 21
M  V30 21 1 21 22
M  V30 22 1 22 23
M  V30 23 1 22 24
M  V30 24 1 24 25
M  V30 25 1 15 26
M  V30 26 2 26 27
M  V30 27 1 27 28
M  V30 28 1 28 29
M  V30 29 1 10 30
M  V30 30 2 30 31
M  V30 31 1 31 32
M  V30 32 1 32 33
M  V30 33 1 33 34
M  V30 34 1 33 35
M  V30 35 1 32 3
M  V30 36 1 31 7
M  V30 37 1 27 12
M  V30 38 1 25 19
M  V30 39 1 1 36
M  V30 40 1 1 37
M  V30 41 1 1 38
M  V30 42 1 2 39
M  V30 43 1 2 40
M  V30 44 1 3 41 CFG=1
M  V30 45 1 6 42
M  V30 46 1 8 43
M  V30 47 1 11 44
M  V30 48 1 13 45
M  V30 49 1 14 46
M  V30 50 1 18 47
M  V30 51 1 19 48
M  V30 52 1 20 49
M  V30 53 1 20 50
M  V30 54 1 21 51
M  V30 55 1 21 52
M  V30 56 1 23 53
M  V30 57 1 23 54
M  V30 58 1 23 55
M  V30 59 1 24 56
M  V30 60 1 24 57
M  V30 61 1 25 58
M  V30 62 1 25 59
M  V30 63 1 26 60
M  V30 64 1 29 61
M  V30 65 1 29 62
M  V30 66 1 29 63
M  V30 67 1 33 64
M  V30 68 1 34 65
M  V30 69 1 34 66
M  V30 70 1 34 67
M  V30 71 1 35 68
M  V30 72 1 35 69
M  V30 73 1 35 70
M  V30 END BOND
M  V30 END CTAB
M  END
>  <Dataset>  (997) 
ChEMBL_Kinases

>  <Ligand_Instance>  (997) 
nan

>  <PDB_ID>  (997) 
nan

>  <Standardized_SMILES>  (997) 
CC[C@@H]1C(=O)Nc2cnc(Nc3ccc(C(=O)NC4CCN(C)CC4)cc3OC)nc2N1C(C)C

>  <Name>  (997) 
nan

>  <Pocket>  (997) 
nan

>  <ATP_Site>  (997) 
nan

>  <Peripheral>  (997) 
nan

>  <Num_H_Atoms_ProtBoundConf>  (997) 
nan

>  <Num_Resolved_Atoms>  (997) 
nan

>  <Num_Not_Resolved_Atoms>  (997) 
nan

$$$$
CHEMBL4218001
     RDKit          3D

  0  0  0  0  0  0  0  0  0  0999 V3000
M  V30 BEGIN CTAB
M  V30 COUNTS 39 42 0 0 0
M  V30 BEGIN ATOM
M  V30 1 O -0.731942 -2.365061 0.346563 0
M  V30 2 C 0.492986 -2.155635 0.144466 0
M  V30 3 N 1.450186 -3.080771 -0.377240 0
M  V30 4 C 2.705667 -2.436650 -0.440885 0
M  V30 5 C 3.898493 -2.988909 -0.890329 0
M  V30 6 C 5.026715 -2.209394 -0.880458 0
M  V30 7 C 4.956753 -0.895798 -0.426026 0
M  V30 8 Br 6.556538 0.153884 -0.430621 0
M  V30 9 C 3.770176 -0.323912 0.028587 0
M  V30 10 C 2.646640 -1.129704 0.008896 0
M  V30 11 C 1.247943 -0.946474 0.380782 0
M  V30 12 N 0.807691 0.177312 0.854083 0
M  V30 13 N -0.565692 0.308307 1.202943 0
M  V30 14 C -1.401844 0.665263 0.114915 0
M  V30 15 C -0.908152 1.296918 -1.002640 0
M  V30 16 C -1.697800 1.636365 -2.072613 0
M  V30 17 C -3.042090 1.361967 -2.089966 0
M  V30 18 C -3.586722 0.728801 -0.992581 0
M  V30 19 C -2.751521 0.409246 0.055085 0
M  V30 20 C -0.853212 0.060771 2.565855 0
M  V30 21 C -0.012586 -0.695990 3.345850 0
M  V30 22 C -0.250850 -0.944213 4.674565 0
M  V30 23 C -1.359411 -0.440998 5.303235 0
M  V30 24 C -2.223909 0.317941 4.566985 0
M  V30 25 C -1.946058 0.538522 3.249037 0
M  V30 26 H 1.203459 -4.060196 -0.649676 0
M  V30 27 H 3.983280 -3.990199 -1.243699 0
M  V30 28 H 5.974313 -2.622632 -1.228986 0
M  V30 29 H 3.703659 0.685236 0.380527 0
M  V30 30 H 0.159223 1.541139 -1.044710 0
M  V30 31 H -1.213071 2.139891 -2.922789 0
M  V30 32 H -3.581760 1.664156 -2.969362 0
M  V30 33 H -4.645695 0.509325 -0.999271 0
M  V30 34 H -3.260042 -0.093122 0.863634 0
M  V30 35 H 0.891614 -1.130821 2.914892 0
M  V30 36 H 0.457878 -1.557030 5.247592 0
M  V30 37 H -1.537742 -0.642636 6.350049 0
M  V30 38 H -3.100230 0.714780 5.067277 0
M  V30 39 H -2.675920 1.159519 2.742148 0
M  V30 END ATOM
M  V30 BEGIN BOND
M  V30 1 2 1 2
M  V30 2 1 2 3
M  V30 3 1 3 4
M  V30 4 2 4 5
M  V30 5 1 5 6
M  V30 6 2 6 7
M  V30 7 1 7 8
M  V30 8 1 7 9
M  V30 9 2 9 10
M  V30 10 1 10 11
M  V30 11 2 11 12 CFG=2
M  V30 12 1 12 13
M  V30 13 1 13 14
M  V30 14 2 14 15
M  V30 15 1 15 16
M  V30 16 2 16 17
M  V30 17 1 17 18
M  V30 18 2 18 19
M  V30 19 1 13 20
M  V30 20 2 20 21
M  V30 21 1 21 22
M  V30 22 2 22 23
M  V30 23 1 23 24
M  V30 24 2 24 25
M  V30 25 1 11 2
M  V30 26 1 19 14
M  V30 27 1 25 20
M  V30 28 1 10 4
M  V30 29 1 3 26
M  V30 30 1 5 27
M  V30 31 1 6 28
M  V30 32 1 9 29
M  V30 33 1 15 30
M  V30 34 1 16 31
M  V30 35 1 17 32
M  V30 36 1 18 33
M  V30 37 1 19 34
M  V30 38 1 21 35
M  V30 39 1 22 36
M  V30 40 1 23 37
M  V30 41 1 24 38
M  V30 42 1 25 39
M  V30 END BOND
M  V30 END CTAB
M  END
>  <Dataset>  (998) 
ChEMBL_Kinases

>  <Ligand_Instance>  (998) 
nan

>  <PDB_ID>  (998) 
nan

>  <Standardized_SMILES>  (998) 
O=C1Nc2ccc(Br)cc2C1=NN(c1ccccc1)c1ccccc1

>  <Name>  (998) 
nan

>  <Pocket>  (998) 
nan

>  <ATP_Site>  (998) 
nan

>  <Peripheral>  (998) 
nan

>  <Num_H_Atoms_ProtBoundConf>  (998) 
nan

>  <Num_Resolved_Atoms>  (998) 
nan

>  <Num_Not_Resolved_Atoms>  (998) 
nan

$$$$
CHEMBL4217980
     RDKit          3D

  0  0  0  0  0  0  0  0  0  0999 V3000
M  V30 BEGIN CTAB
M  V30 COUNTS 37 41 0 0 0
M  V30 BEGIN ATOM
M  V30 1 C -0.265303 -3.004943 4.308000 0
M  V30 2 C -0.383949 -4.325650 3.970593 0
M  V30 3 N 0.291070 -4.936477 2.981077 0
M  V30 4 C 1.154199 -4.213222 2.254440 0
M  V30 5 C 1.375429 -2.860648 2.486118 0
M  V30 6 N 2.283957 -2.061202 1.734926 0
M  V30 7 C 3.618985 -2.276615 1.751119 0
M  V30 8 N 4.220904 -1.373232 0.952316 0
M  V30 9 C 3.294309 -0.561901 0.407848 0
M  V30 10 C 3.271071 0.523070 -0.463580 0
M  V30 11 C 2.071715 1.140256 -0.819489 0
M  V30 12 C 0.867625 0.660405 -0.290953 0
M  V30 13 C -0.317256 1.386719 -0.736198 0
M  V30 14 C -0.250384 2.782529 -0.733322 0
M  V30 15 C -1.295929 3.598433 -1.128522 0
M  V30 16 N -2.430414 2.995677 -1.534326 0
M  V30 17 C -2.555771 1.655820 -1.559481 0
M  V30 18 N -3.545421 0.800200 -1.908512 0
M  V30 19 C -3.158612 -0.479506 -1.747288 0
M  V30 20 C -1.846624 -0.478165 -1.267158 0
M  V30 21 C -1.510314 0.870524 -1.164790 0
M  V30 22 C 0.911738 -0.416133 0.571231 0
M  V30 23 C 2.091207 -1.010671 0.911235 0
M  V30 24 C 0.642777 -2.307602 3.520753 0
M  V30 25 H -0.820762 -2.561320 5.101111 0
M  V30 26 H -1.065911 -4.960601 4.521962 0
M  V30 27 H 1.722319 -4.676203 1.439915 0
M  V30 28 H 4.141467 -3.046451 2.309787 0
M  V30 29 H 4.246526 0.832387 -0.827778 0
M  V30 30 H 2.112314 1.985798 -1.505534 0
M  V30 31 H 0.671842 3.262612 -0.403312 0
M  V30 32 H -1.221053 4.672547 -1.117734 0
M  V30 33 H -4.481991 1.109048 -2.256018 0
M  V30 34 H -3.759036 -1.357745 -1.953530 0
M  V30 35 H -1.247225 -1.339903 -1.034663 0
M  V30 36 H -0.033263 -0.743470 0.946584 0
M  V30 37 H 0.797414 -1.240786 3.726141 0
M  V30 END ATOM
M  V30 BEGIN BOND
M  V30 1 2 1 2
M  V30 2 1 2 3
M  V30 3 2 3 4
M  V30 4 1 4 5
M  V30 5 1 5 6
M  V30 6 1 6 7
M  V30 7 2 7 8
M  V30 8 1 8 9
M  V30 9 2 9 10
M  V30 10 1 10 11
M  V30 11 2 11 12
M  V30 12 1 12 13
M  V30 13 2 13 14
M  V30 14 1 14 15
M  V30 15 2 15 16
M  V30 16 1 16 17
M  V30 17 1 17 18
M  V30 18 1 18 19
M  V30 19 2 19 20
M  V30 20 1 20 21
M  V30 21 1 12 22
M  V30 22 2 22 23
M  V30 23 2 5 24
M  V30 24 1 24 1
M  V30 25 1 23 6
M  V30 26 1 23 9
M  V30 27 1 21 13
M  V30 28 2 21 17
M  V30 29 1 1 25
M  V30 30 1 2 26
M  V30 31 1 4 27
M  V30 32 1 7 28
M  V30 33 1 10 29
M  V30 34 1 11 30
M  V30 35 1 14 31
M  V30 36 1 15 32
M  V30 37 1 18 33
M  V30 38 1 19 34
M  V30 39 1 20 35
M  V30 40 1 22 36
M  V30 41 1 24 37
M  V30 END BOND
M  V30 END CTAB
M  END
>  <Dataset>  (999) 
ChEMBL_Kinases

>  <Ligand_Instance>  (999) 
nan

>  <PDB_ID>  (999) 
nan

>  <Standardized_SMILES>  (999) 
c1cncc(-n2cnc3ccc(-c4ccnc5[nH]ccc45)cc32)c1

>  <Name>  (999) 
nan

>  <Pocket>  (999) 
nan

>  <ATP_Site>  (999) 
nan

>  <Peripheral>  (999) 
nan

>  <Num_H_Atoms_ProtBoundConf>  (999) 
nan

>  <Num_Resolved_Atoms>  (999) 
nan

>  <Num_Not_Resolved_Atoms>  (999) 
nan

$$$$
