CHEMBL388978
     RDKit          3D

  0  0  0  0  0  0  0  0  0  0999 V3000
M  V30 BEGIN CTAB
M  V30 COUNTS 61 68 0 0 0
M  V30 BEGIN ATOM
M  V30 1 C 3.655712 -2.153289 3.696406 0
M  V30 2 N 3.340911 -0.948655 2.951971 0
M  V30 3 C 1.912493 -0.772310 2.948228 0 CFG=2
M  V30 4 C 1.300597 -1.991046 2.284671 0
M  V30 5 C -0.199194 -1.864910 2.305160 0 CFG=1
M  V30 6 O -0.686553 -0.629326 2.543473 0
M  V30 7 C -0.009284 0.464134 2.022117 0 CFG=1
M  V30 8 C -0.483786 1.629971 2.909106 0
M  V30 9 C 1.474514 0.407567 2.130941 0 CFG=2
M  V30 10 O 2.104558 0.300493 0.890792 0
M  V30 11 C 3.019528 1.335241 0.686860 0
M  V30 12 N -0.472147 0.643319 0.660455 0
M  V30 13 C -0.577975 1.741516 -0.078644 0
M  V30 14 C -0.259103 3.050936 0.191458 0
M  V30 15 C -0.433034 4.058821 -0.706331 0
M  V30 16 C -0.947938 3.822392 -1.962423 0
M  V30 17 C -1.274154 2.521357 -2.257747 0
M  V30 18 C -1.090299 1.520481 -1.336626 0
M  V30 19 C -1.328935 0.179491 -1.411641 0
M  V30 20 C -1.823032 -0.667436 -2.378499 0
M  V30 21 C -1.937881 -2.015201 -2.143006 0
M  V30 22 C -1.559144 -2.523039 -0.940943 0
M  V30 23 C -1.569297 -3.798309 -0.489628 0
M  V30 24 C -1.903681 -5.054046 -0.887086 0
M  V30 25 C -1.782550 -6.204261 -0.142751 0
M  V30 26 C -1.266815 -6.091576 1.152535 0
M  V30 27 C -0.909307 -4.836336 1.610166 0
M  V30 28 C -1.067638 -3.743108 0.790680 0
M  V30 29 N -0.770297 -2.470099 1.085881 0
M  V30 30 C -1.067982 -1.673587 0.018526 0
M  V30 31 C -0.947900 -0.310542 -0.204649 0
M  V30 32 C -2.480723 -2.571873 -3.352683 0
M  V30 33 O -2.792694 -3.711318 -3.720312 0
M  V30 34 N -2.690388 -1.551895 -4.313457 0
M  V30 35 C -2.283263 -0.277043 -3.750628 0
M  V30 36 H 4.640863 -1.964094 4.181277 0
M  V30 37 H 2.855040 -2.379040 4.419483 0
M  V30 38 H 3.733923 -3.008116 2.986170 0
M  V30 39 H 3.850405 -0.117266 3.324886 0
M  V30 40 H 1.469679 -0.675911 3.959764 0
M  V30 41 H 1.671940 -2.084172 1.245326 0
M  V30 42 H 1.677995 -2.891706 2.830274 0
M  V30 43 H -0.540923 -2.520590 3.134536 0
M  V30 44 H -1.361076 2.144777 2.494956 0
M  V30 45 H 0.351803 2.282385 3.225204 0
M  V30 46 H -0.866167 1.230349 3.907697 0
M  V30 47 H 1.902707 1.325224 2.616975 0
M  V30 48 H 3.820817 1.363873 1.436823 0
M  V30 49 H 2.518081 2.343873 0.634673 0
M  V30 50 H 3.476856 1.196018 -0.300507 0
M  V30 51 H 0.155702 3.300493 1.142750 0
M  V30 52 H -0.171654 5.088268 -0.464587 0
M  V30 53 H -1.093698 4.604561 -2.687125 0
M  V30 54 H -1.679440 2.309342 -3.235813 0
M  V30 55 H -2.301377 -5.222299 -1.855250 0
M  V30 56 H -2.052444 -7.178881 -0.478118 0
M  V30 57 H -1.128005 -6.925285 1.824324 0
M  V30 58 H -0.511540 -4.741059 2.606009 0
M  V30 59 H -3.055079 -1.528944 -5.283854 0
M  V30 60 H -1.446511 0.155931 -4.305303 0
M  V30 61 H -3.139031 0.415140 -3.727510 0
M  V30 END ATOM
M  V30 BEGIN BOND
M  V30 1 1 1 2
M  V30 2 1 2 3
M  V30 3 1 3 4
M  V30 4 1 4 5
M  V30 5 1 5 6
M  V30 6 1 6 7
M  V30 7 1 7 8 CFG=1
M  V30 8 1 7 9
M  V30 9 1 9 10
M  V30 10 1 10 11
M  V30 11 1 7 12
M  V30 12 1 12 13
M  V30 13 2 13 14
M  V30 14 1 14 15
M  V30 15 2 15 16
M  V30 16 1 16 17
M  V30 17 2 17 18
M  V30 18 1 18 19
M  V30 19 2 19 20
M  V30 20 1 20 21
M  V30 21 2 21 22
M  V30 22 1 22 23
M  V30 23 2 23 24
M  V30 24 1 24 25
M  V30 25 2 25 26
M  V30 26 1 26 27
M  V30 27 2 27 28
M  V30 28 1 28 29
M  V30 29 1 29 30
M  V30 30 2 30 31
M  V30 31 1 21 32
M  V30 32 2 32 33
M  V30 33 1 32 34
M  V30 34 1 34 35
M  V30 35 1 9 3
M  V30 36 1 31 12
M  V30 37 1 29 5
M  V30 38 1 18 13
M  V30 39 1 31 19
M  V30 40 1 35 20
M  V30 41 1 30 22
M  V30 42 1 28 23
M  V30 43 1 1 36
M  V30 44 1 1 37
M  V30 45 1 1 38
M  V30 46 1 2 39
M  V30 47 1 3 40 CFG=1
M  V30 48 1 4 41
M  V30 49 1 4 42
M  V30 50 1 5 43 CFG=1
M  V30 51 1 8 44
M  V30 52 1 8 45
M  V30 53 1 8 46
M  V30 54 1 9 47 CFG=1
M  V30 55 1 11 48
M  V30 56 1 11 49
M  V30 57 1 11 50
M  V30 58 1 14 51
M  V30 59 1 15 52
M  V30 60 1 16 53
M  V30 61 1 17 54
M  V30 62 1 24 55
M  V30 63 1 25 56
M  V30 64 1 26 57
M  V30 65 1 27 58
M  V30 66 1 34 59
M  V30 67 1 35 60
M  V30 68 1 35 61
M  V30 END BOND
M  V30 END CTAB
M  END
>  <Dataset>  (1) 
ChEMBL_Kinases

>  <Ligand_Instance>  (1) 
nan

>  <PDB_ID>  (1) 
nan

>  <Standardized_SMILES>  (1) 
CN[C@@H]1C[C@H]2O[C@@](C)([C@@H]1OC)n1c3ccccc3c3c4c(c5c6ccccc6n2c5c31)C(=O)NC4

>  <Name>  (1) 
STAUROSPORINE

>  <Pocket>  (1) 
nan

>  <ATP_Site>  (1) 
nan

>  <Peripheral>  (1) 
nan

>  <Num_H_Atoms_ProtBoundConf>  (1) 
nan

>  <Num_Resolved_Atoms>  (1) 
nan

>  <Num_Not_Resolved_Atoms>  (1) 
nan

$$$$
CHEMBL535
     RDKit          3D

  0  0  0  0  0  0  0  0  0  0999 V3000
M  V30 BEGIN CTAB
M  V30 COUNTS 56 58 0 0 0
M  V30 BEGIN ATOM
M  V30 1 C 2.819446 0.374778 4.971716 0
M  V30 2 C 2.640093 0.780034 3.513621 0
M  V30 3 N 3.865800 1.015794 2.867150 0
M  V30 4 C 4.629628 2.151777 3.230041 0
M  V30 5 C 5.217769 2.108063 4.585875 0
M  V30 6 C 4.341044 0.196699 1.868749 0
M  V30 7 C 3.871733 0.101867 0.490654 0
M  V30 8 N 2.508362 -0.181275 0.231215 0
M  V30 9 C 1.232254 0.418191 0.364595 0
M  V30 10 O 1.351042 1.598815 0.855397 0
M  V30 11 C -0.100485 -0.059619 0.053664 0
M  V30 12 C -1.184482 0.782801 0.276167 0
M  V30 13 C -1.266369 2.181092 0.802089 0
M  V30 14 N -2.266615 0.067847 -0.097260 0
M  V30 15 C -1.992582 -1.164012 -0.544531 0
M  V30 16 C -2.816105 -2.246328 -1.055383 0
M  V30 17 C -3.753825 -2.248938 -1.972174 0
M  V30 18 C -4.184327 -1.102674 -2.715419 0
M  V30 19 O -3.701700 0.047336 -2.597691 0
M  V30 20 N -5.213084 -1.525838 -3.564531 0
M  V30 21 C -5.417314 -2.923240 -3.349811 0
M  V30 22 C -6.316626 -3.779416 -3.949030 0
M  V30 23 C -6.325220 -5.124394 -3.562374 0
M  V30 24 C -5.460529 -5.591454 -2.608293 0
M  V30 25 F -5.468386 -6.896348 -2.233550 0
M  V30 26 C -4.545040 -4.725671 -1.996635 0
M  V30 27 C -4.552680 -3.406972 -2.390560 0
M  V30 28 C -0.598319 -1.245267 -0.446888 0
M  V30 29 C 0.238850 -2.385109 -0.812103 0
M  V30 30 H 3.854100 0.035937 5.146879 0
M  V30 31 H 2.187300 -0.522715 5.210564 0
M  V30 32 H 2.466620 1.147829 5.682311 0
M  V30 33 H 2.145281 -0.084796 3.026704 0
M  V30 34 H 1.898787 1.613296 3.510960 0
M  V30 35 H 4.057458 3.100144 3.142887 0
M  V30 36 H 5.478081 2.232857 2.499283 0
M  V30 37 H 5.879946 1.237048 4.803569 0
M  V30 38 H 4.540649 2.288696 5.431610 0
M  V30 39 H 5.942874 2.985358 4.640249 0
M  V30 40 H 4.291612 -0.882291 2.285549 0
M  V30 41 H 5.490568 0.323199 1.864737 0
M  V30 42 H 4.182629 1.007661 -0.135115 0
M  V30 43 H 4.476420 -0.711920 -0.022807 0
M  V30 44 H 2.292727 -1.118909 -0.191624 0
M  V30 45 H -2.269139 2.596889 0.618125 0
M  V30 46 H -1.010815 2.111029 1.876367 0
M  V30 47 H -0.545689 2.830689 0.275035 0
M  V30 48 H -3.255155 0.449475 -0.025132 0
M  V30 49 H -2.597971 -3.215205 -0.575604 0
M  V30 50 H -5.695464 -0.858254 -4.216467 0
M  V30 51 H -7.009134 -3.435056 -4.703989 0
M  V30 52 H -7.042377 -5.756228 -4.055492 0
M  V30 53 H -3.870966 -5.106365 -1.247282 0
M  V30 54 H 0.751947 -2.898701 0.007096 0
M  V30 55 H 0.887899 -2.203882 -1.723877 0
M  V30 56 H -0.457014 -3.190187 -1.216389 0
M  V30 END ATOM
M  V30 BEGIN BOND
M  V30 1 1 1 2
M  V30 2 1 2 3
M  V30 3 1 3 4
M  V30 4 1 4 5
M  V30 5 1 3 6
M  V30 6 1 6 7
M  V30 7 1 7 8
M  V30 8 1 8 9
M  V30 9 2 9 10
M  V30 10 1 9 11
M  V30 11 2 11 12
M  V30 12 1 12 13
M  V30 13 1 12 14
M  V30 14 1 14 15
M  V30 15 1 15 16
M  V30 16 2 16 17
M  V30 17 1 17 18
M  V30 18 2 18 19
M  V30 19 1 18 20
M  V30 20 1 20 21
M  V30 21 2 21 22
M  V30 22 1 22 23
M  V30 23 2 23 24
M  V30 24 1 24 25
M  V30 25 1 24 26
M  V30 26 2 26 27
M  V30 27 2 15 28
M  V30 28 1 28 29
M  V30 29 1 28 11
M  V30 30 1 27 17
M  V30 31 1 27 21
M  V30 32 1 1 30
M  V30 33 1 1 31
M  V30 34 1 1 32
M  V30 35 1 2 33
M  V30 36 1 2 34
M  V30 37 1 4 35
M  V30 38 1 4 36
M  V30 39 1 5 37
M  V30 40 1 5 38
M  V30 41 1 5 39
M  V30 42 1 6 40
M  V30 43 1 6 41
M  V30 44 1 7 42
M  V30 45 1 7 43
M  V30 46 1 8 44
M  V30 47 1 13 45
M  V30 48 1 13 46
M  V30 49 1 13 47
M  V30 50 1 14 48
M  V30 51 1 16 49
M  V30 52 1 20 50
M  V30 53 1 22 51
M  V30 54 1 23 52
M  V30 55 1 26 53
M  V30 56 1 29 54
M  V30 57 1 29 55
M  V30 58 1 29 56
M  V30 END BOND
M  V30 END CTAB
M  END
>  <Dataset>  (2) 
ChEMBL_Kinases

>  <Ligand_Instance>  (2) 
nan

>  <PDB_ID>  (2) 
nan

>  <Standardized_SMILES>  (2) 
CCN(CC)CCNC(=O)c1c(C)[nH]c(/C=C2\C(=O)Nc3ccc(F)cc32)c1C

>  <Name>  (2) 
SUNITINIB

>  <Pocket>  (2) 
nan

>  <ATP_Site>  (2) 
nan

>  <Peripheral>  (2) 
nan

>  <Num_H_Atoms_ProtBoundConf>  (2) 
nan

>  <Num_Resolved_Atoms>  (2) 
nan

>  <Num_Not_Resolved_Atoms>  (2) 
nan

$$$$
CHEMBL4465866
     RDKit          3D

  0  0  0  0  0  0  0  0  0  0999 V3000
M  V30 BEGIN CTAB
M  V30 COUNTS 120 130 0 0 0
M  V30 BEGIN ATOM
M  V30 1 C 0.617375 -3.766722 -7.061061 0
M  V30 2 O 0.654148 -3.359794 -5.731980 0
M  V30 3 C 1.896137 -3.649846 -5.147244 0 CFG=2
M  V30 4 C 1.710001 -4.700970 -4.141190 0 CFG=2
M  V30 5 N 0.426732 -4.565437 -3.402360 0
M  V30 6 C 0.012492 -5.842009 -2.921536 0
M  V30 7 C -1.239701 -5.928693 -2.177240 0
M  V30 8 O -1.326517 -5.213966 -0.964306 0
M  V30 9 C -2.586698 -5.523518 -0.456024 0
M  V30 10 C -3.008464 -5.105566 0.863674 0
M  V30 11 O -3.073449 -3.784834 1.228109 0
M  V30 12 C -3.660806 -3.783018 2.516304 0
M  V30 13 C -3.844914 -2.452058 3.129032 0
M  V30 14 O -2.733612 -1.693537 3.372169 0
M  V30 15 C -1.910732 -2.241265 4.315938 0
M  V30 16 C -0.634019 -1.530270 4.606706 0
M  V30 17 N -0.719496 -0.181101 5.087095 0
M  V30 18 C -1.272183 1.005526 4.475516 0
M  V30 19 O -1.700822 0.590534 3.374843 0
M  V30 20 C -1.121998 2.185873 5.336637 0
M  V30 21 C -1.557011 3.498409 4.771485 0
M  V30 22 C -0.808026 3.847807 3.548222 0
M  V30 23 N 0.165264 4.736282 3.494321 0 CHG=1 VAL=4
M  V30 24 C 0.682142 4.832925 2.167883 0
M  V30 25 C 1.670855 5.628502 1.805086 0
M  V30 26 C 2.295872 6.476668 2.800653 0
M  V30 27 C 3.340121 7.381426 2.661617 0
M  V30 28 C 4.060569 7.675011 1.381643 0
M  V30 29 C 3.504596 7.889000 3.932800 0
M  V30 30 C 2.589088 7.308635 4.806370 0
M  V30 31 C 2.494924 7.634801 6.266836 0
M  V30 32 N 1.862122 6.444629 4.072156 0
M  V30 33 B 0.739313 5.583950 4.615617 0 CHG=-1 VAL=4
M  V30 34 F 1.165541 4.776885 5.746732 0
M  V30 35 F -0.319208 6.486010 5.074099 0
M  V30 36 C -0.075671 3.888636 1.337373 0
M  V30 37 C -0.928007 3.343560 2.189459 0
M  V30 38 C 2.836554 -4.753671 -3.124305 0
M  V30 39 C 2.960554 -3.373347 -2.609671 0 CFG=1
M  V30 40 O 3.314398 -2.497214 -3.557370 0
M  V30 41 C 2.634886 -2.387541 -4.727710 0 CFG=1
M  V30 42 C 3.631798 -2.077601 -5.784423 0
M  V30 43 N 1.561202 -1.432149 -4.537948 0
M  V30 44 C 1.023296 -0.574909 -5.385889 0
M  V30 45 C 1.313286 -0.232757 -6.682700 0
M  V30 46 C 0.632161 0.698409 -7.428449 0
M  V30 47 C -0.425407 1.340968 -6.833020 0
M  V30 48 C -0.781532 1.049886 -5.526468 0
M  V30 49 C -0.049085 0.103403 -4.843286 0
M  V30 50 C -0.153800 -0.396760 -3.565385 0
M  V30 51 C -1.049453 -0.148423 -2.522081 0
M  V30 52 C -0.886983 -0.860627 -1.361772 0
M  V30 53 C 0.098494 -1.780645 -1.195234 0
M  V30 54 C 0.430501 -2.555838 -0.156161 0
M  V30 55 C 0.021576 -2.828533 1.110883 0
M  V30 56 C 0.631306 -3.738199 1.944492 0
M  V30 57 C 1.731743 -4.450512 1.527255 0
M  V30 58 C 2.194107 -4.217936 0.252347 0
M  V30 59 C 1.532300 -3.293720 -0.522021 0
M  V30 60 N 1.853679 -2.955658 -1.777442 0
M  V30 61 C 0.963600 -2.020208 -2.201874 0
M  V30 62 C 0.838520 -1.330102 -3.395287 0
M  V30 63 C -1.951586 -0.379822 -0.529387 0
M  V30 64 O -2.335184 -0.627262 0.615677 0
M  V30 65 N -2.731758 0.601907 -1.185729 0
M  V30 66 C -2.182255 0.812937 -2.526115 0
M  V30 67 H 0.784099 -4.858955 -7.190795 0
M  V30 68 H -0.355194 -3.443997 -7.453920 0
M  V30 69 H 1.393035 -3.279859 -7.688732 0
M  V30 70 H 2.450271 -4.142769 -6.008599 0
M  V30 71 H 1.654908 -5.717314 -4.583549 0
M  V30 72 H -0.257414 -4.080972 -3.990867 0
M  V30 73 H 0.823134 -6.293760 -2.275968 0
M  V30 74 H 0.023541 -6.531617 -3.826963 0
M  V30 75 H -1.395656 -7.013767 -1.869161 0
M  V30 76 H -2.152199 -5.714613 -2.798582 0
M  V30 77 H -2.619118 -6.663001 -0.485768 0
M  V30 78 H -3.380161 -5.243241 -1.211557 0
M  V30 79 H -4.084004 -5.485300 1.006008 0
M  V30 80 H -2.481023 -5.674156 1.695725 0
M  V30 81 H -4.685103 -4.253801 2.443904 0
M  V30 82 H -3.085492 -4.433722 3.207136 0
M  V30 83 H -4.316187 -2.632894 4.147073 0
M  V30 84 H -4.654980 -1.856637 2.606381 0
M  V30 85 H -1.634353 -3.305210 4.088931 0
M  V30 86 H -2.454629 -2.350579 5.315213 0
M  V30 87 H 0.007457 -2.118432 5.324741 0
M  V30 88 H 0.015497 -1.555478 3.666490 0
M  V30 89 H -0.291900 -0.083600 6.071922 0
M  V30 90 H -1.656119 1.943739 6.291870 0
M  V30 91 H -0.030892 2.220935 5.646782 0
M  V30 92 H -1.381799 4.284024 5.541324 0
M  V30 93 H -2.637693 3.471552 4.481951 0
M  V30 94 H 2.009335 5.653883 0.795499 0
M  V30 95 H 4.735697 6.852413 1.074345 0
M  V30 96 H 4.608290 8.615456 1.413508 0
M  V30 97 H 3.253616 7.681359 0.589372 0
M  V30 98 H 4.282343 8.642215 4.114374 0
M  V30 99 H 3.241634 8.393439 6.522931 0
M  V30 100 H 1.466025 8.030197 6.429700 0
M  V30 101 H 2.621605 6.714650 6.889011 0
M  V30 102 H 0.071251 3.721069 0.285645 0
M  V30 103 H -1.611250 2.614693 1.779718 0
M  V30 104 H 3.750825 -5.048961 -3.686994 0
M  V30 105 H 2.629488 -5.519690 -2.386969 0
M  V30 106 H 3.839132 -3.402134 -1.878000 0
M  V30 107 H 3.475548 -2.561202 -6.766716 0
M  V30 108 H 3.981313 -1.023679 -5.822869 0
M  V30 109 H 4.618717 -2.581563 -5.470042 0
M  V30 110 H 2.130890 -0.727654 -7.171435 0
M  V30 111 H 0.903849 0.931415 -8.447581 0
M  V30 112 H -1.003307 2.086239 -7.366858 0
M  V30 113 H -1.612268 1.550553 -5.049616 0
M  V30 114 H -0.807406 -2.331865 1.534947 0
M  V30 115 H 0.334556 -3.982231 2.959908 0
M  V30 116 H 2.245790 -5.173865 2.140845 0
M  V30 117 H 3.055538 -4.761625 -0.100067 0
M  V30 118 H -3.565833 1.181078 -0.949037 0
M  V30 119 H -1.782740 1.840073 -2.575873 0
M  V30 120 H -2.931199 0.572652 -3.304341 0
M  V30 END ATOM
M  V30 BEGIN BOND
M  V30 1 1 1 2
M  V30 2 1 2 3
M  V30 3 1 3 4
M  V30 4 1 4 5
M  V30 5 1 5 6
M  V30 6 1 6 7
M  V30 7 1 7 8
M  V30 8 1 8 9
M  V30 9 1 9 10
M  V30 10 1 10 11
M  V30 11 1 11 12
M  V30 12 1 12 13
M  V30 13 1 13 14
M  V30 14 1 14 15
M  V30 15 1 15 16
M  V30 16 1 16 17
M  V30 17 1 17 18
M  V30 18 2 18 19
M  V30 19 1 18 20
M  V30 20 1 20 21
M  V30 21 1 21 22
M  V30 22 2 22 23
M  V30 23 1 23 24
M  V30 24 2 24 25
M  V30 25 1 25 26
M  V30 26 2 26 27
M  V30 27 1 27 28
M  V30 28 1 27 29
M  V30 29 2 29 30
M  V30 30 1 30 31
M  V30 31 1 30 32
M  V30 32 1 32 33
M  V30 33 1 33 34
M  V30 34 1 33 35
M  V30 35 1 24 36
M  V30 36 2 36 37
M  V30 37 1 4 38
M  V30 38 1 38 39
M  V30 39 1 39 40
M  V30 40 1 40 41
M  V30 41 1 41 42 CFG=3
M  V30 42 1 41 43
M  V30 43 1 43 44
M  V30 44 2 44 45
M  V30 45 1 45 46
M  V30 46 2 46 47
M  V30 47 1 47 48
M  V30 48 2 48 49
M  V30 49 1 49 50
M  V30 50 2 50 51
M  V30 51 1 51 52
M  V30 52 2 52 53
M  V30 53 1 53 54
M  V30 54 2 54 55
M  V30 55 1 55 56
M  V30 56 2 56 57
M  V30 57 1 57 58
M  V30 58 2 58 59
M  V30 59 1 59 60
M  V30 60 1 60 61
M  V30 61 2 61 62
M  V30 62 1 52 63
M  V30 63 2 63 64
M  V30 64 1 63 65
M  V30 65 1 65 66
M  V30 66 1 41 3
M  V30 67 1 62 43
M  V30 68 1 37 22
M  V30 69 1 60 39
M  V30 70 1 33 23
M  V30 71 1 49 44
M  V30 72 1 62 50
M  V30 73 1 32 26
M  V30 74 1 66 51
M  V30 75 1 61 53
M  V30 76 1 59 54
M  V30 77 1 1 67
M  V30 78 1 1 68
M  V30 79 1 1 69
M  V30 80 1 3 70 CFG=3
M  V30 81 1 4 71 CFG=3
M  V30 82 1 5 72
M  V30 83 1 6 73
M  V30 84 1 6 74
M  V30 85 1 7 75
M  V30 86 1 7 76
M  V30 87 1 9 77
M  V30 88 1 9 78
M  V30 89 1 10 79
M  V30 90 1 10 80
M  V30 91 1 12 81
M  V30 92 1 12 82
M  V30 93 1 13 83
M  V30 94 1 13 84
M  V30 95 1 15 85
M  V30 96 1 15 86
M  V30 97 1 16 87
M  V30 98 1 16 88
M  V30 99 1 17 89
M  V30 100 1 20 90
M  V30 101 1 20 91
M  V30 102 1 21 92
M  V30 103 1 21 93
M  V30 104 1 25 94
M  V30 105 1 28 95
M  V30 106 1 28 96
M  V30 107 1 28 97
M  V30 108 1 29 98
M  V30 109 1 31 99
M  V30 110 1 31 100
M  V30 111 1 31 101
M  V30 112 1 36 102
M  V30 113 1 37 103
M  V30 114 1 38 104
M  V30 115 1 38 105
M  V30 116 1 39 106 CFG=1
M  V30 117 1 42 107
M  V30 118 1 42 108
M  V30 119 1 42 109
M  V30 120 1 45 110
M  V30 121 1 46 111
M  V30 122 1 47 112
M  V30 123 1 48 113
M  V30 124 1 55 114
M  V30 125 1 56 115
M  V30 126 1 57 116
M  V30 127 1 58 117
M  V30 128 1 65 118
M  V30 129 1 66 119
M  V30 130 1 66 120
M  V30 END BOND
M  V30 END CTAB
M  END
>  <Dataset>  (3) 
ChEMBL_Kinases

>  <Ligand_Instance>  (3) 
nan

>  <PDB_ID>  (3) 
nan

>  <Standardized_SMILES>  (3) 
CO[C@@H]1[C@H](NCCOCCOCCOCCNC(=O)CCC2=[N+]3C(=Cc4c(C)cc(C)n4[B-]3(F)F)C=C2)C[C@H]2O[C@]1(C)n1c3ccccc3c3c4c(c5c6ccccc6n2c5c31)C(=O)NC4

>  <Name>  (3) 
nan

>  <Pocket>  (3) 
nan

>  <ATP_Site>  (3) 
nan

>  <Peripheral>  (3) 
nan

>  <Num_H_Atoms_ProtBoundConf>  (3) 
nan

>  <Num_Resolved_Atoms>  (3) 
nan

>  <Num_Not_Resolved_Atoms>  (3) 
nan

$$$$
CHEMBL4576489
     RDKit          3D

  0  0  0  0  0  0  0  0  0  0999 V3000
M  V30 BEGIN CTAB
M  V30 COUNTS 123 133 0 0 0
M  V30 BEGIN ATOM
M  V30 1 C -1.196597 0.729502 -1.434546 0
M  V30 2 O 0.055446 0.747441 -2.026865 0
M  V30 3 C 1.085309 1.052274 -1.131729 0 CFG=2
M  V30 4 C 1.908897 2.232995 -1.639037 0 CFG=2
M  V30 5 N 1.542363 3.505217 -1.257625 0
M  V30 6 C 1.651563 3.633170 0.189623 0
M  V30 7 C 0.435409 4.221029 -1.783251 0
M  V30 8 C 0.502934 4.656609 -3.208424 0
M  V30 9 O -0.556222 5.346145 -3.678580 0
M  V30 10 C -1.788213 4.891530 -3.860639 0
M  V30 11 C -2.608390 4.369953 -2.739214 0
M  V30 12 O -2.856811 5.256852 -1.714256 0
M  V30 13 C -3.503069 4.494497 -0.701636 0
M  V30 14 C -3.905473 5.350660 0.440530 0
M  V30 15 O -4.522842 4.686035 1.494050 0
M  V30 16 C -3.600396 3.845512 2.083237 0
M  V30 17 C -4.152074 3.048813 3.262216 0
M  V30 18 N -3.049378 2.227306 3.788771 0
M  V30 19 C -3.229768 1.305503 4.896901 0
M  V30 20 O -4.472906 1.529417 5.071213 0
M  V30 21 C -1.939869 0.664102 5.179072 0
M  V30 22 C -2.014884 -0.463101 6.142153 0
M  V30 23 C -2.807792 -1.614310 5.664419 0
M  V30 24 N -2.276892 -2.775876 5.415379 0 CHG=1 VAL=4
M  V30 25 C -3.207285 -3.731511 4.966447 0
M  V30 26 C -2.999405 -4.985161 4.633814 0
M  V30 27 C -1.639783 -5.490710 4.729016 0
M  V30 28 C -1.040702 -6.716502 4.481013 0
M  V30 29 C -1.764804 -7.926019 3.995786 0
M  V30 30 C 0.306997 -6.619729 4.755688 0
M  V30 31 C 0.547292 -5.328497 5.176386 0
M  V30 32 C 1.907711 -4.838650 5.571978 0
M  V30 33 N -0.653911 -4.693811 5.142203 0
M  V30 34 B -0.822020 -3.235715 5.532072 0 CHG=-1 VAL=4
M  V30 35 F 0.015897 -2.418539 4.633200 0
M  V30 36 F -0.292670 -2.957536 6.878635 0
M  V30 37 C -4.494320 -3.023554 4.945592 0
M  V30 38 C -4.205281 -1.802952 5.358147 0
M  V30 39 C 2.188024 1.933797 -3.073230 0
M  V30 40 C 3.117008 0.711593 -3.054682 0 CFG=1
M  V30 41 O 3.190765 0.072629 -1.868753 0
M  V30 42 C 2.015377 -0.150510 -1.160666 0 CFG=1
M  V30 43 C 2.495978 -0.397070 0.276971 0
M  V30 44 N 1.392756 -1.356793 -1.642833 0
M  V30 45 C 0.630421 -2.298814 -1.076549 0
M  V30 46 C 0.186425 -2.362138 0.219725 0
M  V30 47 C -0.601970 -3.415750 0.640377 0
M  V30 48 C -0.990533 -4.450958 -0.186707 0
M  V30 49 C -0.528005 -4.360533 -1.498385 0
M  V30 50 C 0.260212 -3.300944 -1.904875 0
M  V30 51 C 0.812517 -3.020810 -3.139564 0
M  V30 52 C 0.793695 -3.626436 -4.360482 0
M  V30 53 C 1.449628 -3.076169 -5.433148 0
M  V30 54 C 2.119429 -1.914174 -5.254545 0
M  V30 55 C 2.829536 -1.180220 -6.146813 0
M  V30 56 C 3.212331 -1.166313 -7.450711 0
M  V30 57 C 3.979425 -0.208974 -8.076191 0
M  V30 58 C 4.423603 0.865042 -7.326759 0
M  V30 59 C 4.076458 0.935661 -5.970136 0
M  V30 60 C 3.305289 -0.086424 -5.467805 0
M  V30 61 N 2.883017 -0.169709 -4.187222 0
M  V30 62 C 2.140827 -1.306701 -4.040028 0
M  V30 63 C 1.478783 -1.847783 -2.926538 0
M  V30 64 C 1.226176 -3.951687 -6.541976 0
M  V30 65 O 1.561972 -3.969680 -7.733418 0
M  V30 66 N 0.425161 -5.053695 -6.152896 0
M  V30 67 C 0.111215 -4.899220 -4.725666 0
M  V30 68 H -1.928403 0.488854 -2.245388 0
M  V30 69 H -1.318369 -0.099749 -0.709168 0
M  V30 70 H -1.495961 1.705686 -1.018402 0
M  V30 71 H 0.702126 1.240768 -0.108298 0
M  V30 72 H 2.931506 2.063676 -1.127045 0
M  V30 73 H 2.393409 2.914401 0.534821 0
M  V30 74 H 0.694342 3.576197 0.704544 0
M  V30 75 H 2.080585 4.644359 0.387247 0
M  V30 76 H 0.458956 5.212781 -1.193783 0
M  V30 77 H -0.533118 3.821809 -1.540438 0
M  V30 78 H 1.415166 5.308038 -3.381558 0
M  V30 79 H 0.590732 3.756154 -3.902274 0
M  V30 80 H -1.799878 4.051776 -4.646514 0
M  V30 81 H -2.380896 5.696415 -4.393570 0
M  V30 82 H -2.430132 3.358468 -2.432023 0
M  V30 83 H -3.673499 4.261321 -3.231116 0
M  V30 84 H -4.450805 4.055540 -1.130002 0
M  V30 85 H -2.850352 3.641394 -0.460629 0
M  V30 86 H -4.518506 6.222862 0.101793 0
M  V30 87 H -2.966860 5.810080 0.873542 0
M  V30 88 H -2.664763 4.376045 2.389894 0
M  V30 89 H -3.261685 3.110997 1.314164 0
M  V30 90 H -4.415917 3.762010 4.048326 0
M  V30 91 H -4.992128 2.415879 2.967687 0
M  V30 92 H -2.117462 2.369886 3.285448 0
M  V30 93 H -1.208283 1.428752 5.557818 0
M  V30 94 H -1.527156 0.286135 4.212043 0
M  V30 95 H -0.995996 -0.780570 6.412666 0
M  V30 96 H -2.464083 -0.082606 7.115846 0
M  V30 97 H -3.784719 -5.646045 4.297524 0
M  V30 98 H -2.200513 -8.494135 4.856793 0
M  V30 99 H -1.033266 -8.610183 3.479085 0
M  V30 100 H -2.576592 -7.636897 3.306593 0
M  V30 101 H 1.017258 -7.445962 4.646898 0
M  V30 102 H 2.465756 -5.642433 6.076705 0
M  V30 103 H 2.469550 -4.419291 4.723296 0
M  V30 104 H 1.755989 -4.044270 6.362884 0
M  V30 105 H -5.463540 -3.414343 4.654419 0
M  V30 106 H -4.974439 -1.060667 5.446590 0
M  V30 107 H 2.675259 2.758541 -3.628395 0
M  V30 108 H 1.262058 1.540634 -3.539283 0
M  V30 109 H 4.152626 1.127288 -3.252529 0
M  V30 110 H 3.532778 0.077168 0.405591 0
M  V30 111 H 2.690382 -1.454735 0.490368 0
M  V30 112 H 1.898128 0.153745 1.024383 0
M  V30 113 H 0.428527 -1.590470 0.923671 0
M  V30 114 H -0.971275 -3.489862 1.673632 0
M  V30 115 H -1.604041 -5.285523 0.113628 0
M  V30 116 H -0.787266 -5.120952 -2.200770 0
M  V30 117 H 2.913616 -1.957003 -8.092562 0
M  V30 118 H 4.256577 -0.249528 -9.121183 0
M  V30 119 H 5.028502 1.679416 -7.700808 0
M  V30 120 H 4.417288 1.767666 -5.391212 0
M  V30 121 H 0.034062 -5.897165 -6.623605 0
M  V30 122 H -0.990118 -4.858541 -4.594301 0
M  V30 123 H 0.507179 -5.751080 -4.144052 0
M  V30 END ATOM
M  V30 BEGIN BOND
M  V30 1 1 1 2
M  V30 2 1 2 3
M  V30 3 1 3 4
M  V30 4 1 4 5
M  V30 5 1 5 6
M  V30 6 1 5 7
M  V30 7 1 7 8
M  V30 8 1 8 9
M  V30 9 1 9 10
M  V30 10 1 10 11
M  V30 11 1 11 12
M  V30 12 1 12 13
M  V30 13 1 13 14
M  V30 14 1 14 15
M  V30 15 1 15 16
M  V30 16 1 16 17
M  V30 17 1 17 18
M  V30 18 1 18 19
M  V30 19 2 19 20
M  V30 20 1 19 21
M  V30 21 1 21 22
M  V30 22 1 22 23
M  V30 23 2 23 24
M  V30 24 1 24 25
M  V30 25 2 25 26
M  V30 26 1 26 27
M  V30 27 2 27 28
M  V30 28 1 28 29
M  V30 29 1 28 30
M  V30 30 2 30 31
M  V30 31 1 31 32
M  V30 32 1 31 33
M  V30 33 1 33 34
M  V30 34 1 34 35
M  V30 35 1 34 36
M  V30 36 1 25 37
M  V30 37 2 37 38
M  V30 38 1 4 39
M  V30 39 1 39 40
M  V30 40 1 40 41
M  V30 41 1 41 42
M  V30 42 1 42 43 CFG=1
M  V30 43 1 42 44
M  V30 44 1 44 45
M  V30 45 2 45 46
M  V30 46 1 46 47
M  V30 47 2 47 48
M  V30 48 1 48 49
M  V30 49 2 49 50
M  V30 50 1 50 51
M  V30 51 2 51 52
M  V30 52 1 52 53
M  V30 53 2 53 54
M  V30 54 1 54 55
M  V30 55 2 55 56
M  V30 56 1 56 57
M  V30 57 2 57 58
M  V30 58 1 58 59
M  V30 59 2 59 60
M  V30 60 1 60 61
M  V30 61 1 61 62
M  V30 62 2 62 63
M  V30 63 1 53 64
M  V30 64 2 64 65
M  V30 65 1 64 66
M  V30 66 1 66 67
M  V30 67 1 42 3
M  V30 68 1 63 44
M  V30 69 1 38 23
M  V30 70 1 61 40
M  V30 71 1 34 24
M  V30 72 1 50 45
M  V30 73 1 63 51
M  V30 74 1 33 27
M  V30 75 1 67 52
M  V30 76 1 62 54
M  V30 77 1 60 55
M  V30 78 1 1 68
M  V30 79 1 1 69
M  V30 80 1 1 70
M  V30 81 1 3 71 CFG=1
M  V30 82 1 4 72 CFG=1
M  V30 83 1 6 73
M  V30 84 1 6 74
M  V30 85 1 6 75
M  V30 86 1 7 76
M  V30 87 1 7 77
M  V30 88 1 8 78
M  V30 89 1 8 79
M  V30 90 1 10 80
M  V30 91 1 10 81
M  V30 92 1 11 82
M  V30 93 1 11 83
M  V30 94 1 13 84
M  V30 95 1 13 85
M  V30 96 1 14 86
M  V30 97 1 14 87
M  V30 98 1 16 88
M  V30 99 1 16 89
M  V30 100 1 17 90
M  V30 101 1 17 91
M  V30 102 1 18 92
M  V30 103 1 21 93
M  V30 104 1 21 94
M  V30 105 1 22 95
M  V30 106 1 22 96
M  V30 107 1 26 97
M  V30 108 1 29 98
M  V30 109 1 29 99
M  V30 110 1 29 100
M  V30 111 1 30 101
M  V30 112 1 32 102
M  V30 113 1 32 103
M  V30 114 1 32 104
M  V30 115 1 37 105
M  V30 116 1 38 106
M  V30 117 1 39 107
M  V30 118 1 39 108
M  V30 119 1 40 109 CFG=3
M  V30 120 1 43 110
M  V30 121 1 43 111
M  V30 122 1 43 112
M  V30 123 1 46 113
M  V30 124 1 47 114
M  V30 125 1 48 115
M  V30 126 1 49 116
M  V30 127 1 56 117
M  V30 128 1 57 118
M  V30 129 1 58 119
M  V30 130 1 59 120
M  V30 131 1 66 121
M  V30 132 1 67 122
M  V30 133 1 67 123
M  V30 END BOND
M  V30 END CTAB
M  END
>  <Dataset>  (4) 
ChEMBL_Kinases

>  <Ligand_Instance>  (4) 
nan

>  <PDB_ID>  (4) 
nan

>  <Standardized_SMILES>  (4) 
CO[C@@H]1[C@H](N(C)CCOCCOCCOCCNC(=O)CCC2=[N+]3C(=Cc4c(C)cc(C)n4[B-]3(F)F)C=C2)C[C@H]2O[C@]1(C)n1c3ccccc3c3c4c(c5c6ccccc6n2c5c31)C(=O)NC4

>  <Name>  (4) 
nan

>  <Pocket>  (4) 
nan

>  <ATP_Site>  (4) 
nan

>  <Peripheral>  (4) 
nan

>  <Num_H_Atoms_ProtBoundConf>  (4) 
nan

>  <Num_Resolved_Atoms>  (4) 
nan

>  <Num_Not_Resolved_Atoms>  (4) 
nan

$$$$
CHEMBL1721885
     RDKit          3D

  0  0  0  0  0  0  0  0  0  0999 V3000
M  V30 BEGIN CTAB
M  V30 COUNTS 59 62 0 0 0
M  V30 BEGIN ATOM
M  V30 1 C -2.759069 0.359162 3.968620 0
M  V30 2 C -1.522926 0.392310 3.124300 0
M  V30 3 N -0.541061 1.311475 3.208954 0
M  V30 4 C 0.463333 1.115703 2.337089 0
M  V30 5 C 1.590158 2.023841 2.246708 0
M  V30 6 C 2.881361 1.831107 2.377870 0
M  V30 7 C 3.471647 0.552963 2.672118 0
M  V30 8 O 2.862282 -0.514483 2.866738 0
M  V30 9 N 4.865570 0.770210 2.695101 0
M  V30 10 C 5.126382 2.141538 2.424593 0
M  V30 11 C 6.339797 2.795317 2.349247 0
M  V30 12 C 6.369600 4.158771 2.069005 0
M  V30 13 C 5.168458 4.811039 1.874974 0
M  V30 14 F 5.231975 6.139268 1.603398 0
M  V30 15 C 3.930538 4.187989 1.942709 0
M  V30 16 C 3.927164 2.835350 2.222067 0
M  V30 17 C 0.059910 -0.026442 1.654523 0
M  V30 18 C 0.832525 -0.628925 0.538132 0
M  V30 19 C -1.146587 -0.488255 2.115154 0
M  V30 20 C -1.968255 -1.603804 1.745097 0
M  V30 21 O -3.092511 -1.772665 2.322982 0
M  V30 22 N -1.785638 -2.637753 0.804794 0
M  V30 23 C -2.911045 -3.524034 0.809872 0
M  V30 24 C -2.774773 -4.628542 -0.195278 0 CFG=2
M  V30 25 O -1.613697 -5.361450 -0.066932 0
M  V30 26 C -3.183217 -4.290937 -1.589141 0
M  V30 27 N -2.363037 -3.536360 -2.402065 0
M  V30 28 C -2.138984 -2.170435 -2.231484 0
M  V30 29 C -2.287211 -1.405482 -3.576603 0
M  V30 30 O -1.270189 -1.898141 -4.370613 0
M  V30 31 C -1.432797 -3.227381 -4.673679 0
M  V30 32 C -1.688317 -4.126501 -3.501000 0
M  V30 33 H -3.603421 0.742013 3.330046 0
M  V30 34 H -2.967938 -0.658824 4.361393 0
M  V30 35 H -2.639913 1.105908 4.767484 0
M  V30 36 H -0.586901 2.097774 3.905512 0
M  V30 37 H 1.270384 3.056155 2.024901 0
M  V30 38 H 5.535422 -0.018345 2.890170 0
M  V30 39 H 7.267432 2.249505 2.507510 0
M  V30 40 H 7.318059 4.697018 2.004141 0
M  V30 41 H 2.998604 4.712323 1.788516 0
M  V30 42 H 1.727077 0.013290 0.290714 0
M  V30 43 H 0.277937 -0.677927 -0.418376 0
M  V30 44 H 1.214653 -1.646927 0.762384 0
M  V30 45 H -0.889443 -2.594696 0.293767 0
M  V30 46 H -3.001037 -3.923239 1.850926 0
M  V30 47 H -3.856731 -2.934728 0.608220 0
M  V30 48 H -3.576655 -5.417242 0.193257 0
M  V30 49 H -1.721271 -6.314170 -0.329388 0
M  V30 50 H -4.248720 -3.872418 -1.568174 0
M  V30 51 H -3.370149 -5.296702 -2.124369 0
M  V30 52 H -2.810635 -1.652351 -1.539925 0
M  V30 53 H -1.081406 -1.966110 -1.941458 0
M  V30 54 H -2.143201 -0.347051 -3.357296 0
M  V30 55 H -3.287015 -1.562802 -4.014297 0
M  V30 56 H -0.483682 -3.559004 -5.158694 0
M  V30 57 H -2.253380 -3.307377 -5.437494 0
M  V30 58 H -2.352225 -4.954333 -3.882876 0
M  V30 59 H -0.708358 -4.569129 -3.164298 0
M  V30 END ATOM
M  V30 BEGIN BOND
M  V30 1 1 1 2
M  V30 2 1 2 3
M  V30 3 1 3 4
M  V30 4 1 4 5
M  V30 5 2 5 6
M  V30 6 1 6 7
M  V30 7 2 7 8
M  V30 8 1 7 9
M  V30 9 1 9 10
M  V30 10 2 10 11
M  V30 11 1 11 12
M  V30 12 2 12 13
M  V30 13 1 13 14
M  V30 14 1 13 15
M  V30 15 2 15 16
M  V30 16 2 4 17
M  V30 17 1 17 18
M  V30 18 1 17 19
M  V30 19 1 19 20
M  V30 20 2 20 21
M  V30 21 1 20 22
M  V30 22 1 22 23
M  V30 23 1 23 24
M  V30 24 1 24 25
M  V30 25 1 24 26
M  V30 26 1 26 27
M  V30 27 1 27 28
M  V30 28 1 28 29
M  V30 29 1 29 30
M  V30 30 1 30 31
M  V30 31 1 31 32
M  V30 32 2 19 2
M  V30 33 1 32 27
M  V30 34 1 16 6
M  V30 35 1 16 10
M  V30 36 1 1 33
M  V30 37 1 1 34
M  V30 38 1 1 35
M  V30 39 1 3 36
M  V30 40 1 5 37
M  V30 41 1 9 38
M  V30 42 1 11 39
M  V30 43 1 12 40
M  V30 44 1 15 41
M  V30 45 1 18 42
M  V30 46 1 18 43
M  V30 47 1 18 44
M  V30 48 1 22 45
M  V30 49 1 23 46
M  V30 50 1 23 47
M  V30 51 1 24 48 CFG=1
M  V30 52 1 25 49
M  V30 53 1 26 50
M  V30 54 1 26 51
M  V30 55 1 28 52
M  V30 56 1 28 53
M  V30 57 1 29 54
M  V30 58 1 29 55
M  V30 59 1 31 56
M  V30 60 1 31 57
M  V30 61 1 32 58
M  V30 62 1 32 59
M  V30 END BOND
M  V30 END CTAB
M  END
>  <Dataset>  (5) 
ChEMBL_Kinases

>  <Ligand_Instance>  (5) 
nan

>  <PDB_ID>  (5) 
nan

>  <Standardized_SMILES>  (5) 
Cc1[nH]c(/C=C2\C(=O)Nc3ccc(F)cc32)c(C)c1C(=O)NC[C@H](O)CN1CCOCC1

>  <Name>  (5) 
SU-014813

>  <Pocket>  (5) 
nan

>  <ATP_Site>  (5) 
nan

>  <Peripheral>  (5) 
nan

>  <Num_H_Atoms_ProtBoundConf>  (5) 
nan

>  <Num_Resolved_Atoms>  (5) 
nan

>  <Num_Not_Resolved_Atoms>  (5) 
nan

$$$$
CHEMBL608533
     RDKit          3D

  0  0  0  0  0  0  0  0  0  0999 V3000
M  V30 BEGIN CTAB
M  V30 COUNTS 73 81 0 0 0
M  V30 BEGIN ATOM
M  V30 1 C 2.778830 0.726575 2.813078 0
M  V30 2 O 2.026058 0.364794 1.716622 0
M  V30 3 C 0.998187 1.211210 1.395933 0 CFG=2
M  V30 4 C -0.324786 0.579550 1.771156 0 CFG=2
M  V30 5 N -0.268758 -0.817645 1.439798 0
M  V30 6 C -0.238433 -1.878479 0.462894 0
M  V30 7 C -0.231843 -1.282248 2.816834 0
M  V30 8 O -0.236830 -0.892198 4.013667 0
M  V30 9 C -0.160207 -2.711330 3.197495 0
M  V30 10 C 1.146067 -3.163497 2.982857 0
M  V30 11 C 1.499572 -4.485685 3.261843 0
M  V30 12 C 0.536649 -5.338427 3.753218 0
M  V30 13 C -0.737032 -4.894103 3.961280 0
M  V30 14 C -1.117008 -3.595051 3.695612 0
M  V30 15 C -1.498650 1.341544 1.314493 0
M  V30 16 C -1.268924 2.393412 0.263272 0 CFG=1
M  V30 17 O -0.041836 2.701642 -0.070348 0
M  V30 18 C 1.037859 1.822979 0.036171 0 CFG=1
M  V30 19 C 2.162337 2.827554 0.124464 0
M  V30 20 N 1.071846 0.910042 -1.063270 0
M  V30 21 C 2.042190 0.203496 -1.638609 0
M  V30 22 C 3.361766 0.075387 -1.279232 0
M  V30 23 C 4.282523 -0.692437 -1.952974 0
M  V30 24 C 3.879452 -1.404080 -3.085160 0
M  V30 25 C 2.555646 -1.268275 -3.434867 0
M  V30 26 C 1.645610 -0.503169 -2.761985 0
M  V30 27 C 0.306086 -0.215173 -2.897625 0
M  V30 28 C -0.629335 -0.609578 -3.829395 0
M  V30 29 C -1.928976 -0.166345 -3.755947 0
M  V30 30 C -2.274453 0.670027 -2.739175 0
M  V30 31 C -3.467702 1.237739 -2.404537 0
M  V30 32 C -4.755982 1.302329 -2.838070 0
M  V30 33 C -5.793067 2.000390 -2.260623 0
M  V30 34 C -5.485387 2.722000 -1.099755 0
M  V30 35 C -4.177503 2.692674 -0.607406 0
M  V30 36 C -3.209187 1.961415 -1.261021 0
M  V30 37 N -1.922511 1.825720 -0.939088 0
M  V30 38 C -1.309757 1.034636 -1.836303 0
M  V30 39 C 0.004773 0.617215 -1.877497 0
M  V30 40 C -2.656821 -0.726865 -4.841650 0
M  V30 41 O -3.818269 -0.683626 -5.266695 0
M  V30 42 N -1.773026 -1.536760 -5.601086 0
M  V30 43 C -0.459507 -1.508492 -5.004122 0
M  V30 44 H 3.285735 1.693105 2.767436 0
M  V30 45 H 3.575490 -0.032682 2.967784 0
M  V30 46 H 2.171884 0.665957 3.765209 0
M  V30 47 H 1.085643 2.071064 2.137052 0
M  V30 48 H -0.323074 0.595145 2.901841 0
M  V30 49 H 0.681967 -1.883476 -0.171243 0
M  V30 50 H -0.255705 -2.881865 0.930012 0
M  V30 51 H -1.165740 -1.866965 -0.176907 0
M  V30 52 H 1.997054 -2.619352 2.607275 0
M  V30 53 H 2.468563 -4.922011 3.130476 0
M  V30 54 H 0.708452 -6.378056 3.999722 0
M  V30 55 H -1.585107 -5.479711 4.347202 0
M  V30 56 H -2.053966 -3.068842 3.793124 0
M  V30 57 H -2.003131 1.888416 2.169094 0
M  V30 58 H -2.281307 0.598092 1.030574 0
M  V30 59 H -1.835803 3.326503 0.459714 0
M  V30 60 H 2.233663 3.507572 -0.738303 0
M  V30 61 H 1.791985 3.566810 0.918861 0
M  V30 62 H 3.080773 2.517958 0.591577 0
M  V30 63 H 3.707159 0.603057 -0.410521 0
M  V30 64 H 5.326154 -0.795333 -1.671576 0
M  V30 65 H 4.535664 -2.030981 -3.670865 0
M  V30 66 H 2.158449 -1.793995 -4.310026 0
M  V30 67 H -5.022405 0.767244 -3.714646 0
M  V30 68 H -6.792913 1.997355 -2.674062 0
M  V30 69 H -6.256691 3.290930 -0.597090 0
M  V30 70 H -3.936613 3.247467 0.287636 0
M  V30 71 H -1.877368 -2.118523 -6.457086 0
M  V30 72 H -0.093305 -2.510437 -4.723145 0
M  V30 73 H 0.221341 -1.008308 -5.727931 0
M  V30 END ATOM
M  V30 BEGIN BOND
M  V30 1 1 1 2
M  V30 2 1 2 3
M  V30 3 1 3 4
M  V30 4 1 4 5
M  V30 5 1 5 6
M  V30 6 1 5 7
M  V30 7 2 7 8
M  V30 8 1 7 9
M  V30 9 2 9 10
M  V30 10 1 10 11
M  V30 11 2 11 12
M  V30 12 1 12 13
M  V30 13 2 13 14
M  V30 14 1 4 15
M  V30 15 1 15 16
M  V30 16 1 16 17
M  V30 17 1 17 18
M  V30 18 1 18 19 CFG=1
M  V30 19 1 18 20
M  V30 20 1 20 21
M  V30 21 2 21 22
M  V30 22 1 22 23
M  V30 23 2 23 24
M  V30 24 1 24 25
M  V30 25 2 25 26
M  V30 26 1 26 27
M  V30 27 2 27 28
M  V30 28 1 28 29
M  V30 29 2 29 30
M  V30 30 1 30 31
M  V30 31 2 31 32
M  V30 32 1 32 33
M  V30 33 2 33 34
M  V30 34 1 34 35
M  V30 35 2 35 36
M  V30 36 1 36 37
M  V30 37 1 37 38
M  V30 38 2 38 39
M  V30 39 1 29 40
M  V30 40 2 40 41
M  V30 41 1 40 42
M  V30 42 1 42 43
M  V30 43 1 18 3
M  V30 44 1 39 20
M  V30 45 1 14 9
M  V30 46 1 37 16
M  V30 47 1 26 21
M  V30 48 1 39 27
M  V30 49 1 43 28
M  V30 50 1 38 30
M  V30 51 1 36 31
M  V30 52 1 1 44
M  V30 53 1 1 45
M  V30 54 1 1 46
M  V30 55 1 3 47 CFG=1
M  V30 56 1 4 48 CFG=1
M  V30 57 1 6 49
M  V30 58 1 6 50
M  V30 59 1 6 51
M  V30 60 1 10 52
M  V30 61 1 11 53
M  V30 62 1 12 54
M  V30 63 1 13 55
M  V30 64 1 14 56
M  V30 65 1 15 57
M  V30 66 1 15 58
M  V30 67 1 16 59 CFG=1
M  V30 68 1 19 60
M  V30 69 1 19 61
M  V30 70 1 19 62
M  V30 71 1 22 63
M  V30 72 1 23 64
M  V30 73 1 24 65
M  V30 74 1 25 66
M  V30 75 1 32 67
M  V30 76 1 33 68
M  V30 77 1 34 69
M  V30 78 1 35 70
M  V30 79 1 42 71
M  V30 80 1 43 72
M  V30 81 1 43 73
M  V30 END BOND
M  V30 END CTAB
M  END
>  <Dataset>  (6) 
ChEMBL_Kinases

>  <Ligand_Instance>  (6) 
nan

>  <PDB_ID>  (6) 
nan

>  <Standardized_SMILES>  (6) 
CO[C@@H]1[C@H](N(C)C(=O)c2ccccc2)C[C@H]2O[C@]1(C)n1c3ccccc3c3c4c(c5c6ccccc6n2c5c31)C(=O)NC4

>  <Name>  (6) 
MIDOSTAURIN

>  <Pocket>  (6) 
nan

>  <ATP_Site>  (6) 
nan

>  <Peripheral>  (6) 
nan

>  <Num_H_Atoms_ProtBoundConf>  (6) 
nan

>  <Num_Resolved_Atoms>  (6) 
nan

>  <Num_Not_Resolved_Atoms>  (6) 
nan

$$$$
CHEMBL191003
     RDKit          3D

  0  0  0  0  0  0  0  0  0  0999 V3000
M  V30 BEGIN CTAB
M  V30 COUNTS 39 41 0 0 0
M  V30 BEGIN ATOM
M  V30 1 N 0.543277 -4.001414 3.281331 0
M  V30 2 C 0.742046 -2.880512 2.466059 0
M  V30 3 N 1.998026 -2.566405 2.116020 0
M  V30 4 C 1.929455 -1.450106 1.370271 0
M  V30 5 N 2.930293 -0.671193 0.735004 0
M  V30 6 C 2.838817 0.507014 -0.049967 0
M  V30 7 C 1.668576 1.160266 -0.362727 0
M  V30 8 C 1.596896 2.305312 -1.127459 0
M  V30 9 C 2.769771 2.807717 -1.594718 0
M  V30 10 S 2.750338 4.259391 -2.572059 0
M  V30 11 N 2.597234 3.849900 -4.245567 0
M  V30 12 O 1.652311 5.199912 -2.200369 0
M  V30 13 O 4.098985 4.919549 -2.428719 0
M  V30 14 C 3.964221 2.187779 -1.307084 0
M  V30 15 C 4.002590 1.047262 -0.541766 0
M  V30 16 N 0.626815 -1.141919 1.304975 0
M  V30 17 N -0.123223 -1.997820 1.964053 0
M  V30 18 C -1.510014 -1.826437 2.046273 0
M  V30 19 O -1.802454 -0.708985 1.482682 0
M  V30 20 C -2.707703 -2.415591 2.516235 0
M  V30 21 C -3.735412 -1.540142 2.868222 0
M  V30 22 F -3.665024 -0.186190 2.816132 0
M  V30 23 C -4.971284 -2.008774 3.324308 0
M  V30 24 C -5.118974 -3.373384 3.406447 0
M  V30 25 C -4.161944 -4.308417 3.079764 0
M  V30 26 C -2.978794 -3.758445 2.640486 0
M  V30 27 F -2.082986 -4.701964 2.286361 0
M  V30 28 H 0.514688 -5.011246 3.066264 0
M  V30 29 H 0.369365 -4.210454 4.296822 0
M  V30 30 H 3.874073 -1.082479 0.909053 0
M  V30 31 H 0.731370 0.782050 -0.005041 0
M  V30 32 H 0.662241 2.794168 -1.355066 0
M  V30 33 H 3.304211 3.137541 -4.482910 0
M  V30 34 H 1.644844 3.488717 -4.471520 0
M  V30 35 H 4.909831 2.596187 -1.686065 0
M  V30 36 H 4.956260 0.597054 -0.342313 0
M  V30 37 H -5.783212 -1.351160 3.603582 0
M  V30 38 H -6.084356 -3.723874 3.764288 0
M  V30 39 H -4.364188 -5.363713 3.174833 0
M  V30 END ATOM
M  V30 BEGIN BOND
M  V30 1 1 1 2
M  V30 2 2 2 3
M  V30 3 1 3 4
M  V30 4 1 4 5
M  V30 5 1 5 6
M  V30 6 2 6 7
M  V30 7 1 7 8
M  V30 8 2 8 9
M  V30 9 1 9 10
M  V30 10 1 10 11
M  V30 11 2 10 12
M  V30 12 2 10 13
M  V30 13 1 9 14
M  V30 14 2 14 15
M  V30 15 2 4 16
M  V30 16 1 16 17
M  V30 17 1 17 18
M  V30 18 2 18 19
M  V30 19 1 18 20
M  V30 20 2 20 21
M  V30 21 1 21 22
M  V30 22 1 21 23
M  V30 23 2 23 24
M  V30 24 1 24 25
M  V30 25 2 25 26
M  V30 26 1 26 27
M  V30 27 1 17 2
M  V30 28 1 26 20
M  V30 29 1 15 6
M  V30 30 1 1 28
M  V30 31 1 1 29
M  V30 32 1 5 30
M  V30 33 1 7 31
M  V30 34 1 8 32
M  V30 35 1 11 33
M  V30 36 1 11 34
M  V30 37 1 14 35
M  V30 38 1 15 36
M  V30 39 1 23 37
M  V30 40 1 24 38
M  V30 41 1 25 39
M  V30 END BOND
M  V30 END CTAB
M  END
>  <Dataset>  (7) 
ChEMBL_Kinases

>  <Ligand_Instance>  (7) 
nan

>  <PDB_ID>  (7) 
nan

>  <Standardized_SMILES>  (7) 
Nc1nc(Nc2ccc(S(N)(=O)=O)cc2)nn1C(=O)c1c(F)cccc1F

>  <Name>  (7) 
JNJ-7706621

>  <Pocket>  (7) 
nan

>  <ATP_Site>  (7) 
nan

>  <Peripheral>  (7) 
nan

>  <Num_H_Atoms_ProtBoundConf>  (7) 
nan

>  <Num_Resolved_Atoms>  (7) 
nan

>  <Num_Not_Resolved_Atoms>  (7) 
nan

$$$$
CHEMBL522892
     RDKit          3D

  0  0  0  0  0  0  0  0  0  0999 V3000
M  V30 BEGIN CTAB
M  V30 COUNTS 50 54 0 0 0
M  V30 BEGIN ATOM
M  V30 1 C 1.329210 -6.871665 3.003014 0
M  V30 2 N 2.217876 -6.469725 1.944071 0
M  V30 3 C 3.153794 -5.459686 2.283794 0
M  V30 4 C 3.504539 -4.556143 1.128745 0
M  V30 5 N 2.250493 -4.036868 0.622809 0
M  V30 6 C 1.864638 -2.678112 0.676658 0
M  V30 7 C 2.621094 -1.691084 1.270237 0
M  V30 8 C 2.273897 -0.357786 1.339481 0
M  V30 9 C 1.079811 0.049597 0.778243 0
M  V30 10 N 0.436922 1.236499 0.661493 0
M  V30 11 C -0.725489 1.062632 0.006275 0
M  V30 12 C -1.632138 2.171293 -0.267117 0
M  V30 13 C -1.285577 3.438394 0.161376 0
M  V30 14 N -0.058335 3.693927 0.870077 0
M  V30 15 C -2.152765 4.502027 -0.100875 0
M  V30 16 C -1.758384 5.744695 0.349088 0
M  V30 17 F -0.604905 5.994194 1.017202 0
M  V30 18 C -2.628514 6.811821 0.086216 0
M  V30 19 C -3.823131 6.614777 -0.593165 0
M  V30 20 C -4.183732 5.351184 -1.028829 0
M  V30 21 C -3.337107 4.294223 -0.776606 0
M  V30 22 N -3.675072 3.049504 -1.196361 0
M  V30 23 C -2.829822 2.033050 -0.936868 0
M  V30 24 O -3.187819 0.906653 -1.344415 0
M  V30 25 N -0.812398 -0.244248 -0.290472 0
M  V30 26 C 0.284066 -0.912696 0.168168 0
M  V30 27 C 0.684489 -2.235487 0.129730 0
M  V30 28 C 1.422928 -5.058737 0.054547 0
M  V30 29 C 1.654303 -6.421228 0.645287 0
M  V30 30 H 1.523839 -6.168032 3.863111 0
M  V30 31 H 0.267758 -6.861074 2.760088 0
M  V30 32 H 1.586878 -7.884517 3.416158 0
M  V30 33 H 2.684418 -4.797168 3.068969 0
M  V30 34 H 4.067751 -5.873429 2.764210 0
M  V30 35 H 3.936961 -5.221456 0.329797 0
M  V30 36 H 4.219304 -3.800227 1.464808 0
M  V30 37 H 3.561240 -1.913634 1.731027 0
M  V30 38 H 2.891511 0.392438 1.813692 0
M  V30 39 H 0.895186 3.781108 0.423819 0
M  V30 40 H 0.128395 3.835622 1.897924 0
M  V30 41 H -2.307306 7.798348 0.447635 0
M  V30 42 H -4.417052 7.507376 -0.740616 0
M  V30 43 H -5.116832 5.227133 -1.553079 0
M  V30 44 H -4.573603 2.889841 -1.709603 0
M  V30 45 H -1.588222 -0.686095 -0.789665 0
M  V30 46 H -0.001161 -2.874375 -0.360231 0
M  V30 47 H 1.747860 -5.123444 -1.026537 0
M  V30 48 H 0.342018 -4.826468 0.017006 0
M  V30 49 H 2.295808 -7.062348 -0.011313 0
M  V30 50 H 0.673901 -6.942044 0.700261 0
M  V30 END ATOM
M  V30 BEGIN BOND
M  V30 1 1 1 2
M  V30 2 1 2 3
M  V30 3 1 3 4
M  V30 4 1 4 5
M  V30 5 1 5 6
M  V30 6 2 6 7
M  V30 7 1 7 8
M  V30 8 2 8 9
M  V30 9 1 9 10
M  V30 10 2 10 11
M  V30 11 1 11 12
M  V30 12 2 12 13
M  V30 13 1 13 14
M  V30 14 1 13 15
M  V30 15 2 15 16
M  V30 16 1 16 17
M  V30 17 1 16 18
M  V30 18 2 18 19
M  V30 19 1 19 20
M  V30 20 2 20 21
M  V30 21 1 21 22
M  V30 22 1 22 23
M  V30 23 2 23 24
M  V30 24 1 11 25
M  V30 25 1 25 26
M  V30 26 2 26 27
M  V30 27 1 5 28
M  V30 28 1 28 29
M  V30 29 1 29 2
M  V30 30 1 27 6
M  V30 31 1 26 9
M  V30 32 1 23 12
M  V30 33 1 21 15
M  V30 34 1 1 30
M  V30 35 1 1 31
M  V30 36 1 1 32
M  V30 37 1 3 33
M  V30 38 1 3 34
M  V30 39 1 4 35
M  V30 40 1 4 36
M  V30 41 1 7 37
M  V30 42 1 8 38
M  V30 43 1 14 39
M  V30 44 1 14 40
M  V30 45 1 18 41
M  V30 46 1 19 42
M  V30 47 1 20 43
M  V30 48 1 22 44
M  V30 49 1 25 45
M  V30 50 1 27 46
M  V30 51 1 28 47
M  V30 52 1 28 48
M  V30 53 1 29 49
M  V30 54 1 29 50
M  V30 END BOND
M  V30 END CTAB
M  END
>  <Dataset>  (8) 
ChEMBL_Kinases

>  <Ligand_Instance>  (8) 
nan

>  <PDB_ID>  (8) 
nan

>  <Standardized_SMILES>  (8) 
CN1CCN(c2ccc3nc(-c4c(N)c5c(F)cccc5[nH]c4=O)[nH]c3c2)CC1

>  <Name>  (8) 
DOVITINIB

>  <Pocket>  (8) 
nan

>  <ATP_Site>  (8) 
nan

>  <Peripheral>  (8) 
nan

>  <Num_H_Atoms_ProtBoundConf>  (8) 
nan

>  <Num_Resolved_Atoms>  (8) 
nan

>  <Num_Not_Resolved_Atoms>  (8) 
nan

$$$$
CHEMBL3688339
     RDKit          3D

  0  0  0  0  0  0  0  0  0  0999 V3000
M  V30 BEGIN CTAB
M  V30 COUNTS 61 64 0 0 0
M  V30 BEGIN ATOM
M  V30 1 C -0.091310 -3.320812 5.452555 0
M  V30 2 C -0.046681 -2.640533 4.139216 0
M  V30 3 O -0.403358 -3.505618 3.315843 0
M  V30 4 C 0.355063 -1.246098 4.024219 0
M  V30 5 C 0.720243 -0.660515 5.217948 0
M  V30 6 N 1.134837 0.609751 5.248792 0
M  V30 7 C 1.231861 1.397858 4.183040 0
M  V30 8 C 1.659605 2.705764 4.229935 0
M  V30 9 C 1.742286 3.486984 3.098113 0
M  V30 10 C 1.372648 2.885525 1.916255 0
M  V30 11 C 1.418691 3.622231 0.659771 0
M  V30 12 C 1.824141 4.929610 0.559200 0
M  V30 13 C 1.871818 5.640667 -0.621726 0
M  V30 14 Cl 2.395394 7.299844 -0.684723 0
M  V30 15 C 1.488245 5.014855 -1.807565 0
M  V30 16 O 1.499303 5.640607 -3.045775 0
M  V30 17 C 1.080083 3.702124 -1.714068 0
M  V30 18 Cl 0.580575 2.839654 -3.160291 0
M  V30 19 C 1.042375 3.015491 -0.519927 0
M  V30 20 N 0.961579 1.609247 1.911367 0
M  V30 21 C 0.868388 0.816880 2.996411 0
M  V30 22 C 0.420379 -0.508855 2.864509 0
M  V30 23 N 0.030244 -1.046304 1.645622 0
M  V30 24 C -0.467161 -1.944533 0.710777 0 CFG=1
M  V30 25 C -1.960612 -2.145055 0.840452 0
M  V30 26 C -2.462396 -3.291856 0.026296 0
M  V30 27 C -1.920817 -3.323331 -1.374879 0 CFG=2
M  V30 28 C -1.952934 -4.783753 -1.823749 0
M  V30 29 N -1.459507 -4.893372 -3.132793 0
M  V30 30 C -2.176480 -4.351878 -4.209300 0
M  V30 31 C -0.148818 -5.344652 -3.365082 0
M  V30 32 C -0.532158 -2.826509 -1.545535 0
M  V30 33 C -0.282392 -1.567749 -0.769404 0
M  V30 34 H 0.789533 -3.052237 6.087995 0
M  V30 35 H -0.970199 -2.982021 6.041279 0
M  V30 36 H -0.103133 -4.410059 5.422243 0
M  V30 37 H 0.740117 -1.057361 6.237007 0
M  V30 38 H 1.915123 3.036595 5.229709 0
M  V30 39 H 2.081363 4.501470 3.183225 0
M  V30 40 H 2.132980 5.477364 1.424814 0
M  V30 41 H 2.253112 5.514171 -3.713989 0
M  V30 42 H 0.717792 1.975177 -0.456584 0
M  V30 43 H 0.215268 -0.320759 0.924634 0
M  V30 44 H -0.005021 -2.964696 0.778305 0
M  V30 45 H -2.270509 -2.266422 1.877860 0
M  V30 46 H -2.487800 -1.207747 0.491476 0
M  V30 47 H -3.568518 -3.145341 -0.073522 0
M  V30 48 H -2.347380 -4.284737 0.505933 0
M  V30 49 H -2.595807 -2.774122 -2.081734 0
M  V30 50 H -2.989379 -5.214100 -1.689405 0
M  V30 51 H -1.266089 -5.338916 -1.134605 0
M  V30 52 H -2.674023 -5.081017 -4.881181 0
M  V30 53 H -2.987406 -3.647739 -3.889538 0
M  V30 54 H -1.517375 -3.708518 -4.860454 0
M  V30 55 H 0.438488 -4.529429 -3.881948 0
M  V30 56 H -0.113930 -6.196058 -4.110027 0
M  V30 57 H 0.415558 -5.592692 -2.458324 0
M  V30 58 H 0.189855 -3.587586 -1.165105 0
M  V30 59 H -0.387605 -2.654908 -2.649996 0
M  V30 60 H 0.687453 -1.108658 -0.965970 0
M  V30 61 H -1.113419 -0.855936 -1.022171 0
M  V30 END ATOM
M  V30 BEGIN BOND
M  V30 1 1 1 2
M  V30 2 2 2 3
M  V30 3 1 2 4
M  V30 4 2 4 5
M  V30 5 1 5 6
M  V30 6 2 6 7
M  V30 7 1 7 8
M  V30 8 2 8 9
M  V30 9 1 9 10
M  V30 10 1 10 11
M  V30 11 2 11 12
M  V30 12 1 12 13
M  V30 13 1 13 14
M  V30 14 2 13 15
M  V30 15 1 15 16
M  V30 16 1 15 17
M  V30 17 1 17 18
M  V30 18 2 17 19
M  V30 19 2 10 20
M  V30 20 1 20 21
M  V30 21 2 21 22
M  V30 22 1 22 23
M  V30 23 1 23 24
M  V30 24 1 24 25
M  V30 25 1 25 26
M  V30 26 1 26 27
M  V30 27 1 27 28
M  V30 28 1 28 29
M  V30 29 1 29 30
M  V30 30 1 29 31
M  V30 31 1 27 32
M  V30 32 1 32 33
M  V30 33 1 22 4
M  V30 34 1 33 24
M  V30 35 1 21 7
M  V30 36 1 19 11
M  V30 37 1 1 34
M  V30 38 1 1 35
M  V30 39 1 1 36
M  V30 40 1 5 37
M  V30 41 1 8 38
M  V30 42 1 9 39
M  V30 43 1 12 40
M  V30 44 1 16 41
M  V30 45 1 19 42
M  V30 46 1 23 43
M  V30 47 1 24 44 CFG=3
M  V30 48 1 25 45
M  V30 49 1 25 46
M  V30 50 1 26 47
M  V30 51 1 26 48
M  V30 52 1 27 49 CFG=3
M  V30 53 1 28 50
M  V30 54 1 28 51
M  V30 55 1 30 52
M  V30 56 1 30 53
M  V30 57 1 30 54
M  V30 58 1 31 55
M  V30 59 1 31 56
M  V30 60 1 31 57
M  V30 61 1 32 58
M  V30 62 1 32 59
M  V30 63 1 33 60
M  V30 64 1 33 61
M  V30 END BOND
M  V30 END CTAB
M  END
>  <Dataset>  (9) 
ChEMBL_Kinases

>  <Ligand_Instance>  (9) 
nan

>  <PDB_ID>  (9) 
nan

>  <Standardized_SMILES>  (9) 
CC(=O)c1cnc2ccc(-c3cc(Cl)c(O)c(Cl)c3)nc2c1N[C@H]1CC[C@H](CN(C)C)CC1

>  <Name>  (9) 
nan

>  <Pocket>  (9) 
nan

>  <ATP_Site>  (9) 
nan

>  <Peripheral>  (9) 
nan

>  <Num_H_Atoms_ProtBoundConf>  (9) 
nan

>  <Num_Resolved_Atoms>  (9) 
nan

>  <Num_Not_Resolved_Atoms>  (9) 
nan

$$$$
CHEMBL574738
     RDKit          3D

  0  0  0  0  0  0  0  0  0  0999 V3000
M  V30 BEGIN CTAB
M  V30 COUNTS 68 71 0 0 0
M  V30 BEGIN ATOM
M  V30 1 C 5.350402 -1.590842 4.774064 0
M  V30 2 C 5.114366 -1.734209 3.311127 0
M  V30 3 N 4.917206 -0.545831 2.555046 0
M  V30 4 C 4.713274 -0.979539 1.160395 0
M  V30 5 C 4.197144 0.138961 0.312505 0
M  V30 6 N 4.536329 1.432594 0.873216 0
M  V30 7 C 4.473018 2.478653 -0.161588 0
M  V30 8 C 3.108958 2.559598 -0.741534 0
M  V30 9 C 2.808160 2.031538 -1.988069 0
M  V30 10 C 1.530337 2.108000 -2.516065 0
M  V30 11 C 0.539965 2.727358 -1.774225 0
M  V30 12 N -0.839206 2.874904 -2.205099 0
M  V30 13 C -1.729355 1.800873 -1.829461 0
M  V30 14 O -1.169006 0.864323 -1.165242 0
M  V30 15 N -3.117711 1.654243 -2.097102 0
M  V30 16 C -3.736248 0.472707 -1.591114 0
M  V30 17 C -3.818218 -0.703535 -2.313172 0
M  V30 18 C -4.401868 -1.838028 -1.843344 0
M  V30 19 C -4.956740 -1.865178 -0.581866 0
M  V30 20 O -5.595245 -2.866406 0.118066 0
M  V30 21 C -5.813562 -4.133916 -0.382913 0
M  V30 22 C -6.480287 -4.929744 0.559169 0
M  V30 23 C -6.814042 -6.241052 0.297784 0
M  V30 24 N -7.483253 -7.073253 1.221803 0
M  V30 25 C -7.870383 -6.613690 2.531169 0
M  V30 26 N -6.467628 -6.724098 -0.911993 0
M  V30 27 C -5.828168 -5.991689 -1.840731 0
M  V30 28 N -5.528818 -4.737889 -1.543711 0
M  V30 29 C -4.884220 -0.698508 0.154204 0
M  V30 30 C -4.287420 0.461824 -0.326090 0
M  V30 31 C 0.847382 3.257926 -0.519783 0
M  V30 32 C 2.137051 3.189055 0.030201 0
M  V30 33 C 2.330273 3.785739 1.356143 0
M  V30 34 F 1.152510 4.340439 1.861931 0
M  V30 35 F 3.167798 4.879229 1.183059 0
M  V30 36 F 2.947430 2.985362 2.276753 0
M  V30 37 C 5.861998 1.336514 1.400020 0
M  V30 38 C 5.946591 0.414952 2.575387 0
M  V30 39 H 5.051462 -0.640659 5.220912 0
M  V30 40 H 6.438349 -1.760214 5.018285 0
M  V30 41 H 4.812277 -2.393476 5.335770 0
M  V30 42 H 5.965473 -2.310358 2.875585 0
M  V30 43 H 4.225815 -2.385823 3.140799 0
M  V30 44 H 5.688240 -1.307897 0.746479 0
M  V30 45 H 4.040416 -1.852633 1.104797 0
M  V30 46 H 3.097061 0.061228 0.097770 0
M  V30 47 H 4.687670 0.071142 -0.677159 0
M  V30 48 H 4.881727 3.417985 0.201165 0
M  V30 49 H 5.139673 2.118991 -0.974842 0
M  V30 50 H 3.578388 1.545410 -2.572936 0
M  V30 51 H 1.235940 1.715995 -3.479167 0
M  V30 52 H -1.340964 3.629497 -2.753691 0
M  V30 53 H -3.508144 2.455734 -2.644621 0
M  V30 54 H -3.391646 -0.722132 -3.313693 0
M  V30 55 H -4.492582 -2.780061 -2.363696 0
M  V30 56 H -6.792423 -4.605886 1.559656 0
M  V30 57 H -7.714521 -8.045185 0.976725 0
M  V30 58 H -8.097826 -7.466416 3.211321 0
M  V30 59 H -7.010458 -6.054539 2.974390 0
M  V30 60 H -8.744569 -5.933040 2.480750 0
M  V30 61 H -5.532970 -6.340309 -2.820987 0
M  V30 62 H -5.271079 -0.549612 1.164094 0
M  V30 63 H -4.216505 1.388166 0.227598 0
M  V30 64 H 0.049800 3.748724 0.059551 0
M  V30 65 H 6.290447 2.312192 1.704566 0
M  V30 66 H 6.500496 0.913175 0.598458 0
M  V30 67 H 5.785108 1.044419 3.499267 0
M  V30 68 H 6.969306 0.017333 2.718686 0
M  V30 END ATOM
M  V30 BEGIN BOND
M  V30 1 1 1 2
M  V30 2 1 2 3
M  V30 3 1 3 4
M  V30 4 1 4 5
M  V30 5 1 5 6
M  V30 6 1 6 7
M  V30 7 1 7 8
M  V30 8 2 8 9
M  V30 9 1 9 10
M  V30 10 2 10 11
M  V30 11 1 11 12
M  V30 12 1 12 13
M  V30 13 2 13 14
M  V30 14 1 13 15
M  V30 15 1 15 16
M  V30 16 2 16 17
M  V30 17 1 17 18
M  V30 18 2 18 19
M  V30 19 1 19 20
M  V30 20 1 20 21
M  V30 21 2 21 22
M  V30 22 1 22 23
M  V30 23 1 23 24
M  V30 24 1 24 25
M  V30 25 2 23 26
M  V30 26 1 26 27
M  V30 27 2 27 28
M  V30 28 1 19 29
M  V30 29 2 29 30
M  V30 30 1 11 31
M  V30 31 2 31 32
M  V30 32 1 32 33
M  V30 33 1 33 34
M  V30 34 1 33 35
M  V30 35 1 33 36
M  V30 36 1 6 37
M  V30 37 1 37 38
M  V30 38 1 38 3
M  V30 39 1 32 8
M  V30 40 1 30 16
M  V30 41 1 28 21
M  V30 42 1 1 39
M  V30 43 1 1 40
M  V30 44 1 1 41
M  V30 45 1 2 42
M  V30 46 1 2 43
M  V30 47 1 4 44
M  V30 48 1 4 45
M  V30 49 1 5 46
M  V30 50 1 5 47
M  V30 51 1 7 48
M  V30 52 1 7 49
M  V30 53 1 9 50
M  V30 54 1 10 51
M  V30 55 1 12 52
M  V30 56 1 15 53
M  V30 57 1 17 54
M  V30 58 1 18 55
M  V30 59 1 22 56
M  V30 60 1 24 57
M  V30 61 1 25 58
M  V30 62 1 25 59
M  V30 63 1 25 60
M  V30 64 1 27 61
M  V30 65 1 29 62
M  V30 66 1 30 63
M  V30 67 1 31 64
M  V30 68 1 37 65
M  V30 69 1 37 66
M  V30 70 1 38 67
M  V30 71 1 38 68
M  V30 END BOND
M  V30 END CTAB
M  END
>  <Dataset>  (10) 
ChEMBL_Kinases

>  <Ligand_Instance>  (10) 
nan

>  <PDB_ID>  (10) 
nan

>  <Standardized_SMILES>  (10) 
CCN1CCN(Cc2ccc(NC(=O)Nc3ccc(Oc4cc(NC)ncn4)cc3)cc2C(F)(F)F)CC1

>  <Name>  (10) 
AST-487

>  <Pocket>  (10) 
nan

>  <ATP_Site>  (10) 
nan

>  <Peripheral>  (10) 
nan

>  <Num_H_Atoms_ProtBoundConf>  (10) 
nan

>  <Num_Resolved_Atoms>  (10) 
nan

>  <Num_Not_Resolved_Atoms>  (10) 
nan

$$$$
CHEMBL428690
     RDKit          3D

  0  0  0  0  0  0  0  0  0  0999 V3000
M  V30 BEGIN CTAB
M  V30 COUNTS 48 51 0 0 0
M  V30 BEGIN ATOM
M  V30 1 C -2.567522 -3.492724 1.976791 0
M  V30 2 N -1.125496 -3.646021 1.874021 0
M  V30 3 C -0.721277 -3.306443 0.574947 0
M  V30 4 C 0.612100 -2.675975 0.374319 0
M  V30 5 C 0.781615 -1.662154 1.488322 0 CFG=2
M  V30 6 C 1.815733 -0.662939 1.280983 0
M  V30 7 C 3.112125 -0.757366 1.691698 0
M  V30 8 O 3.586482 -1.845408 2.368803 0
M  V30 9 C 4.084710 0.194498 1.488657 0
M  V30 10 C 3.754738 1.371174 0.808076 0
M  V30 11 O 4.595146 2.433985 0.512552 0
M  V30 12 C 2.447018 1.480345 0.386858 0
M  V30 13 C 2.015751 2.598324 -0.292857 0
M  V30 14 O 2.807223 3.532620 -0.537826 0
M  V30 15 C 0.703170 2.621155 -0.672406 0
M  V30 16 C -0.249836 1.669815 -0.464207 0
M  V30 17 C -1.641264 1.632753 -0.836114 0
M  V30 18 C -2.348139 0.503809 -0.477786 0
M  V30 19 C -3.681903 0.324099 -0.762415 0
M  V30 20 C -4.393112 1.286235 -1.435327 0
M  V30 21 C -3.721256 2.426560 -1.809057 0
M  V30 22 C -2.389040 2.547572 -1.495928 0
M  V30 23 Cl -1.662891 4.029965 -2.021866 0
M  V30 24 O 0.245112 0.649579 0.184533 0
M  V30 25 C 1.480626 0.519001 0.596320 0
M  V30 26 C 0.869866 -2.491111 2.734030 0 CFG=2
M  V30 27 O 1.712043 -3.585614 2.492572 0
M  V30 28 C -0.541527 -2.977419 2.992537 0
M  V30 29 H -3.082520 -4.473588 2.029341 0
M  V30 30 H -2.946228 -2.887479 1.120070 0
M  V30 31 H -2.872477 -2.909510 2.888045 0
M  V30 32 H -0.705262 -4.261123 -0.031904 0
M  V30 33 H -1.490517 -2.686120 0.035520 0
M  V30 34 H 0.627266 -2.219973 -0.634910 0
M  V30 35 H 1.372479 -3.497796 0.481634 0
M  V30 36 H -0.231606 -1.144442 1.527037 0
M  V30 37 H 4.245843 -1.846989 3.117675 0
M  V30 38 H 5.114303 0.135214 1.806939 0
M  V30 39 H 4.977439 2.616364 -0.388980 0
M  V30 40 H 0.417759 3.508209 -1.196346 0
M  V30 41 H -1.916461 -0.329476 0.053082 0
M  V30 42 H -4.220930 -0.560755 -0.477368 0
M  V30 43 H -5.435315 1.140720 -1.655245 0
M  V30 44 H -4.284618 3.179874 -2.337742 0
M  V30 45 H 1.189258 -1.901250 3.609764 0
M  V30 46 H 2.050027 -3.929570 3.360559 0
M  V30 47 H -0.486227 -3.692630 3.838566 0
M  V30 48 H -1.158380 -2.125209 3.328762 0
M  V30 END ATOM
M  V30 BEGIN BOND
M  V30 1 1 1 2
M  V30 2 1 2 3
M  V30 3 1 3 4
M  V30 4 1 4 5
M  V30 5 1 5 6
M  V30 6 2 6 7
M  V30 7 1 7 8
M  V30 8 1 7 9
M  V30 9 2 9 10
M  V30 10 1 10 11
M  V30 11 1 10 12
M  V30 12 1 12 13
M  V30 13 2 13 14
M  V30 14 1 13 15
M  V30 15 2 15 16
M  V30 16 1 16 17
M  V30 17 2 17 18
M  V30 18 1 18 19
M  V30 19 2 19 20
M  V30 20 1 20 21
M  V30 21 2 21 22
M  V30 22 1 22 23
M  V30 23 1 16 24
M  V30 24 1 24 25
M  V30 25 1 5 26
M  V30 26 1 26 27
M  V30 27 1 26 28
M  V30 28 1 28 2
M  V30 29 1 25 6
M  V30 30 2 25 12
M  V30 31 1 22 17
M  V30 32 1 1 29
M  V30 33 1 1 30
M  V30 34 1 1 31
M  V30 35 1 3 32
M  V30 36 1 3 33
M  V30 37 1 4 34
M  V30 38 1 4 35
M  V30 39 1 5 36 CFG=1
M  V30 40 1 8 37
M  V30 41 1 9 38
M  V30 42 1 11 39
M  V30 43 1 15 40
M  V30 44 1 18 41
M  V30 45 1 19 42
M  V30 46 1 20 43
M  V30 47 1 21 44
M  V30 48 1 26 45 CFG=1
M  V30 49 1 27 46
M  V30 50 1 28 47
M  V30 51 1 28 48
M  V30 END BOND
M  V30 END CTAB
M  END
>  <Dataset>  (11) 
ChEMBL_Kinases

>  <Ligand_Instance>  (11) 
nan

>  <PDB_ID>  (11) 
nan

>  <Standardized_SMILES>  (11) 
CN1CC[C@H](c2c(O)cc(O)c3c(=O)cc(-c4ccccc4Cl)oc23)[C@H](O)C1

>  <Name>  (11) 
ALVOCIDIB

>  <Pocket>  (11) 
nan

>  <ATP_Site>  (11) 
nan

>  <Peripheral>  (11) 
nan

>  <Num_H_Atoms_ProtBoundConf>  (11) 
nan

>  <Num_Resolved_Atoms>  (11) 
nan

>  <Num_Not_Resolved_Atoms>  (11) 
nan

$$$$
CHEMBL91829
     RDKit          3D

  0  0  0  0  0  0  0  0  0  0999 V3000
M  V30 BEGIN CTAB
M  V30 COUNTS 63 68 0 0 0
M  V30 BEGIN ATOM
M  V30 1 C 0.641485 -0.872690 5.662512 0
M  V30 2 N 0.944046 0.164180 4.754638 0
M  V30 3 C 2.273107 0.619207 4.676136 0
M  V30 4 C 0.026862 0.486212 3.740435 0
M  V30 5 C -0.169493 -0.559069 2.660619 0 CFG=2
M  V30 6 C 1.075445 -0.964808 1.961094 0
M  V30 7 C 1.797309 0.097593 1.209384 0
M  V30 8 N 0.994420 0.668740 0.133426 0
M  V30 9 C 0.816984 -0.144819 -0.922390 0
M  V30 10 C 0.040993 0.518284 -1.845478 0
M  V30 11 C -0.269844 1.760514 -1.363390 0
M  V30 12 C -1.006754 2.838815 -1.852877 0
M  V30 13 C -1.136278 3.987340 -1.103988 0
M  V30 14 C -0.502691 4.004512 0.138485 0
M  V30 15 C 0.229664 2.949485 0.639080 0
M  V30 16 C 0.343898 1.816963 -0.125153 0
M  V30 17 C -0.383371 -0.031291 -3.126414 0
M  V30 18 C -0.916392 -1.239064 -3.216942 0
M  V30 19 C -1.288044 -1.641470 -4.566119 0
M  V30 20 O -1.803374 -2.715692 -4.928875 0
M  V30 21 N -0.906543 -0.487519 -5.348278 0
M  V30 22 C -0.344650 0.521429 -4.480065 0
M  V30 23 O 0.101922 1.659930 -4.774531 0
M  V30 24 C -1.071540 -2.022779 -1.972267 0
M  V30 25 C -1.680650 -1.507417 -0.842413 0
M  V30 26 N -1.647120 -2.453747 0.087521 0
M  V30 27 C -1.046387 -3.535893 -0.409370 0
M  V30 28 C -0.759557 -4.785262 0.142225 0
M  V30 29 C -0.114801 -5.721367 -0.635675 0
M  V30 30 C 0.263056 -5.488283 -1.933811 0
M  V30 31 C -0.006590 -4.248122 -2.523387 0
M  V30 32 C -0.653603 -3.316078 -1.735016 0
M  V30 33 C -2.194756 -2.261431 1.415939 0
M  V30 34 C -2.296731 -0.803608 1.739737 0
M  V30 35 O -1.122573 -0.101991 1.736262 0
M  V30 36 H 0.894970 -1.887893 5.337184 0
M  V30 37 H 1.247668 -0.693327 6.590195 0
M  V30 38 H -0.414551 -0.769483 5.986003 0
M  V30 39 H 2.989715 -0.147690 4.313560 0
M  V30 40 H 2.328437 1.578170 4.139296 0
M  V30 41 H 2.620332 0.845194 5.721720 0
M  V30 42 H -0.990451 0.577821 4.228410 0
M  V30 43 H 0.240552 1.490604 3.362294 0
M  V30 44 H -0.611032 -1.434609 3.165977 0
M  V30 45 H 1.779952 -1.446257 2.670757 0
M  V30 46 H 0.806380 -1.758934 1.237262 0
M  V30 47 H 2.223069 0.888423 1.823090 0
M  V30 48 H 2.668053 -0.401136 0.711121 0
M  V30 49 H 1.168301 -1.147207 -1.124938 0
M  V30 50 H -1.483540 2.784791 -2.823137 0
M  V30 51 H -1.700556 4.842918 -1.452336 0
M  V30 52 H -0.622722 4.923509 0.706270 0
M  V30 53 H 0.691299 3.022492 1.591947 0
M  V30 54 H -1.019124 -0.397154 -6.381365 0
M  V30 55 H -2.080612 -0.503932 -0.818151 0
M  V30 56 H -1.025667 -5.041118 1.155995 0
M  V30 57 H 0.110662 -6.691686 -0.213909 0
M  V30 58 H 0.772787 -6.204585 -2.573443 0
M  V30 59 H 0.267368 -4.007276 -3.542378 0
M  V30 60 H -1.673977 -2.852027 2.171290 0
M  V30 61 H -3.246488 -2.671187 1.346261 0
M  V30 62 H -2.854735 -0.732435 2.699545 0
M  V30 63 H -2.969008 -0.289356 1.000719 0
M  V30 END ATOM
M  V30 BEGIN BOND
M  V30 1 1 1 2
M  V30 2 1 2 3
M  V30 3 1 2 4
M  V30 4 1 4 5
M  V30 5 1 5 6
M  V30 6 1 6 7
M  V30 7 1 7 8
M  V30 8 1 8 9
M  V30 9 2 9 10
M  V30 10 1 10 11
M  V30 11 2 11 12
M  V30 12 1 12 13
M  V30 13 2 13 14
M  V30 14 1 14 15
M  V30 15 2 15 16
M  V30 16 1 10 17
M  V30 17 2 17 18
M  V30 18 1 18 19
M  V30 19 2 19 20
M  V30 20 1 19 21
M  V30 21 1 21 22
M  V30 22 2 22 23
M  V30 23 1 18 24
M  V30 24 2 24 25
M  V30 25 1 25 26
M  V30 26 1 26 27
M  V30 27 2 27 28
M  V30 28 1 28 29
M  V30 29 2 29 30
M  V30 30 1 30 31
M  V30 31 2 31 32
M  V30 32 1 26 33
M  V30 33 1 33 34
M  V30 34 1 34 35
M  V30 35 1 35 5
M  V30 36 1 16 8
M  V30 37 1 22 17
M  V30 38 1 32 24
M  V30 39 1 16 11
M  V30 40 1 32 27
M  V30 41 1 1 36
M  V30 42 1 1 37
M  V30 43 1 1 38
M  V30 44 1 3 39
M  V30 45 1 3 40
M  V30 46 1 3 41
M  V30 47 1 4 42
M  V30 48 1 4 43
M  V30 49 1 5 44 CFG=1
M  V30 50 1 6 45
M  V30 51 1 6 46
M  V30 52 1 7 47
M  V30 53 1 7 48
M  V30 54 1 9 49
M  V30 55 1 12 50
M  V30 56 1 13 51
M  V30 57 1 14 52
M  V30 58 1 15 53
M  V30 59 1 21 54
M  V30 60 1 25 55
M  V30 61 1 28 56
M  V30 62 1 29 57
M  V30 63 1 30 58
M  V30 64 1 31 59
M  V30 65 1 33 60
M  V30 66 1 33 61
M  V30 67 1 34 62
M  V30 68 1 34 63
M  V30 END BOND
M  V30 END CTAB
M  END
>  <Dataset>  (12) 
ChEMBL_Kinases

>  <Ligand_Instance>  (12) 
nan

>  <PDB_ID>  (12) 
nan

>  <Standardized_SMILES>  (12) 
CN(C)C[C@@H]1CCn2cc(c3ccccc32)C2=C(C(=O)NC2=O)c2cn(c3ccccc23)CCO1

>  <Name>  (12) 
RUBOXISTAURIN

>  <Pocket>  (12) 
nan

>  <ATP_Site>  (12) 
nan

>  <Peripheral>  (12) 
nan

>  <Num_H_Atoms_ProtBoundConf>  (12) 
nan

>  <Num_Resolved_Atoms>  (12) 
nan

>  <Num_Not_Resolved_Atoms>  (12) 
nan

$$$$
CHEMBL495727
     RDKit          3D

  0  0  0  0  0  0  0  0  0  0999 V3000
M  V30 BEGIN CTAB
M  V30 COUNTS 51 55 0 0 0
M  V30 BEGIN ATOM
M  V30 1 O 0.137267 -4.119815 -2.262395 0
M  V30 2 C 0.336710 -4.346394 -1.032573 0
M  V30 3 N 1.668032 -4.067793 -0.574253 0
M  V30 4 C 2.530979 -3.586213 -1.579614 0
M  V30 5 C 3.324290 -4.368266 -2.393440 0
M  V30 6 N 3.993650 -3.537927 -3.214348 0
M  V30 7 N 3.629772 -2.283452 -2.921748 0
M  V30 8 C 2.731085 -2.268212 -1.921386 0
M  V30 9 C 2.125131 -1.068491 -1.353867 0
M  V30 10 N 2.360023 0.207645 -1.730648 0
M  V30 11 C 1.633608 1.065036 -0.997887 0
M  V30 12 C 1.580332 2.442818 -1.062488 0
M  V30 13 C 0.730758 3.088423 -0.173307 0
M  V30 14 C -0.018298 2.335194 0.729692 0
M  V30 15 C -0.884355 3.119583 1.624811 0
M  V30 16 N -0.242389 3.506498 2.856337 0
M  V30 17 C -1.096634 4.268280 3.716089 0
M  V30 18 C -1.901244 3.407082 4.645997 0
M  V30 19 O -1.939140 2.083566 4.267344 0
M  V30 20 C -0.658366 1.533289 4.284546 0
M  V30 21 C 0.327261 2.413284 3.581821 0
M  V30 22 C 0.079230 0.958996 0.744802 0
M  V30 23 C 0.914062 0.286185 -0.125492 0
M  V30 24 N 1.229320 -0.996040 -0.361574 0
M  V30 25 N -0.732481 -4.842556 -0.221777 0
M  V30 26 C -2.035656 -5.087744 -0.789907 0
M  V30 27 C -2.833339 -6.272257 -0.407845 0
M  V30 28 C -3.289439 -4.900593 -0.034256 0
M  V30 29 H 1.802491 -4.268248 0.461220 0
M  V30 30 H 3.427535 -5.453712 -2.410731 0
M  V30 31 H 4.694627 -3.788233 -3.973168 0
M  V30 32 H 2.199469 2.965526 -1.799883 0
M  V30 33 H 0.697315 4.172524 -0.233581 0
M  V30 34 H -1.823621 2.540750 1.859647 0
M  V30 35 H -1.234307 4.051406 1.137709 0
M  V30 36 H -0.443644 4.950207 4.327395 0
M  V30 37 H -1.730154 4.974159 3.109114 0
M  V30 38 H -2.954502 3.780504 4.578634 0
M  V30 39 H -1.503643 3.460134 5.671032 0
M  V30 40 H -0.753934 0.517053 3.839550 0
M  V30 41 H -0.376233 1.352561 5.360211 0
M  V30 42 H 1.054863 1.831309 2.958656 0
M  V30 43 H 0.983307 2.870010 4.379675 0
M  V30 44 H -0.512441 0.404546 1.454400 0
M  V30 45 H 0.805748 -1.753715 0.178912 0
M  V30 46 H -0.504418 -5.011249 0.793586 0
M  V30 47 H -2.070758 -4.845712 -1.883026 0
M  V30 48 H -2.360684 -6.946878 0.349688 0
M  V30 49 H -3.415239 -6.816680 -1.180980 0
M  V30 50 H -3.233904 -4.542529 1.009565 0
M  V30 51 H -4.200340 -4.540567 -0.555599 0
M  V30 END ATOM
M  V30 BEGIN BOND
M  V30 1 2 1 2
M  V30 2 1 2 3
M  V30 3 1 3 4
M  V30 4 2 4 5
M  V30 5 1 5 6
M  V30 6 1 6 7
M  V30 7 2 7 8
M  V30 8 1 8 9
M  V30 9 2 9 10
M  V30 10 1 10 11
M  V30 11 2 11 12
M  V30 12 1 12 13
M  V30 13 2 13 14
M  V30 14 1 14 15
M  V30 15 1 15 16
M  V30 16 1 16 17
M  V30 17 1 17 18
M  V30 18 1 18 19
M  V30 19 1 19 20
M  V30 20 1 20 21
M  V30 21 1 14 22
M  V30 22 2 22 23
M  V30 23 1 23 24
M  V30 24 1 2 25
M  V30 25 1 25 26
M  V30 26 1 26 27
M  V30 27 1 27 28
M  V30 28 1 8 4
M  V30 29 1 24 9
M  V30 30 1 28 26
M  V30 31 1 23 11
M  V30 32 1 21 16
M  V30 33 1 3 29
M  V30 34 1 5 30
M  V30 35 1 6 31
M  V30 36 1 12 32
M  V30 37 1 13 33
M  V30 38 1 15 34
M  V30 39 1 15 35
M  V30 40 1 17 36
M  V30 41 1 17 37
M  V30 42 1 18 38
M  V30 43 1 18 39
M  V30 44 1 20 40
M  V30 45 1 20 41
M  V30 46 1 21 42
M  V30 47 1 21 43
M  V30 48 1 22 44
M  V30 49 1 24 45
M  V30 50 1 25 46
M  V30 51 1 26 47
M  V30 52 1 27 48
M  V30 53 1 27 49
M  V30 54 1 28 50
M  V30 55 1 28 51
M  V30 END BOND
M  V30 END CTAB
M  END
>  <Dataset>  (13) 
ChEMBL_Kinases

>  <Ligand_Instance>  (13) 
nan

>  <PDB_ID>  (13) 
nan

>  <Standardized_SMILES>  (13) 
O=C(Nc1c[nH]nc1-c1nc2ccc(CN3CCOCC3)cc2[nH]1)NC1CC1

>  <Name>  (13) 
AT-9283

>  <Pocket>  (13) 
nan

>  <ATP_Site>  (13) 
nan

>  <Peripheral>  (13) 
nan

>  <Num_H_Atoms_ProtBoundConf>  (13) 
nan

>  <Num_Resolved_Atoms>  (13) 
nan

>  <Num_Not_Resolved_Atoms>  (13) 
nan

$$$$
CHEMBL603469
     RDKit          3D

  0  0  0  0  0  0  0  0  0  0999 V3000
M  V30 BEGIN CTAB
M  V30 COUNTS 54 61 0 0 0
M  V30 BEGIN ATOM
M  V30 1 C 3.011813 -2.522364 1.327423 0
M  V30 2 C 1.856054 -1.572808 1.344720 0 CFG=2
M  V30 3 O 2.343938 -0.434328 0.653414 0
M  V30 4 C 1.801062 0.686014 1.195598 0 CFG=2
M  V30 5 C 1.520099 0.386009 2.612889 0
M  V30 6 C 1.420246 -1.111006 2.668041 0 CFG=1
M  V30 7 O 0.062971 -1.418526 2.917057 0
M  V30 8 C 2.218571 -1.604266 3.835902 0
M  V30 9 O 1.741838 -0.937287 4.978722 0
M  V30 10 N 0.612325 1.119573 0.427557 0
M  V30 11 C 0.157170 2.333677 0.091137 0
M  V30 12 C 0.731785 3.522202 0.423636 0
M  V30 13 C 0.144521 4.706651 0.002234 0
M  V30 14 C -1.026994 4.628687 -0.755401 0
M  V30 15 C -1.529170 3.379563 -1.038818 0
M  V30 16 C -0.992497 2.192878 -0.650171 0
M  V30 17 C -1.215024 0.868381 -0.749204 0
M  V30 18 C -2.210632 0.178303 -1.368582 0
M  V30 19 C -2.202843 -1.194933 -1.312431 0
M  V30 20 C -1.213171 -1.886338 -0.645307 0
M  V30 21 C -0.939644 -3.211097 -0.402983 0
M  V30 22 C -1.614441 -4.335393 -0.782988 0
M  V30 23 C -1.126900 -5.582928 -0.394155 0
M  V30 24 C 0.032636 -5.606522 0.367621 0
M  V30 25 C 0.658589 -4.447803 0.713753 0
M  V30 26 C 0.214214 -3.216870 0.353371 0
M  V30 27 N 0.690555 -2.008751 0.605741 0
M  V30 28 C -0.221119 -1.203935 -0.028736 0
M  V30 29 C -0.238854 0.185293 -0.092271 0
M  V30 30 C -3.363911 -1.794359 -2.042626 0
M  V30 31 N -4.060672 -0.605043 -2.538241 0
M  V30 32 C -3.368580 0.555689 -2.132983 0
M  V30 33 O -3.862122 1.612322 -2.492154 0
M  V30 34 H 3.135418 -3.152219 2.208983 0
M  V30 35 H 3.992913 -1.927604 1.315223 0
M  V30 36 H 3.075482 -3.072748 0.369849 0
M  V30 37 H 2.559864 1.518126 1.128665 0
M  V30 38 H 0.590221 0.885079 2.975642 0
M  V30 39 H 2.407600 0.748209 3.220128 0
M  V30 40 H -0.384528 -0.645962 3.341880 0
M  V30 41 H 2.100184 -2.679563 4.055139 0
M  V30 42 H 3.288895 -1.323673 3.762122 0
M  V30 43 H 0.994533 -0.342539 4.814086 0
M  V30 44 H 1.631327 3.589793 1.005169 0
M  V30 45 H 0.608260 5.643180 0.271346 0
M  V30 46 H -1.484809 5.552621 -1.083934 0
M  V30 47 H -2.418991 3.403841 -1.617045 0
M  V30 48 H -2.521522 -4.271545 -1.381186 0
M  V30 49 H -1.634448 -6.500146 -0.676229 0
M  V30 50 H 0.404804 -6.567645 0.665116 0
M  V30 51 H 1.528235 -4.538020 1.301858 0
M  V30 52 H -3.036737 -2.400008 -2.911190 0
M  V30 53 H -4.054091 -2.311845 -1.358396 0
M  V30 54 H -4.923465 -0.791472 -3.090292 0
M  V30 END ATOM
M  V30 BEGIN BOND
M  V30 1 1 2 1 CFG=1
M  V30 2 1 2 3
M  V30 3 1 3 4
M  V30 4 1 4 5
M  V30 5 1 5 6
M  V30 6 1 6 7 CFG=1
M  V30 7 1 6 8
M  V30 8 1 8 9
M  V30 9 1 4 10
M  V30 10 1 10 11
M  V30 11 2 11 12
M  V30 12 1 12 13
M  V30 13 2 13 14
M  V30 14 1 14 15
M  V30 15 2 15 16
M  V30 16 1 16 17
M  V30 17 2 17 18
M  V30 18 1 18 19
M  V30 19 2 19 20
M  V30 20 1 20 21
M  V30 21 2 21 22
M  V30 22 1 22 23
M  V30 23 2 23 24
M  V30 24 1 24 25
M  V30 25 2 25 26
M  V30 26 1 26 27
M  V30 27 1 27 28
M  V30 28 2 28 29
M  V30 29 1 19 30
M  V30 30 1 30 31
M  V30 31 1 31 32
M  V30 32 2 32 33
M  V30 33 1 6 2
M  V30 34 1 29 10
M  V30 35 1 27 2
M  V30 36 1 16 11
M  V30 37 1 29 17
M  V30 38 1 32 18
M  V30 39 1 28 20
M  V30 40 1 26 21
M  V30 41 1 1 34
M  V30 42 1 1 35
M  V30 43 1 1 36
M  V30 44 1 4 37 CFG=1
M  V30 45 1 5 38
M  V30 46 1 5 39
M  V30 47 1 7 40
M  V30 48 1 8 41
M  V30 49 1 8 42
M  V30 50 1 9 43
M  V30 51 1 12 44
M  V30 52 1 13 45
M  V30 53 1 14 46
M  V30 54 1 15 47
M  V30 55 1 22 48
M  V30 56 1 23 49
M  V30 57 1 24 50
M  V30 58 1 25 51
M  V30 59 1 30 52
M  V30 60 1 30 53
M  V30 61 1 31 54
M  V30 END BOND
M  V30 END CTAB
M  END
>  <Dataset>  (14) 
ChEMBL_Kinases

>  <Ligand_Instance>  (14) 
nan

>  <PDB_ID>  (14) 
nan

>  <Standardized_SMILES>  (14) 
C[C@]12O[C@H](C[C@]1(O)CO)n1c3ccccc3c3c4c(c5c6ccccc6n2c5c31)CNC4=O

>  <Name>  (14) 
LESTAURTINIB

>  <Pocket>  (14) 
nan

>  <ATP_Site>  (14) 
nan

>  <Peripheral>  (14) 
nan

>  <Num_H_Atoms_ProtBoundConf>  (14) 
nan

>  <Num_Resolved_Atoms>  (14) 
nan

>  <Num_Not_Resolved_Atoms>  (14) 
nan

$$$$
CHEMBL281948
     RDKit          3D

  0  0  0  0  0  0  0  0  0  0999 V3000
M  V30 BEGIN CTAB
M  V30 COUNTS 56 63 0 0 0
M  V30 BEGIN ATOM
M  V30 1 C 3.527261 -2.085875 4.491359 0
M  V30 2 O 2.776681 -1.618369 3.400545 0
M  V30 3 C 2.975156 -0.398188 2.770956 0
M  V30 4 O 3.930256 0.237702 3.318176 0
M  V30 5 C 2.079488 -0.048575 1.610791 0 CFG=1
M  V30 6 O 2.413517 1.183090 1.075966 0
M  V30 7 C 2.225946 -1.209241 0.691699 0
M  V30 8 C 1.157237 -2.134676 1.247335 0 CFG=1
M  V30 9 O 0.466513 -1.481454 2.214373 0
M  V30 10 C 0.656172 -0.090795 2.115305 0 CFG=1
M  V30 11 C 0.703396 0.506814 3.503376 0
M  V30 12 N -0.312758 0.501163 1.233926 0
M  V30 13 C -0.953170 1.676010 1.189183 0
M  V30 14 C -0.806444 2.756551 2.024529 0
M  V30 15 C -1.554827 3.890135 1.811496 0
M  V30 16 C -2.466314 4.011397 0.783751 0
M  V30 17 C -2.606006 2.923011 -0.049538 0
M  V30 18 C -1.858368 1.790614 0.163498 0
M  V30 19 C -1.786933 0.591382 -0.503127 0
M  V30 20 C -2.432944 0.085556 -1.612419 0
M  V30 21 C -2.163913 -1.175077 -2.089599 0
M  V30 22 C -1.239095 -1.927469 -1.446002 0
M  V30 23 C -0.766003 -3.177492 -1.699267 0
M  V30 24 C -0.939400 -4.201122 -2.579371 0
M  V30 25 C -0.275828 -5.406135 -2.575439 0
M  V30 26 C 0.676559 -5.613835 -1.570340 0
M  V30 27 C 0.895534 -4.610769 -0.649095 0
M  V30 28 C 0.179297 -3.427352 -0.730331 0
M  V30 29 N 0.285578 -2.389404 0.078943 0
M  V30 30 C -0.594946 -1.427348 -0.341619 0
M  V30 31 C -0.849978 -0.160831 0.161132 0
M  V30 32 C -2.994087 -1.381695 -3.229206 0
M  V30 33 O -3.170345 -2.306245 -4.032611 0
M  V30 34 N -3.781977 -0.240511 -3.458153 0
M  V30 35 C -3.481439 0.772120 -2.450479 0
M  V30 36 H 3.354317 -3.200941 4.522534 0
M  V30 37 H 4.617239 -1.966595 4.319519 0
M  V30 38 H 3.180341 -1.708031 5.468791 0
M  V30 39 H 3.375889 1.185344 0.924089 0
M  V30 40 H 2.068142 -0.874275 -0.327460 0
M  V30 41 H 3.238950 -1.655028 0.733744 0
M  V30 42 H 1.665987 -3.044890 1.551638 0
M  V30 43 H 1.063050 -0.295258 4.249630 0
M  V30 44 H 1.484697 1.263008 3.655046 0
M  V30 45 H -0.291618 0.719032 3.936193 0
M  V30 46 H -0.099622 2.714630 2.828431 0
M  V30 47 H -1.396108 4.720854 2.510120 0
M  V30 48 H -3.022596 4.926213 0.669808 0
M  V30 49 H -3.304991 2.960555 -0.872016 0
M  V30 50 H -1.646065 -4.106459 -3.364043 0
M  V30 51 H -0.441986 -6.194786 -3.292557 0
M  V30 52 H 1.249002 -6.526512 -1.483637 0
M  V30 53 H 1.628435 -4.765552 0.127599 0
M  V30 54 H -4.492361 0.043997 -4.137777 0
M  V30 55 H -3.112616 1.689690 -2.916417 0
M  V30 56 H -4.408396 0.896054 -1.850136 0
M  V30 END ATOM
M  V30 BEGIN BOND
M  V30 1 1 1 2
M  V30 2 1 2 3
M  V30 3 2 3 4
M  V30 4 1 3 5
M  V30 5 1 5 6 CFG=3
M  V30 6 1 5 7
M  V30 7 1 7 8
M  V30 8 1 8 9
M  V30 9 1 9 10
M  V30 10 1 10 11 CFG=1
M  V30 11 1 10 12
M  V30 12 1 12 13
M  V30 13 2 13 14
M  V30 14 1 14 15
M  V30 15 2 15 16
M  V30 16 1 16 17
M  V30 17 2 17 18
M  V30 18 1 18 19
M  V30 19 2 19 20
M  V30 20 1 20 21
M  V30 21 2 21 22
M  V30 22 1 22 23
M  V30 23 2 23 24
M  V30 24 1 24 25
M  V30 25 2 25 26
M  V30 26 1 26 27
M  V30 27 2 27 28
M  V30 28 1 28 29
M  V30 29 1 29 30
M  V30 30 2 30 31
M  V30 31 1 21 32
M  V30 32 2 32 33
M  V30 33 1 32 34
M  V30 34 1 34 35
M  V30 35 1 10 5
M  V30 36 1 31 12
M  V30 37 1 29 8
M  V30 38 1 18 13
M  V30 39 1 31 19
M  V30 40 1 35 20
M  V30 41 1 30 22
M  V30 42 1 28 23
M  V30 43 1 1 36
M  V30 44 1 1 37
M  V30 45 1 1 38
M  V30 46 1 6 39
M  V30 47 1 7 40
M  V30 48 1 7 41
M  V30 49 1 8 42 CFG=1
M  V30 50 1 11 43
M  V30 51 1 11 44
M  V30 52 1 11 45
M  V30 53 1 14 46
M  V30 54 1 15 47
M  V30 55 1 16 48
M  V30 56 1 17 49
M  V30 57 1 24 50
M  V30 58 1 25 51
M  V30 59 1 26 52
M  V30 60 1 27 53
M  V30 61 1 34 54
M  V30 62 1 35 55
M  V30 63 1 35 56
M  V30 END BOND
M  V30 END CTAB
M  END
>  <Dataset>  (15) 
ChEMBL_Kinases

>  <Ligand_Instance>  (15) 
nan

>  <PDB_ID>  (15) 
nan

>  <Standardized_SMILES>  (15) 
COC(=O)[C@@]1(O)C[C@H]2O[C@]1(C)n1c3ccccc3c3c4c(c5c6ccccc6n2c5c31)C(=O)NC4

>  <Name>  (15) 
K-252A

>  <Pocket>  (15) 
nan

>  <ATP_Site>  (15) 
nan

>  <Peripheral>  (15) 
nan

>  <Num_H_Atoms_ProtBoundConf>  (15) 
nan

>  <Num_Resolved_Atoms>  (15) 
nan

>  <Num_Not_Resolved_Atoms>  (15) 
nan

$$$$
CHEMBL572878
     RDKit          3D

  0  0  0  0  0  0  0  0  0  0999 V3000
M  V30 BEGIN CTAB
M  V30 COUNTS 61 65 0 0 0
M  V30 BEGIN ATOM
M  V30 1 C 5.306687 -3.520302 2.872459 0
M  V30 2 C 4.026769 -2.920596 3.331886 0
M  V30 3 C 3.749578 -1.574487 3.396622 0
M  V30 4 C 2.467760 -1.429210 3.869508 0
M  V30 5 N 1.624582 -0.318327 4.152140 0
M  V30 6 C 0.691307 0.407115 3.354369 0
M  V30 7 C 1.035104 1.515337 2.607466 0
M  V30 8 C 0.014833 2.099770 1.892620 0
M  V30 9 N 0.255727 3.243645 1.092734 0
M  V30 10 C 1.501971 3.953962 0.909495 0
M  V30 11 C 1.962070 3.732497 -0.512797 0
M  V30 12 N 0.875656 3.220036 -1.281730 0
M  V30 13 C 1.204337 2.887138 -2.631079 0
M  V30 14 C -0.317851 3.985304 -1.126391 0
M  V30 15 C -0.784093 3.881420 0.309927 0
M  V30 16 N -1.226295 1.621439 1.923062 0
M  V30 17 C -1.561585 0.527922 2.661051 0
M  V30 18 S -3.238688 -0.081532 2.675562 0
M  V30 19 C -3.516078 -1.273340 1.385365 0
M  V30 20 C -3.943932 -1.062569 0.091440 0
M  V30 21 C -4.095746 -2.138005 -0.759325 0
M  V30 22 C -3.826390 -3.429402 -0.338759 0
M  V30 23 N -4.012960 -4.489706 -1.296758 0
M  V30 24 C -2.798979 -4.684424 -1.991623 0
M  V30 25 O -1.793861 -3.977517 -1.718786 0
M  V30 26 C -2.621472 -5.713683 -3.071027 0
M  V30 27 C -1.521961 -5.422001 -4.101907 0
M  V30 28 C -1.224912 -6.414400 -3.030625 0
M  V30 29 C -3.402403 -3.653238 0.938535 0
M  V30 30 C -3.243433 -2.575971 1.812451 0
M  V30 31 N -0.573031 -0.049201 3.361927 0
M  V30 32 N 2.006412 -2.687719 4.077080 0
M  V30 33 N 2.936283 -3.585018 3.756642 0
M  V30 34 H 5.809710 -4.015858 3.729718 0
M  V30 35 H 5.941792 -2.735324 2.409865 0
M  V30 36 H 5.070045 -4.244236 2.052491 0
M  V30 37 H 4.342593 -0.728082 3.151852 0
M  V30 38 H 1.739732 -0.005438 5.137445 0
M  V30 39 H 2.038414 1.865773 2.610099 0
M  V30 40 H 1.337856 5.051698 1.108259 0
M  V30 41 H 2.296957 3.613386 1.607017 0
M  V30 42 H 2.876927 3.115331 -0.565313 0
M  V30 43 H 2.283264 4.738895 -0.904409 0
M  V30 44 H 0.254503 2.498435 -3.100564 0
M  V30 45 H 1.634599 3.716271 -3.225211 0
M  V30 46 H 1.875273 1.997978 -2.615141 0
M  V30 47 H -0.215635 5.044333 -1.420815 0
M  V30 48 H -1.111861 3.498906 -1.753518 0
M  V30 49 H -1.751128 3.348316 0.405706 0
M  V30 50 H -0.857760 4.923926 0.736177 0
M  V30 51 H -4.123291 -0.018776 -0.125887 0
M  V30 52 H -4.436803 -1.902203 -1.767847 0
M  V30 53 H -4.848113 -5.091786 -1.537312 0
M  V30 54 H -3.456208 -6.359696 -3.355644 0
M  V30 55 H -1.006611 -4.434176 -4.021747 0
M  V30 56 H -1.643014 -5.830158 -5.111971 0
M  V30 57 H -0.544511 -6.102621 -2.226857 0
M  V30 58 H -1.206765 -7.495358 -3.246919 0
M  V30 59 H -3.200447 -4.683295 1.232973 0
M  V30 60 H -2.904189 -2.878593 2.792531 0
M  V30 61 H 2.821453 -4.623200 3.828914 0
M  V30 END ATOM
M  V30 BEGIN BOND
M  V30 1 1 1 2
M  V30 2 2 2 3
M  V30 3 1 3 4
M  V30 4 1 4 5
M  V30 5 1 5 6
M  V30 6 2 6 7
M  V30 7 1 7 8
M  V30 8 1 8 9
M  V30 9 1 9 10
M  V30 10 1 10 11
M  V30 11 1 11 12
M  V30 12 1 12 13
M  V30 13 1 12 14
M  V30 14 1 14 15
M  V30 15 2 8 16
M  V30 16 1 16 17
M  V30 17 1 17 18
M  V30 18 1 18 19
M  V30 19 2 19 20
M  V30 20 1 20 21
M  V30 21 2 21 22
M  V30 22 1 22 23
M  V30 23 1 23 24
M  V30 24 2 24 25
M  V30 25 1 24 26
M  V30 26 1 26 27
M  V30 27 1 27 28
M  V30 28 1 22 29
M  V30 29 2 29 30
M  V30 30 2 17 31
M  V30 31 2 4 32
M  V30 32 1 32 33
M  V30 33 1 33 2
M  V30 34 1 31 6
M  V30 35 1 15 9
M  V30 36 1 30 19
M  V30 37 1 28 26
M  V30 38 1 1 34
M  V30 39 1 1 35
M  V30 40 1 1 36
M  V30 41 1 3 37
M  V30 42 1 5 38
M  V30 43 1 7 39
M  V30 44 1 10 40
M  V30 45 1 10 41
M  V30 46 1 11 42
M  V30 47 1 11 43
M  V30 48 1 13 44
M  V30 49 1 13 45
M  V30 50 1 13 46
M  V30 51 1 14 47
M  V30 52 1 14 48
M  V30 53 1 15 49
M  V30 54 1 15 50
M  V30 55 1 20 51
M  V30 56 1 21 52
M  V30 57 1 23 53
M  V30 58 1 26 54
M  V30 59 1 27 55
M  V30 60 1 27 56
M  V30 61 1 28 57
M  V30 62 1 28 58
M  V30 63 1 29 59
M  V30 64 1 30 60
M  V30 65 1 33 61
M  V30 END BOND
M  V30 END CTAB
M  END
>  <Dataset>  (16) 
ChEMBL_Kinases

>  <Ligand_Instance>  (16) 
nan

>  <PDB_ID>  (16) 
nan

>  <Standardized_SMILES>  (16) 
Cc1cc(Nc2cc(N3CCN(C)CC3)nc(Sc3ccc(NC(=O)C4CC4)cc3)n2)n[nH]1

>  <Name>  (16) 
TOZASERTIB

>  <Pocket>  (16) 
nan

>  <ATP_Site>  (16) 
nan

>  <Peripheral>  (16) 
nan

>  <Num_H_Atoms_ProtBoundConf>  (16) 
nan

>  <Num_Resolved_Atoms>  (16) 
nan

>  <Num_Not_Resolved_Atoms>  (16) 
nan

$$$$
CHEMBL3128043
     RDKit          3D

  0  0  0  0  0  0  0  0  0  0999 V3000
M  V30 BEGIN CTAB
M  V30 COUNTS 65 69 0 0 0
M  V30 BEGIN ATOM
M  V30 1 C 0.460926 3.573924 5.990151 0
M  V30 2 C 1.345655 3.551666 4.776087 0
M  V30 3 N 2.165181 2.478981 4.735880 0
M  V30 4 C 2.977193 2.444620 3.634720 0
M  V30 5 N 3.926336 1.422844 3.368317 0
M  V30 6 C 3.722309 0.215903 2.687002 0
M  V30 7 N 4.705054 -0.688626 2.479829 0
M  V30 8 N 4.196429 -1.699134 1.823580 0
M  V30 9 C 2.894363 -1.473409 1.595834 0
M  V30 10 C 2.547464 -0.243084 2.139143 0
M  V30 11 C 1.119090 0.019771 1.896461 0
M  V30 12 N 0.675342 -1.088947 1.056009 0
M  V30 13 C -0.611971 -1.087950 0.452564 0
M  V30 14 O -0.846349 0.019025 0.966245 0
M  V30 15 N -1.098080 -2.144078 -0.370645 0
M  V30 16 C -2.426133 -2.105267 -0.974026 0 CFG=2
M  V30 17 C -3.348982 -3.108034 -0.397955 0
M  V30 18 N -4.661331 -3.152344 -0.908226 0
M  V30 19 C -4.868729 -3.626951 -2.230025 0
M  V30 20 C -5.491191 -2.001679 -0.656341 0
M  V30 21 C -2.348766 -2.032014 -2.443043 0
M  V30 22 C -3.036193 -1.229524 -3.333262 0
M  V30 23 C -2.809814 -1.303730 -4.682568 0
M  V30 24 C -1.881372 -2.189501 -5.193381 0
M  V30 25 C -1.182703 -3.001062 -4.326004 0
M  V30 26 C -1.419575 -2.919313 -2.948413 0
M  V30 27 C 1.720807 -2.116219 0.956503 0
M  V30 28 C 1.299216 -3.352042 1.689731 0
M  V30 29 C 2.097218 -2.383072 -0.491888 0
M  V30 30 C 2.912810 3.445114 2.692333 0
M  V30 31 S 3.823510 3.652184 1.204615 0
M  V30 32 C 2.943991 5.269437 0.767533 0
M  V30 33 C 2.021969 5.490103 1.829786 0
M  V30 34 C 2.076959 4.513471 2.759941 0
M  V30 35 N 1.274349 4.529798 3.866374 0
M  V30 36 H -0.468205 2.985675 5.828846 0
M  V30 37 H 0.963451 3.139095 6.859996 0
M  V30 38 H 0.226149 4.638817 6.215312 0
M  V30 39 H 4.817611 1.723691 3.770680 0
M  V30 40 H 4.773207 -2.535349 1.543548 0
M  V30 41 H 0.954647 0.957307 1.293910 0
M  V30 42 H 0.560342 0.068407 2.846705 0
M  V30 43 H -0.408576 -2.926899 -0.485743 0
M  V30 44 H -2.830038 -1.096899 -0.648216 0
M  V30 45 H -3.423488 -2.888990 0.697205 0
M  V30 46 H -2.952246 -4.158455 -0.449710 0
M  V30 47 H -4.012303 -4.106304 -2.710045 0
M  V30 48 H -5.634610 -4.470559 -2.137761 0
M  V30 49 H -5.337254 -2.859710 -2.910105 0
M  V30 50 H -6.468248 -2.407952 -0.279771 0
M  V30 51 H -5.114163 -1.379760 0.178838 0
M  V30 52 H -5.744400 -1.421284 -1.568348 0
M  V30 53 H -3.743602 -0.569369 -2.814187 0
M  V30 54 H -3.417486 -0.617276 -5.265211 0
M  V30 55 H -1.753753 -2.193583 -6.280541 0
M  V30 56 H -0.464074 -3.679496 -4.786574 0
M  V30 57 H -0.801995 -3.610443 -2.408885 0
M  V30 58 H 1.646818 -4.227309 1.072454 0
M  V30 59 H 0.207485 -3.399049 1.860217 0
M  V30 60 H 1.821562 -3.374822 2.656229 0
M  V30 61 H 3.173035 -2.214498 -0.677602 0
M  V30 62 H 1.541614 -1.674217 -1.103802 0
M  V30 63 H 1.916754 -3.452760 -0.716440 0
M  V30 64 H 3.003475 6.089565 -0.160588 0
M  V30 65 H 1.412243 6.373754 1.771516 0
M  V30 END ATOM
M  V30 BEGIN BOND
M  V30 1 1 1 2
M  V30 2 2 2 3
M  V30 3 1 3 4
M  V30 4 1 4 5
M  V30 5 1 5 6
M  V30 6 2 6 7
M  V30 7 1 7 8
M  V30 8 1 8 9
M  V30 9 2 9 10
M  V30 10 1 10 11
M  V30 11 1 11 12
M  V30 12 1 12 13
M  V30 13 2 13 14
M  V30 14 1 13 15
M  V30 15 1 15 16
M  V30 16 1 16 17
M  V30 17 1 17 18
M  V30 18 1 18 19
M  V30 19 1 18 20
M  V30 20 1 16 21
M  V30 21 2 21 22
M  V30 22 1 22 23
M  V30 23 2 23 24
M  V30 24 1 24 25
M  V30 25 2 25 26
M  V30 26 1 12 27
M  V30 27 1 27 28
M  V30 28 1 27 29
M  V30 29 2 4 30
M  V30 30 1 30 31
M  V30 31 1 31 32
M  V30 32 2 32 33
M  V30 33 1 33 34
M  V30 34 2 34 35
M  V30 35 1 35 2
M  V30 36 1 10 6
M  V30 37 1 26 21
M  V30 38 1 34 30
M  V30 39 1 27 9
M  V30 40 1 1 36
M  V30 41 1 1 37
M  V30 42 1 1 38
M  V30 43 1 5 39
M  V30 44 1 8 40
M  V30 45 1 11 41
M  V30 46 1 11 42
M  V30 47 1 15 43
M  V30 48 1 16 44 CFG=1
M  V30 49 1 17 45
M  V30 50 1 17 46
M  V30 51 1 19 47
M  V30 52 1 19 48
M  V30 53 1 19 49
M  V30 54 1 20 50
M  V30 55 1 20 51
M  V30 56 1 20 52
M  V30 57 1 22 53
M  V30 58 1 23 54
M  V30 59 1 24 55
M  V30 60 1 25 56
M  V30 61 1 26 57
M  V30 62 1 28 58
M  V30 63 1 28 59
M  V30 64 1 28 60
M  V30 65 1 29 61
M  V30 66 1 29 62
M  V30 67 1 29 63
M  V30 68 1 32 64
M  V30 69 1 33 65
M  V30 END BOND
M  V30 END CTAB
M  END
>  <Dataset>  (17) 
ChEMBL_Kinases

>  <Ligand_Instance>  (17) 
nan

>  <PDB_ID>  (17) 
nan

>  <Standardized_SMILES>  (17) 
Cc1nc(Nc2n[nH]c3c2CN(C(=O)N[C@H](CN(C)C)c2ccccc2)C3(C)C)c2sccc2n1

>  <Name>  (17) 
PF-03758309

>  <Pocket>  (17) 
nan

>  <ATP_Site>  (17) 
nan

>  <Peripheral>  (17) 
nan

>  <Num_H_Atoms_ProtBoundConf>  (17) 
nan

>  <Num_Resolved_Atoms>  (17) 
nan

>  <Num_Not_Resolved_Atoms>  (17) 
nan

$$$$
CHEMBL607707
     RDKit          3D

  0  0  0  0  0  0  0  0  0  0999 V3000
M  V30 BEGIN CTAB
M  V30 COUNTS 56 58 0 0 0
M  V30 BEGIN ATOM
M  V30 1 C 2.628663 -4.175147 3.265608 0
M  V30 2 C 1.356721 -3.582430 3.815161 0
M  V30 3 O 0.722097 -2.700933 2.904589 0
M  V30 4 C 1.340898 -1.560997 2.425362 0
M  V30 5 C 2.590122 -1.028294 2.668272 0
M  V30 6 C 2.955741 0.145493 2.042853 0
M  V30 7 N 4.171673 0.593829 2.327257 0
M  V30 8 C 4.675477 1.741020 1.787223 0
M  V30 9 C 3.836042 2.413320 0.919057 0
M  V30 10 C 4.268277 3.641650 0.288687 0
M  V30 11 N 4.611374 4.631083 -0.226618 0
M  V30 12 C 2.565286 1.984963 0.594326 0
M  V30 13 N 1.704671 2.679020 -0.299022 0
M  V30 14 C 0.766299 3.690459 0.040217 0
M  V30 15 C 0.671309 4.043554 1.369316 0
M  V30 16 C -0.257484 5.033143 1.645600 0
M  V30 17 C -1.033934 5.623925 0.655227 0
M  V30 18 F -1.934389 6.582245 0.917583 0
M  V30 19 C -0.874265 5.206697 -0.668420 0
M  V30 20 Cl -1.815963 5.902235 -1.977816 0
M  V30 21 C 0.048107 4.211860 -1.005224 0
M  V30 22 C 2.114685 0.813312 1.176966 0
M  V30 23 C 0.881524 0.298902 0.929396 0
M  V30 24 C 0.479177 -0.890732 1.547781 0
M  V30 25 N -0.842425 -1.290192 1.178516 0
M  V30 26 C -1.005923 -2.132908 0.049050 0
M  V30 27 O -0.014065 -2.528548 -0.623903 0
M  V30 28 C -2.348312 -2.558060 -0.352537 0
M  V30 29 C -2.522097 -3.343942 -1.402968 0
M  V30 30 C -3.858925 -3.774551 -1.812759 0
M  V30 31 N -4.060485 -5.203127 -1.810496 0
M  V30 32 C -5.437011 -5.486466 -2.239976 0
M  V30 33 C -3.222276 -5.822850 -2.844363 0
M  V30 34 H 2.870981 -3.738856 2.254963 0
M  V30 35 H 3.456714 -3.930577 3.935320 0
M  V30 36 H 2.603229 -5.284530 3.195339 0
M  V30 37 H 1.583970 -2.986962 4.707179 0
M  V30 38 H 0.698731 -4.451308 4.059156 0
M  V30 39 H 3.150581 -1.625926 3.350616 0
M  V30 40 H 5.674435 2.117361 2.015408 0
M  V30 41 H 1.881645 2.315356 -1.254647 0
M  V30 42 H 1.255019 3.605798 2.146802 0
M  V30 43 H -0.433068 5.403688 2.645344 0
M  V30 44 H 0.176577 3.886031 -2.019247 0
M  V30 45 H 0.260024 0.856524 0.245668 0
M  V30 46 H -1.661304 -0.945454 1.758835 0
M  V30 47 H -3.211174 -2.229826 0.211095 0
M  V30 48 H -1.689460 -3.697525 -1.997186 0
M  V30 49 H -4.679059 -3.328712 -1.223092 0
M  V30 50 H -4.009311 -3.411973 -2.862550 0
M  V30 51 H -6.043506 -5.616999 -1.318116 0
M  V30 52 H -5.480616 -6.406998 -2.851993 0
M  V30 53 H -5.855761 -4.647319 -2.818300 0
M  V30 54 H -2.187073 -5.948237 -2.493634 0
M  V30 55 H -3.221299 -5.125891 -3.700762 0
M  V30 56 H -3.677361 -6.771060 -3.147295 0
M  V30 END ATOM
M  V30 BEGIN BOND
M  V30 1 1 1 2
M  V30 2 1 2 3
M  V30 3 1 3 4
M  V30 4 2 4 5
M  V30 5 1 5 6
M  V30 6 2 6 7
M  V30 7 1 7 8
M  V30 8 2 8 9
M  V30 9 1 9 10
M  V30 10 3 10 11
M  V30 11 1 9 12
M  V30 12 1 12 13
M  V30 13 1 13 14
M  V30 14 2 14 15
M  V30 15 1 15 16
M  V30 16 2 16 17
M  V30 17 1 17 18
M  V30 18 1 17 19
M  V30 19 1 19 20
M  V30 20 2 19 21
M  V30 21 2 12 22
M  V30 22 1 22 23
M  V30 23 2 23 24
M  V30 24 1 24 25
M  V30 25 1 25 26
M  V30 26 2 26 27
M  V30 27 1 26 28
M  V30 28 2 28 29
M  V30 29 1 29 30
M  V30 30 1 30 31
M  V30 31 1 31 32
M  V30 32 1 31 33
M  V30 33 1 24 4
M  V30 34 1 22 6
M  V30 35 1 21 14
M  V30 36 1 1 34
M  V30 37 1 1 35
M  V30 38 1 1 36
M  V30 39 1 2 37
M  V30 40 1 2 38
M  V30 41 1 5 39
M  V30 42 1 8 40
M  V30 43 1 13 41
M  V30 44 1 15 42
M  V30 45 1 16 43
M  V30 46 1 21 44
M  V30 47 1 23 45
M  V30 48 1 25 46
M  V30 49 1 28 47
M  V30 50 1 29 48
M  V30 51 1 30 49
M  V30 52 1 30 50
M  V30 53 1 32 51
M  V30 54 1 32 52
M  V30 55 1 32 53
M  V30 56 1 33 54
M  V30 57 1 33 55
M  V30 58 1 33 56
M  V30 END BOND
M  V30 END CTAB
M  END
>  <Dataset>  (18) 
ChEMBL_Kinases

>  <Ligand_Instance>  (18) 
nan

>  <PDB_ID>  (18) 
nan

>  <Standardized_SMILES>  (18) 
CCOc1cc2ncc(C#N)c(Nc3ccc(F)c(Cl)c3)c2cc1NC(=O)/C=C/CN(C)C

>  <Name>  (18) 
PELITINIB

>  <Pocket>  (18) 
nan

>  <ATP_Site>  (18) 
nan

>  <Peripheral>  (18) 
nan

>  <Num_H_Atoms_ProtBoundConf>  (18) 
nan

>  <Num_Resolved_Atoms>  (18) 
nan

>  <Num_Not_Resolved_Atoms>  (18) 
nan

$$$$
CHEMBL3884319
     RDKit          3D

  0  0  0  0  0  0  0  0  0  0999 V3000
M  V30 BEGIN CTAB
M  V30 COUNTS 51 55 0 0 0
M  V30 BEGIN ATOM
M  V30 1 C 0.163686 -2.543675 4.670201 0
M  V30 2 C 0.938520 -2.460998 3.384732 0
M  V30 3 C 2.185904 -3.293554 3.428708 0
M  V30 4 C 1.177367 -1.044496 3.072207 0
M  V30 5 O 1.904768 -0.305926 3.781571 0
M  V30 6 N 0.501725 -0.612777 1.894008 0
M  V30 7 C 0.465881 0.664368 1.248628 0 CFG=1
M  V30 8 C -0.044660 1.783235 2.109892 0
M  V30 9 C 0.284922 2.962399 1.185428 0
M  V30 10 C 1.669756 2.566465 0.767742 0
M  V30 11 C 2.767842 3.315273 0.380819 0
M  V30 12 O 2.669140 4.698184 0.339539 0
M  V30 13 C 3.962310 2.714071 0.034184 0
M  V30 14 C 4.088835 1.337457 0.066324 0
M  V30 15 C 2.986221 0.578804 0.455198 0
M  V30 16 C 1.774451 1.175676 0.807537 0
M  V30 17 C -0.185913 -1.800808 1.451207 0
M  V30 18 N -0.978087 -1.974240 0.385741 0
M  V30 19 C -1.588185 -3.101624 0.027047 0
M  V30 20 N -2.427116 -3.295942 -1.096420 0
M  V30 21 C -2.793122 -2.338994 -2.071269 0
M  V30 22 C -2.398655 -1.028217 -2.111352 0
M  V30 23 C -2.767285 -0.112142 -3.070915 0
M  V30 24 C -3.602455 -0.523915 -4.086644 0
M  V30 25 C -4.027569 -1.819363 -4.098007 0
M  V30 26 C -3.623863 -2.688123 -3.109768 0
M  V30 27 N -1.345331 -4.128428 0.855607 0
M  V30 28 C -0.569437 -4.041105 1.937540 0
M  V30 29 C 0.038940 -2.872241 2.274463 0
M  V30 30 H -0.226133 -3.560135 4.841583 0
M  V30 31 H -0.728634 -1.889088 4.563074 0
M  V30 32 H 0.737143 -2.163364 5.539084 0
M  V30 33 H 1.915637 -4.303249 3.025295 0
M  V30 34 H 2.970042 -2.824798 2.817862 0
M  V30 35 H 2.450655 -3.454910 4.487488 0
M  V30 36 H -0.177318 0.644002 0.327440 0
M  V30 37 H 0.617805 1.911257 3.000988 0
M  V30 38 H -1.109155 1.736170 2.350190 0
M  V30 39 H 0.251669 3.926499 1.714090 0
M  V30 40 H -0.389431 2.859436 0.331915 0
M  V30 41 H 1.936568 5.207967 0.798440 0
M  V30 42 H 4.842734 3.269903 -0.273708 0
M  V30 43 H 4.980425 0.780530 -0.186741 0
M  V30 44 H 2.984386 -0.502232 0.512479 0
M  V30 45 H -2.828574 -4.263652 -1.227041 0
M  V30 46 H -1.751444 -0.643474 -1.354809 0
M  V30 47 H -2.428814 0.908488 -3.056859 0
M  V30 48 H -3.906401 0.170712 -4.849569 0
M  V30 49 H -4.679908 -2.122673 -4.899916 0
M  V30 50 H -4.020232 -3.697837 -3.212626 0
M  V30 51 H -0.421911 -4.925623 2.562054 0
M  V30 END ATOM
M  V30 BEGIN BOND
M  V30 1 1 1 2
M  V30 2 1 2 3
M  V30 3 1 2 4
M  V30 4 2 4 5
M  V30 5 1 4 6
M  V30 6 1 6 7
M  V30 7 1 7 8
M  V30 8 1 8 9
M  V30 9 1 9 10
M  V30 10 2 10 11
M  V30 11 1 11 12
M  V30 12 1 11 13
M  V30 13 2 13 14
M  V30 14 1 14 15
M  V30 15 2 15 16
M  V30 16 1 6 17
M  V30 17 2 17 18
M  V30 18 1 18 19
M  V30 19 1 19 20
M  V30 20 1 20 21
M  V30 21 2 21 22
M  V30 22 1 22 23
M  V30 23 2 23 24
M  V30 24 1 24 25
M  V30 25 2 25 26
M  V30 26 2 19 27
M  V30 27 1 27 28
M  V30 28 2 28 29
M  V30 29 1 29 2
M  V30 30 1 16 7
M  V30 31 1 29 17
M  V30 32 1 16 10
M  V30 33 1 26 21
M  V30 34 1 1 30
M  V30 35 1 1 31
M  V30 36 1 1 32
M  V30 37 1 3 33
M  V30 38 1 3 34
M  V30 39 1 3 35
M  V30 40 1 7 36 CFG=3
M  V30 41 1 8 37
M  V30 42 1 8 38
M  V30 43 1 9 39
M  V30 44 1 9 40
M  V30 45 1 12 41
M  V30 46 1 13 42
M  V30 47 1 14 43
M  V30 48 1 15 44
M  V30 49 1 20 45
M  V30 50 1 22 46
M  V30 51 1 23 47
M  V30 52 1 24 48
M  V30 53 1 25 49
M  V30 54 1 26 50
M  V30 55 1 28 51
M  V30 END BOND
M  V30 END CTAB
M  END
>  <Dataset>  (19) 
ChEMBL_Kinases

>  <Ligand_Instance>  (19) 
nan

>  <PDB_ID>  (19) 
nan

>  <Standardized_SMILES>  (19) 
CC1(C)C(=O)N([C@H]2CCc3c(O)cccc32)c2nc(Nc3ccccc3)ncc21

>  <Name>  (19) 
nan

>  <Pocket>  (19) 
nan

>  <ATP_Site>  (19) 
nan

>  <Peripheral>  (19) 
nan

>  <Num_H_Atoms_ProtBoundConf>  (19) 
nan

>  <Num_Resolved_Atoms>  (19) 
nan

>  <Num_Not_Resolved_Atoms>  (19) 
nan

$$$$
CHEMBL482967
     RDKit          3D

  0  0  0  0  0  0  0  0  0  0999 V3000
M  V30 BEGIN CTAB
M  V30 COUNTS 46 49 0 0 0
M  V30 BEGIN ATOM
M  V30 1 C 0.859571 -3.722790 -4.751212 0
M  V30 2 C 1.752345 -2.738266 -4.082001 0
M  V30 3 N 3.059965 -2.699247 -4.184925 0
M  V30 4 C 3.852971 -2.032822 -3.753113 0
M  V30 5 N 5.294995 -1.967847 -3.849903 0
M  V30 6 S 2.717280 -0.894804 -2.762896 0
M  V30 7 C 1.233025 -1.782519 -3.294396 0
M  V30 8 C -0.096588 -1.335413 -2.816917 0
M  V30 9 C -1.334549 -1.862772 -3.082052 0
M  V30 10 C -2.545525 -1.418807 -2.624393 0
M  V30 11 N -2.484108 -0.328360 -1.816280 0
M  V30 12 C -1.306486 0.240706 -1.513641 0
M  V30 13 N -1.206292 1.385055 -0.671477 0
M  V30 14 C -1.079884 1.193968 0.726479 0
M  V30 15 C -0.959433 2.259521 1.594112 0
M  V30 16 C -0.837642 2.094717 2.957294 0
M  V30 17 C -0.829759 0.842577 3.531367 0
M  V30 18 N -0.706450 0.570686 4.922031 0
M  V30 19 C -0.763854 -0.734071 5.563617 0
M  V30 20 C 0.684486 -0.954100 6.026959 0
M  V30 21 O 0.929592 0.008017 7.004517 0
M  V30 22 C 0.894488 1.292582 6.523742 0
M  V30 23 C -0.493732 1.586726 5.937290 0
M  V30 24 C -0.950021 -0.221334 2.664821 0
M  V30 25 C -1.072125 -0.060059 1.299549 0
M  V30 26 N -0.181804 -0.265353 -2.008519 0
M  V30 27 H 0.151214 -3.190444 -5.451713 0
M  V30 28 H 1.416016 -4.404517 -5.440072 0
M  V30 29 H 0.312306 -4.349788 -4.045143 0
M  V30 30 H 5.782600 -1.358800 -4.558438 0
M  V30 31 H 6.012375 -2.468202 -3.285063 0
M  V30 32 H -1.327995 -2.724165 -3.724077 0
M  V30 33 H -3.436073 -1.934809 -2.917444 0
M  V30 34 H -1.221604 2.347888 -1.038813 0
M  V30 35 H -0.956935 3.277172 1.220864 0
M  V30 36 H -0.745840 2.952999 3.602255 0
M  V30 37 H -1.420333 -0.721247 6.469122 0
M  V30 38 H -1.128095 -1.530717 4.921646 0
M  V30 39 H 1.316788 -0.780707 5.132050 0
M  V30 40 H 0.808437 -1.946771 6.476346 0
M  V30 41 H 1.696223 1.435135 5.775359 0
M  V30 42 H 1.109474 1.973907 7.345811 0
M  V30 43 H -1.213813 1.445810 6.771278 0
M  V30 44 H -0.565209 2.616153 5.580360 0
M  V30 45 H -0.962440 -1.264519 2.931940 0
M  V30 46 H -1.169264 -0.876838 0.581579 0
M  V30 END ATOM
M  V30 BEGIN BOND
M  V30 1 1 1 2
M  V30 2 1 2 3
M  V30 3 2 3 4
M  V30 4 1 4 5
M  V30 5 1 4 6
M  V30 6 1 6 7
M  V30 7 1 7 8
M  V30 8 2 8 9
M  V30 9 1 9 10
M  V30 10 2 10 11
M  V30 11 1 11 12
M  V30 12 1 12 13
M  V30 13 1 13 14
M  V30 14 2 14 15
M  V30 15 1 15 16
M  V30 16 2 16 17
M  V30 17 1 17 18
M  V30 18 1 18 19
M  V30 19 1 19 20
M  V30 20 1 20 21
M  V30 21 1 21 22
M  V30 22 1 22 23
M  V30 23 1 17 24
M  V30 24 2 24 25
M  V30 25 2 12 26
M  V30 26 2 7 2
M  V30 27 1 26 8
M  V30 28 1 25 14
M  V30 29 1 23 18
M  V30 30 1 1 27
M  V30 31 1 1 28
M  V30 32 1 1 29
M  V30 33 1 5 30
M  V30 34 1 5 31
M  V30 35 1 9 32
M  V30 36 1 10 33
M  V30 37 1 13 34
M  V30 38 1 15 35
M  V30 39 1 16 36
M  V30 40 1 19 37
M  V30 41 1 19 38
M  V30 42 1 20 39
M  V30 43 1 20 40
M  V30 44 1 22 41
M  V30 45 1 22 42
M  V30 46 1 23 43
M  V30 47 1 23 44
M  V30 48 1 24 45
M  V30 49 1 25 46
M  V30 END BOND
M  V30 END CTAB
M  END
>  <Dataset>  (20) 
ChEMBL_Kinases

>  <Ligand_Instance>  (20) 
nan

>  <PDB_ID>  (20) 
nan

>  <Standardized_SMILES>  (20) 
Cc1nc(N)sc1-c1ccnc(Nc2ccc(N3CCOCC3)cc2)n1

>  <Name>  (20) 
CYC-116

>  <Pocket>  (20) 
nan

>  <ATP_Site>  (20) 
nan

>  <Peripheral>  (20) 
nan

>  <Num_H_Atoms_ProtBoundConf>  (20) 
nan

>  <Num_Resolved_Atoms>  (20) 
nan

>  <Num_Not_Resolved_Atoms>  (20) 
nan

$$$$
CHEMBL1983111
     RDKit          3D

  0  0  0  0  0  0  0  0  0  0999 V3000
M  V30 BEGIN CTAB
M  V30 COUNTS 59 63 0 0 0
M  V30 BEGIN ATOM
M  V30 1 C 4.475961 -3.409972 4.488166 0
M  V30 2 C 4.101759 -2.040259 4.036992 0
M  V30 3 O 2.909169 -1.826329 4.285017 0
M  V30 4 N 4.986624 -1.123068 3.416732 0
M  V30 5 C 4.669417 0.201903 2.958989 0
M  V30 6 C 3.645931 0.199638 1.906616 0
M  V30 7 O 3.603675 -1.036267 1.958436 0
M  V30 8 N 2.900222 1.027679 1.077313 0
M  V30 9 C 2.656362 2.431980 0.712635 0
M  V30 10 C 2.928327 2.355175 -0.771896 0
M  V30 11 C 2.484698 0.956718 -1.157365 0
M  V30 12 C 1.946673 0.433337 0.153183 0
M  V30 13 C 0.740829 1.226945 0.533738 0
M  V30 14 C -0.571921 0.840833 0.548026 0
M  V30 15 C -1.521937 1.776876 0.930430 0
M  V30 16 N -2.882675 1.402172 0.953738 0
M  V30 17 C -3.322180 0.070946 0.746320 0
M  V30 18 N -3.921079 -0.399264 1.873754 0
M  V30 19 C -4.425854 -1.623633 1.971061 0
M  V30 20 C -4.350192 -2.476287 0.891493 0
M  V30 21 C -4.894863 -3.862092 0.928198 0
M  V30 22 F -5.457226 -4.139199 2.154376 0
M  V30 23 F -5.846975 -3.997300 -0.041650 0
M  V30 24 F -3.883691 -4.770547 0.681716 0
M  V30 25 C -3.743544 -2.007335 -0.257018 0
M  V30 26 N -3.599082 -2.789768 -1.429907 0
M  V30 27 C -2.979700 -2.462604 -2.701930 0
M  V30 28 C -1.501317 -2.095791 -2.547403 0
M  V30 29 C -1.253074 -2.898707 -3.802777 0
M  V30 30 C -2.509241 -3.676719 -3.477653 0
M  V30 31 N -3.251164 -0.772641 -0.312292 0
M  V30 32 C -1.132026 3.048989 1.282031 0
M  V30 33 C 0.200291 3.400351 1.256185 0
M  V30 34 C 1.192052 2.493944 0.877875 0
M  V30 35 H 5.556206 -3.589428 4.281690 0
M  V30 36 H 3.860755 -4.181160 3.977978 0
M  V30 37 H 4.310455 -3.550398 5.577593 0
M  V30 38 H 5.939643 -1.534294 3.324591 0
M  V30 39 H 4.298629 0.796822 3.826199 0
M  V30 40 H 5.580243 0.645788 2.560133 0
M  V30 41 H 3.240952 3.152503 1.251070 0
M  V30 42 H 3.990947 2.492422 -1.045907 0
M  V30 43 H 2.280414 3.063159 -1.358736 0
M  V30 44 H 1.725519 0.934579 -1.959416 0
M  V30 45 H 3.382726 0.336173 -1.417224 0
M  V30 46 H 1.821429 -0.628450 0.204843 0
M  V30 47 H -0.852916 -0.180398 0.264579 0
M  V30 48 H -3.607639 2.121291 1.130068 0
M  V30 49 H -4.909280 -2.038720 2.842806 0
M  V30 50 H -4.004426 -3.769135 -1.378668 0
M  V30 51 H -3.551451 -1.796760 -3.368607 0
M  V30 52 H -1.095669 -2.628685 -1.663490 0
M  V30 53 H -1.275846 -1.014567 -2.634403 0
M  V30 54 H -0.314247 -3.488882 -3.793501 0
M  V30 55 H -1.389376 -2.288905 -4.738523 0
M  V30 56 H -3.146183 -3.974422 -4.319911 0
M  V30 57 H -2.232866 -4.510225 -2.777693 0
M  V30 58 H -1.875596 3.776596 1.579772 0
M  V30 59 H 0.542197 4.380459 1.521177 0
M  V30 END ATOM
M  V30 BEGIN BOND
M  V30 1 1 1 2
M  V30 2 2 2 3
M  V30 3 1 2 4
M  V30 4 1 4 5
M  V30 5 1 5 6
M  V30 6 2 6 7
M  V30 7 1 6 8
M  V30 8 1 8 9
M  V30 9 1 9 10
M  V30 10 1 10 11
M  V30 11 1 11 12
M  V30 12 1 12 13
M  V30 13 2 13 14
M  V30 14 1 14 15
M  V30 15 1 15 16
M  V30 16 1 16 17
M  V30 17 2 17 18
M  V30 18 1 18 19
M  V30 19 2 19 20
M  V30 20 1 20 21
M  V30 21 1 21 22
M  V30 22 1 21 23
M  V30 23 1 21 24
M  V30 24 1 20 25
M  V30 25 1 25 26
M  V30 26 1 26 27
M  V30 27 1 27 28
M  V30 28 1 28 29
M  V30 29 1 29 30
M  V30 30 2 25 31
M  V30 31 2 15 32
M  V30 32 1 32 33
M  V30 33 2 33 34
M  V30 34 1 12 8
M  V30 35 1 34 13
M  V30 36 1 34 9
M  V30 37 1 31 17
M  V30 38 1 30 27
M  V30 39 1 1 35
M  V30 40 1 1 36
M  V30 41 1 1 37
M  V30 42 1 4 38
M  V30 43 1 5 39
M  V30 44 1 5 40
M  V30 45 1 9 41
M  V30 46 1 10 42
M  V30 47 1 10 43
M  V30 48 1 11 44
M  V30 49 1 11 45
M  V30 50 1 12 46
M  V30 51 1 14 47
M  V30 52 1 16 48
M  V30 53 1 19 49
M  V30 54 1 26 50
M  V30 55 1 27 51
M  V30 56 1 28 52
M  V30 57 1 28 53
M  V30 58 1 29 54
M  V30 59 1 29 55
M  V30 60 1 30 56
M  V30 61 1 30 57
M  V30 62 1 32 58
M  V30 63 1 33 59
M  V30 END BOND
M  V30 END CTAB
M  END
>  <Dataset>  (21) 
ChEMBL_Kinases

>  <Ligand_Instance>  (21) 
nan

>  <PDB_ID>  (21) 
nan

>  <Standardized_SMILES>  (21) 
CC(=O)NCC(=O)N1C2CCC1c1cc(Nc3ncc(C(F)(F)F)c(NC4CCC4)n3)ccc12

>  <Name>  (21) 
nan

>  <Pocket>  (21) 
nan

>  <ATP_Site>  (21) 
nan

>  <Peripheral>  (21) 
nan

>  <Num_H_Atoms_ProtBoundConf>  (21) 
nan

>  <Num_Resolved_Atoms>  (21) 
nan

>  <Num_Not_Resolved_Atoms>  (21) 
nan

$$$$
CHEMBL4568087
     RDKit          3D

  0  0  0  0  0  0  0  0  0  0999 V3000
M  V30 BEGIN CTAB
M  V30 COUNTS 53 57 0 0 0
M  V30 BEGIN ATOM
M  V30 1 C 4.880564 -9.139445 2.333844 0
M  V30 2 N 4.312355 -7.812741 2.486939 0
M  V30 3 C 3.772322 -7.138408 1.430306 0
M  V30 4 C 3.335571 -5.930196 1.934586 0
M  V30 5 C 2.685735 -4.905540 1.099969 0
M  V30 6 C 1.731371 -4.052149 1.617883 0
M  V30 7 N 1.163642 -3.128574 0.812874 0
M  V30 8 C 1.520221 -3.028795 -0.501144 0
M  V30 9 C 1.094771 -2.185541 -1.509490 0
M  V30 10 C 0.078967 -1.112213 -1.392791 0
M  V30 11 C -0.867376 -1.013878 -2.358491 0
M  V30 12 S -1.879313 0.463769 -1.760844 0
M  V30 13 C -0.896494 0.746105 -0.301185 0
M  V30 14 C -1.065678 1.792984 0.747926 0
M  V30 15 O -0.295742 1.890892 1.744999 0
M  V30 16 N -2.176989 2.662151 0.508012 0
M  V30 17 C -2.393104 3.711701 1.505268 0 CFG=2
M  V30 18 C -3.747205 3.504315 2.105573 0
M  V30 19 C -4.786031 3.508274 1.027873 0
M  V30 20 C -4.599857 4.673515 0.090160 0
M  V30 21 C -3.682833 5.689870 0.710086 0
M  V30 22 C -2.316181 5.079588 0.913394 0 CFG=2
M  V30 23 N -1.536902 5.121928 -0.307521 0
M  V30 24 C 0.112089 -0.248917 -0.329356 0
M  V30 25 C 1.790911 -2.522470 -2.651908 0
M  V30 26 N 2.607982 -3.545439 -2.312582 0
M  V30 27 N 2.462099 -3.863923 -1.031297 0
M  V30 28 C 3.037684 -4.791640 -0.238161 0
M  V30 29 C 3.617704 -5.893193 3.284664 0
M  V30 30 N 4.215356 -7.061625 3.588580 0
M  V30 31 H 5.298077 -9.519855 3.265113 0
M  V30 32 H 5.590340 -9.127100 1.478435 0
M  V30 33 H 4.047094 -9.813549 2.006468 0
M  V30 34 H 3.701409 -7.480899 0.407639 0
M  V30 35 H 1.488677 -4.176192 2.662456 0
M  V30 36 H -1.034905 -1.596091 -3.241768 0
M  V30 37 H -2.798877 2.561615 -0.323895 0
M  V30 38 H -1.588145 3.603758 2.273681 0
M  V30 39 H -3.924486 4.342492 2.829480 0
M  V30 40 H -3.821697 2.587088 2.719070 0
M  V30 41 H -5.792998 3.523603 1.506672 0
M  V30 42 H -4.687896 2.577300 0.424020 0
M  V30 43 H -5.578499 5.192926 -0.106893 0
M  V30 44 H -4.216309 4.407294 -0.898015 0
M  V30 45 H -3.623026 6.578365 0.055585 0
M  V30 46 H -4.137518 6.025891 1.662405 0
M  V30 47 H -1.792586 5.750433 1.639030 0
M  V30 48 H -2.076918 4.743891 -1.123962 0
M  V30 49 H -1.262968 6.098613 -0.545575 0
M  V30 50 H 0.827063 -0.256777 0.479220 0
M  V30 51 H 1.652565 -2.017982 -3.596174 0
M  V30 52 H 3.780637 -5.455593 -0.642573 0
M  V30 53 H 3.361393 -5.033614 3.889019 0
M  V30 END ATOM
M  V30 BEGIN BOND
M  V30 1 1 1 2
M  V30 2 1 2 3
M  V30 3 2 3 4
M  V30 4 1 4 5
M  V30 5 1 5 6
M  V30 6 2 6 7
M  V30 7 1 7 8
M  V30 8 2 8 9
M  V30 9 1 9 10
M  V30 10 2 10 11
M  V30 11 1 11 12
M  V30 12 1 12 13
M  V30 13 1 13 14
M  V30 14 2 14 15
M  V30 15 1 14 16
M  V30 16 1 16 17
M  V30 17 1 17 18
M  V30 18 1 18 19
M  V30 19 1 19 20
M  V30 20 1 20 21
M  V30 21 1 21 22
M  V30 22 1 22 23
M  V30 23 2 13 24
M  V30 24 1 9 25
M  V30 25 2 25 26
M  V30 26 1 26 27
M  V30 27 1 27 28
M  V30 28 1 4 29
M  V30 29 2 29 30
M  V30 30 1 30 2
M  V30 31 2 28 5
M  V30 32 1 27 8
M  V30 33 1 24 10
M  V30 34 1 22 17
M  V30 35 1 1 31
M  V30 36 1 1 32
M  V30 37 1 1 33
M  V30 38 1 3 34
M  V30 39 1 6 35
M  V30 40 1 11 36
M  V30 41 1 16 37
M  V30 42 1 17 38 CFG=1
M  V30 43 1 18 39
M  V30 44 1 18 40
M  V30 45 1 19 41
M  V30 46 1 19 42
M  V30 47 1 20 43
M  V30 48 1 20 44
M  V30 49 1 21 45
M  V30 50 1 21 46
M  V30 51 1 22 47 CFG=1
M  V30 52 1 23 48
M  V30 53 1 23 49
M  V30 54 1 24 50
M  V30 55 1 25 51
M  V30 56 1 28 52
M  V30 57 1 29 53
M  V30 END BOND
M  V30 END CTAB
M  END
>  <Dataset>  (22) 
ChEMBL_Kinases

>  <Ligand_Instance>  (22) 
nan

>  <PDB_ID>  (22) 
nan

>  <Standardized_SMILES>  (22) 
Cn1cc(-c2cnc3c(-c4csc(C(=O)N[C@@H]5CCCC[C@@H]5N)c4)cnn3c2)cn1

>  <Name>  (22) 
nan

>  <Pocket>  (22) 
nan

>  <ATP_Site>  (22) 
nan

>  <Peripheral>  (22) 
nan

>  <Num_H_Atoms_ProtBoundConf>  (22) 
nan

>  <Num_Resolved_Atoms>  (22) 
nan

>  <Num_Not_Resolved_Atoms>  (22) 
nan

$$$$
CHEMBL1908397
     RDKit          3D

  0  0  0  0  0  0  0  0  0  0999 V3000
M  V30 BEGIN CTAB
M  V30 COUNTS 45 48 0 0 0
M  V30 BEGIN ATOM
M  V30 1 O 0.473144 -4.821518 3.764989 0
M  V30 2 C -0.056424 -4.032319 2.953269 0
M  V30 3 C 0.381003 -3.264362 1.819754 0
M  V30 4 C 0.798349 -3.664006 0.572191 0
M  V30 5 C 1.193273 -2.787178 -0.406683 0
M  V30 6 C 1.173913 -1.415342 -0.130002 0
M  V30 7 C 1.604718 -0.476396 -1.171723 0
M  V30 8 C 1.648843 0.837565 -1.109898 0
M  V30 9 C 2.092929 1.707737 -2.195895 0
M  V30 10 N 2.535920 1.407921 -3.427768 0
M  V30 11 N 2.840296 2.536803 -4.093169 0
M  V30 12 C 2.598433 3.588946 -3.298937 0
M  V30 13 C 2.712684 4.960896 -3.423706 0
M  V30 14 C 2.384581 5.878426 -2.423994 0
M  V30 15 C 1.908937 5.317740 -1.225787 0
M  V30 16 C 1.795676 3.946410 -1.101034 0
M  V30 17 C 2.130176 3.082817 -2.109930 0
M  V30 18 C 0.764431 -0.908539 1.107236 0
M  V30 19 C 0.385990 -1.902022 2.023826 0
M  V30 20 N -1.434773 -3.832612 3.196559 0
M  V30 21 C -2.038327 -4.531957 4.332422 0
M  V30 22 C -2.643132 -3.471981 5.226745 0
M  V30 23 N -2.352657 -2.124441 4.791456 0
M  V30 24 C -2.782901 -1.881684 3.426485 0
M  V30 25 C -2.452164 -3.025958 2.511111 0
M  V30 26 H 0.786496 -4.741763 0.433786 0
M  V30 27 H 1.512339 -3.164334 -1.369157 0
M  V30 28 H 1.942010 -0.878677 -2.140869 0
M  V30 29 H 1.327655 1.268800 -0.175302 0
M  V30 30 H 3.205805 2.631349 -5.065277 0
M  V30 31 H 3.081943 5.384949 -4.356280 0
M  V30 32 H 2.499914 6.949409 -2.593751 0
M  V30 33 H 1.667240 6.072765 -0.479800 0
M  V30 34 H 1.417483 3.578857 -0.137792 0
M  V30 35 H 0.730189 0.129245 1.358933 0
M  V30 36 H 0.073696 -1.459774 2.992248 0
M  V30 37 H -1.343558 -5.205952 4.835941 0
M  V30 38 H -2.873612 -5.142397 3.935629 0
M  V30 39 H -2.184481 -3.593876 6.228223 0
M  V30 40 H -3.733181 -3.558802 5.346586 0
M  V30 41 H -1.364023 -1.855989 4.959923 0
M  V30 42 H -3.863020 -1.684116 3.353781 0
M  V30 43 H -2.262735 -0.977096 3.063091 0
M  V30 44 H -2.066194 -2.626859 1.555829 0
M  V30 45 H -3.388053 -3.623686 2.366884 0
M  V30 END ATOM
M  V30 BEGIN BOND
M  V30 1 2 1 2
M  V30 2 1 2 3
M  V30 3 2 3 4
M  V30 4 1 4 5
M  V30 5 2 5 6
M  V30 6 1 6 7
M  V30 7 2 7 8
M  V30 8 1 8 9
M  V30 9 2 9 10
M  V30 10 1 10 11
M  V30 11 1 11 12
M  V30 12 2 12 13
M  V30 13 1 13 14
M  V30 14 2 14 15
M  V30 15 1 15 16
M  V30 16 2 16 17
M  V30 17 1 6 18
M  V30 18 2 18 19
M  V30 19 1 2 20
M  V30 20 1 20 21
M  V30 21 1 21 22
M  V30 22 1 22 23
M  V30 23 1 23 24
M  V30 24 1 24 25
M  V30 25 1 19 3
M  V30 26 1 25 20
M  V30 27 1 17 9
M  V30 28 1 17 12
M  V30 29 1 4 26
M  V30 30 1 5 27
M  V30 31 1 7 28
M  V30 32 1 8 29
M  V30 33 1 11 30
M  V30 34 1 13 31
M  V30 35 1 14 32
M  V30 36 1 15 33
M  V30 37 1 16 34
M  V30 38 1 18 35
M  V30 39 1 19 36
M  V30 40 1 21 37
M  V30 41 1 21 38
M  V30 42 1 22 39
M  V30 43 1 22 40
M  V30 44 1 23 41
M  V30 45 1 24 42
M  V30 46 1 24 43
M  V30 47 1 25 44
M  V30 48 1 25 45
M  V30 END BOND
M  V30 END CTAB
M  END
>  <Dataset>  (23) 
ChEMBL_Kinases

>  <Ligand_Instance>  (23) 
nan

>  <PDB_ID>  (23) 
nan

>  <Standardized_SMILES>  (23) 
O=C(c1ccc(/C=C/c2n[nH]c3ccccc23)cc1)N1CCNCC1

>  <Name>  (23) 
KW-2449

>  <Pocket>  (23) 
nan

>  <ATP_Site>  (23) 
nan

>  <Peripheral>  (23) 
nan

>  <Num_H_Atoms_ProtBoundConf>  (23) 
nan

>  <Num_Resolved_Atoms>  (23) 
nan

>  <Num_Not_Resolved_Atoms>  (23) 
nan

$$$$
CHEMBL296468
     RDKit          3D

  0  0  0  0  0  0  0  0  0  0999 V3000
M  V30 BEGIN CTAB
M  V30 COUNTS 49 51 0 0 0
M  V30 BEGIN ATOM
M  V30 1 C 2.432883 -4.628760 1.719416 0
M  V30 2 C 2.136876 -3.545766 0.723555 0
M  V30 3 C 0.881999 -2.800971 1.141160 0
M  V30 4 C 1.947559 -4.215069 -0.624157 0
M  V30 5 C 3.288291 -2.608360 0.650137 0
M  V30 6 C 4.437078 -2.761322 1.407187 0
M  V30 7 N 5.261444 -1.730128 1.079695 0
M  V30 8 C 4.630529 -0.976380 0.152913 0
M  V30 9 C 5.069196 0.264112 -0.549532 0
M  V30 10 S 4.550849 1.725133 0.420907 0
M  V30 11 C 2.766040 1.851318 0.451635 0
M  V30 12 C 2.052301 2.542138 -0.483074 0
M  V30 13 N 0.725532 2.629538 -0.449722 0
M  V30 14 C 0.092304 2.066824 0.460446 0
M  V30 15 N -1.265745 1.902268 0.869723 0
M  V30 16 C -1.796624 0.732139 0.251125 0
M  V30 17 O -0.956911 0.138687 -0.492566 0
M  V30 18 C -3.200410 0.250431 0.455850 0
M  V30 19 C -3.450805 -0.044548 1.889119 0
M  V30 20 C -4.426994 0.974976 2.423765 0
M  V30 21 N -5.695453 0.720533 1.768800 0
M  V30 22 C -5.573142 1.106639 0.379407 0
M  V30 23 C -4.132535 1.305661 -0.029349 0
M  V30 24 S 1.433184 1.226737 1.539219 0
M  V30 25 O 3.473113 -1.535189 -0.065656 0
M  V30 26 H 1.566255 -5.282744 1.830007 0
M  V30 27 H 3.304151 -5.226814 1.412622 0
M  V30 28 H 2.617771 -4.129444 2.694412 0
M  V30 29 H 1.113026 -1.751109 1.457288 0
M  V30 30 H 0.355764 -3.335828 1.964829 0
M  V30 31 H 0.190360 -2.734359 0.279012 0
M  V30 32 H 0.957039 -4.721277 -0.668166 0
M  V30 33 H 2.778507 -4.941405 -0.749024 0
M  V30 34 H 2.019277 -3.408992 -1.399802 0
M  V30 35 H 4.649277 -3.540621 2.120019 0
M  V30 36 H 4.578891 0.341184 -1.534149 0
M  V30 37 H 6.158921 0.277593 -0.656131 0
M  V30 38 H 2.466964 3.090823 -1.345122 0
M  V30 39 H -1.867923 2.459812 1.495246 0
M  V30 40 H -3.271646 -0.689642 -0.160527 0
M  V30 41 H -2.534809 -0.118553 2.506701 0
M  V30 42 H -3.917102 -1.064303 1.959700 0
M  V30 43 H -4.120868 2.006718 2.162947 0
M  V30 44 H -4.514700 0.931241 3.527396 0
M  V30 45 H -6.520294 1.075672 2.256173 0
M  V30 46 H -6.077424 0.408920 -0.307616 0
M  V30 47 H -6.068867 2.096878 0.281888 0
M  V30 48 H -3.803011 2.330977 0.186345 0
M  V30 49 H -4.147218 1.227181 -1.158454 0
M  V30 END ATOM
M  V30 BEGIN BOND
M  V30 1 1 1 2
M  V30 2 1 2 3
M  V30 3 1 2 4
M  V30 4 1 2 5
M  V30 5 2 5 6
M  V30 6 1 6 7
M  V30 7 2 7 8
M  V30 8 1 8 9
M  V30 9 1 9 10
M  V30 10 1 10 11
M  V30 11 2 11 12
M  V30 12 1 12 13
M  V30 13 2 13 14
M  V30 14 1 14 15
M  V30 15 1 15 16
M  V30 16 2 16 17
M  V30 17 1 16 18
M  V30 18 1 18 19
M  V30 19 1 19 20
M  V30 20 1 20 21
M  V30 21 1 21 22
M  V30 22 1 22 23
M  V30 23 1 14 24
M  V30 24 1 8 25
M  V30 25 1 25 5
M  V30 26 1 24 11
M  V30 27 1 23 18
M  V30 28 1 1 26
M  V30 29 1 1 27
M  V30 30 1 1 28
M  V30 31 1 3 29
M  V30 32 1 3 30
M  V30 33 1 3 31
M  V30 34 1 4 32
M  V30 35 1 4 33
M  V30 36 1 4 34
M  V30 37 1 6 35
M  V30 38 1 9 36
M  V30 39 1 9 37
M  V30 40 1 12 38
M  V30 41 1 15 39
M  V30 42 1 18 40
M  V30 43 1 19 41
M  V30 44 1 19 42
M  V30 45 1 20 43
M  V30 46 1 20 44
M  V30 47 1 21 45
M  V30 48 1 22 46
M  V30 49 1 22 47
M  V30 50 1 23 48
M  V30 51 1 23 49
M  V30 END BOND
M  V30 END CTAB
M  END
>  <Dataset>  (24) 
ChEMBL_Kinases

>  <Ligand_Instance>  (24) 
nan

>  <PDB_ID>  (24) 
nan

>  <Standardized_SMILES>  (24) 
CC(C)(C)c1cnc(CSc2cnc(NC(=O)C3CCNCC3)s2)o1

>  <Name>  (24) 
BMS-387032

>  <Pocket>  (24) 
nan

>  <ATP_Site>  (24) 
nan

>  <Peripheral>  (24) 
nan

>  <Num_H_Atoms_ProtBoundConf>  (24) 
nan

>  <Num_Resolved_Atoms>  (24) 
nan

>  <Num_Not_Resolved_Atoms>  (24) 
nan

$$$$
CHEMBL564829
     RDKit          3D

  0  0  0  0  0  0  0  0  0  0999 V3000
M  V30 BEGIN CTAB
M  V30 COUNTS 66 70 0 0 0
M  V30 BEGIN ATOM
M  V30 1 C 8.237952 1.681030 1.575859 0
M  V30 2 N 6.840206 1.357428 1.717676 0
M  V30 3 C 5.874515 2.018279 0.927108 0
M  V30 4 O 6.439510 2.869032 0.155985 0
M  V30 5 C 4.437549 1.784584 0.963133 0
M  V30 6 N 3.973418 0.816211 1.781602 0
M  V30 7 N 2.663423 0.704912 1.702663 0
M  V30 8 C 1.818612 -0.210659 2.442446 0
M  V30 9 C 2.259202 1.621604 0.810880 0
M  V30 10 C 3.342206 2.323334 0.322509 0
M  V30 11 C 3.408369 3.427887 -0.670783 0
M  V30 12 C 4.106583 4.643962 -0.090299 0
M  V30 13 C 4.236388 2.950039 -1.855735 0
M  V30 14 C 2.066705 3.854570 -1.174048 0
M  V30 15 C 0.953911 3.031622 -0.646641 0
M  V30 16 C -0.289943 3.344089 -1.155383 0
M  V30 17 N -1.376174 2.673692 -0.748397 0
M  V30 18 C -1.344716 1.659814 0.171512 0
M  V30 19 N -2.649908 1.142288 0.386140 0
M  V30 20 C -2.954896 -0.254368 0.471430 0
M  V30 21 C -2.059851 -1.293463 0.542141 0
M  V30 22 C -2.465289 -2.618281 0.569704 0
M  V30 23 C -3.798647 -2.954717 0.526513 0
M  V30 24 N -4.279405 -4.315246 0.531162 0
M  V30 25 C -5.686630 -4.598862 0.344779 0
M  V30 26 C -5.899525 -5.963340 -0.259898 0
M  V30 27 N -5.171680 -7.016969 0.352367 0
M  V30 28 C -5.935279 -8.130530 0.812975 0
M  V30 29 C -4.183764 -6.565730 1.308259 0
M  V30 30 C -3.384504 -5.443100 0.717657 0
M  V30 31 C -4.732791 -1.943814 0.457256 0
M  V30 32 C -4.303233 -0.634688 0.431538 0
M  V30 33 N -0.130149 1.348188 0.674765 0
M  V30 34 C 0.973764 2.014133 0.275232 0
M  V30 35 H 8.685472 1.636647 2.611597 0
M  V30 36 H 8.418984 2.680341 1.191548 0
M  V30 37 H 8.802815 0.879198 1.021636 0
M  V30 38 H 6.491568 0.633608 2.399462 0
M  V30 39 H 1.367998 -1.009506 1.843329 0
M  V30 40 H 1.094239 0.423191 3.002406 0
M  V30 41 H 2.456293 -0.667084 3.252367 0
M  V30 42 H 4.918205 5.024241 -0.712973 0
M  V30 43 H 4.392129 4.451748 0.975720 0
M  V30 44 H 3.330897 5.457091 -0.010806 0
M  V30 45 H 4.638895 1.948626 -1.710487 0
M  V30 46 H 3.594569 2.899306 -2.782481 0
M  V30 47 H 5.026388 3.693737 -2.055586 0
M  V30 48 H 1.851291 4.893263 -0.779383 0
M  V30 49 H 2.017923 3.904669 -2.285623 0
M  V30 50 H -0.413449 4.148939 -1.900885 0
M  V30 51 H -3.445962 1.814431 0.499127 0
M  V30 52 H -1.014559 -1.018073 0.576022 0
M  V30 53 H -1.720166 -3.403944 0.626443 0
M  V30 54 H -6.289522 -4.429093 1.236976 0
M  V30 55 H -6.042919 -3.880856 -0.456850 0
M  V30 56 H -6.997970 -6.184566 -0.149918 0
M  V30 57 H -5.745941 -5.933149 -1.362804 0
M  V30 58 H -5.655610 -9.024383 0.195290 0
M  V30 59 H -5.566941 -8.402359 1.843272 0
M  V30 60 H -7.014574 -7.930909 0.818456 0
M  V30 61 H -4.676211 -6.193960 2.221568 0
M  V30 62 H -3.580857 -7.450187 1.578467 0
M  V30 63 H -2.946514 -5.733397 -0.279157 0
M  V30 64 H -2.519013 -5.187349 1.340208 0
M  V30 65 H -5.819799 -2.092873 0.421241 0
M  V30 66 H -5.066806 0.155421 0.376948 0
M  V30 END ATOM
M  V30 BEGIN BOND
M  V30 1 1 1 2
M  V30 2 1 2 3
M  V30 3 2 3 4
M  V30 4 1 3 5
M  V30 5 2 5 6
M  V30 6 1 6 7
M  V30 7 1 7 8
M  V30 8 1 7 9
M  V30 9 2 9 10
M  V30 10 1 10 11
M  V30 11 1 11 12
M  V30 12 1 11 13
M  V30 13 1 11 14
M  V30 14 1 14 15
M  V30 15 2 15 16
M  V30 16 1 16 17
M  V30 17 2 17 18
M  V30 18 1 18 19
M  V30 19 1 19 20
M  V30 20 2 20 21
M  V30 21 1 21 22
M  V30 22 2 22 23
M  V30 23 1 23 24
M  V30 24 1 24 25
M  V30 25 1 25 26
M  V30 26 1 26 27
M  V30 27 1 27 28
M  V30 28 1 27 29
M  V30 29 1 29 30
M  V30 30 1 23 31
M  V30 31 2 31 32
M  V30 32 1 18 33
M  V30 33 2 33 34
M  V30 34 1 10 5
M  V30 35 1 34 15
M  V30 36 1 34 9
M  V30 37 1 32 20
M  V30 38 1 30 24
M  V30 39 1 1 35
M  V30 40 1 1 36
M  V30 41 1 1 37
M  V30 42 1 2 38
M  V30 43 1 8 39
M  V30 44 1 8 40
M  V30 45 1 8 41
M  V30 46 1 12 42
M  V30 47 1 12 43
M  V30 48 1 12 44
M  V30 49 1 13 45
M  V30 50 1 13 46
M  V30 51 1 13 47
M  V30 52 1 14 48
M  V30 53 1 14 49
M  V30 54 1 16 50
M  V30 55 1 19 51
M  V30 56 1 21 52
M  V30 57 1 22 53
M  V30 58 1 25 54
M  V30 59 1 25 55
M  V30 60 1 26 56
M  V30 61 1 26 57
M  V30 62 1 28 58
M  V30 63 1 28 59
M  V30 64 1 28 60
M  V30 65 1 29 61
M  V30 66 1 29 62
M  V30 67 1 30 63
M  V30 68 1 30 64
M  V30 69 1 31 65
M  V30 70 1 32 66
M  V30 END BOND
M  V30 END CTAB
M  END
>  <Dataset>  (25) 
ChEMBL_Kinases

>  <Ligand_Instance>  (25) 
nan

>  <PDB_ID>  (25) 
nan

>  <Standardized_SMILES>  (25) 
CNC(=O)c1nn(C)c2c1C(C)(C)Cc1cnc(Nc3ccc(N4CCN(C)CC4)cc3)nc1-2

>  <Name>  (25) 
MILCICLIB

>  <Pocket>  (25) 
nan

>  <ATP_Site>  (25) 
nan

>  <Peripheral>  (25) 
nan

>  <Num_H_Atoms_ProtBoundConf>  (25) 
nan

>  <Num_Resolved_Atoms>  (25) 
nan

>  <Num_Not_Resolved_Atoms>  (25) 
nan

$$$$
CHEMBL3301622
     RDKit          3D

  0  0  0  0  0  0  0  0  0  0999 V3000
M  V30 BEGIN CTAB
M  V30 COUNTS 84 88 0 0 0
M  V30 BEGIN ATOM
M  V30 1 C 4.699334 -1.693786 3.973625 0
M  V30 2 C 3.469060 -2.233695 3.283282 0
M  V30 3 C 3.446705 -1.906214 1.844087 0
M  V30 4 N 3.733985 -2.838061 0.926498 0
M  V30 5 C 3.714803 -2.546519 -0.382316 0
M  V30 6 C 4.050750 -3.662643 -1.256363 0
M  V30 7 N 4.380500 -4.964971 -0.729053 0
M  V30 8 O 4.177791 -3.959727 -2.447768 0
M  V30 9 C 3.409384 -1.307114 -0.895714 0
M  V30 10 N 3.422197 -1.206813 -2.290668 0
M  V30 11 C 2.007374 -1.130664 -2.537653 0
M  V30 12 C 1.330892 0.048063 -2.219624 0
M  V30 13 C -0.045623 0.261267 -2.394528 0
M  V30 14 C -0.775791 -0.808559 -2.932212 0
M  V30 15 N -2.164022 -0.517740 -3.032211 0
M  V30 16 C -2.768351 0.810538 -2.935384 0
M  V30 17 C -3.355522 0.975251 -1.523484 0
M  V30 18 C -3.531475 -0.432766 -1.005330 0
M  V30 19 N -4.094824 -0.430267 0.271031 0
M  V30 20 C -3.380377 0.211987 1.316743 0
M  V30 21 C -4.438807 0.818354 2.252203 0
M  V30 22 N -5.438922 -0.160548 2.527300 0
M  V30 23 C -6.775518 0.222278 2.141598 0
M  V30 24 C -5.089261 -1.496624 2.145646 0
M  V30 25 C -4.739699 -1.652336 0.680532 0
M  V30 26 C -4.306662 -1.173835 -2.072278 0
M  V30 27 C -3.291436 -1.431076 -3.201970 0
M  V30 28 C -0.123394 -1.955315 -3.242639 0
M  V30 29 O -0.868133 -2.972352 -3.763594 0
M  V30 30 C -0.298228 -4.213915 -4.124144 0
M  V30 31 C 1.229251 -2.137068 -3.060339 0
M  V30 32 N 3.120655 -0.370076 0.035990 0
M  V30 33 C 3.131393 -0.633504 1.359633 0
M  V30 34 N 2.815888 0.375031 2.279636 0
M  V30 35 C 2.474547 1.709050 1.816254 0
M  V30 36 C 3.684183 2.219002 1.042763 0
M  V30 37 C 3.787358 3.721472 1.194846 0
M  V30 38 O 4.019580 4.080629 2.500423 0
M  V30 39 C 3.387824 3.302396 3.447656 0
M  V30 40 C 2.124052 2.639732 2.934398 0
M  V30 41 H 4.415252 -0.865507 4.670787 0
M  V30 42 H 5.437760 -1.338435 3.219209 0
M  V30 43 H 5.168576 -2.471096 4.620437 0
M  V30 44 H 2.581556 -1.893957 3.832488 0
M  V30 45 H 3.486347 -3.337888 3.386595 0
M  V30 46 H 5.218928 -5.259175 -0.194545 0
M  V30 47 H 5.323085 -4.777156 -0.293210 0
M  V30 48 H 4.179595 -1.187445 -3.010691 0
M  V30 49 H 1.975204 0.843471 -1.803528 0
M  V30 50 H -0.336774 1.249163 -2.075485 0
M  V30 51 H -2.029954 1.621828 -3.058023 0
M  V30 52 H -3.540646 0.987644 -3.717902 0
M  V30 53 H -2.706148 1.595074 -0.905054 0
M  V30 54 H -4.349458 1.504374 -1.564704 0
M  V30 55 H -2.493469 -0.869533 -0.989961 0
M  V30 56 H -2.838103 -0.572469 1.925908 0
M  V30 57 H -2.673782 0.959696 0.973862 0
M  V30 58 H -4.897430 1.650573 1.682540 0
M  V30 59 H -3.957047 1.245926 3.154750 0
M  V30 60 H -7.257391 -0.554822 1.520444 0
M  V30 61 H -7.395742 0.415466 3.042267 0
M  V30 62 H -6.738662 1.169326 1.577739 0
M  V30 63 H -5.943122 -2.144617 2.442809 0
M  V30 64 H -4.218974 -1.808338 2.750966 0
M  V30 65 H -5.673067 -1.820382 0.118249 0
M  V30 66 H -4.052553 -2.529852 0.621177 0
M  V30 67 H -5.094198 -0.468160 -2.408549 0
M  V30 68 H -4.799434 -2.079985 -1.727545 0
M  V30 69 H -3.786536 -1.147032 -4.148489 0
M  V30 70 H -3.038056 -2.477949 -3.281853 0
M  V30 71 H -1.017369 -4.858352 -4.676719 0
M  V30 72 H -0.002659 -4.697903 -3.153575 0
M  V30 73 H 0.625404 -4.028520 -4.700892 0
M  V30 74 H 1.729473 -3.044553 -3.308236 0
M  V30 75 H 2.807701 0.230831 3.288768 0
M  V30 76 H 1.654185 1.641526 1.053936 0
M  V30 77 H 4.597844 1.717687 1.427178 0
M  V30 78 H 3.586252 2.000725 -0.039530 0
M  V30 79 H 4.613262 4.045908 0.529681 0
M  V30 80 H 2.818663 4.149480 0.815292 0
M  V30 81 H 3.036434 4.001841 4.263084 0
M  V30 82 H 4.036953 2.555677 3.930421 0
M  V30 83 H 1.446414 3.425365 2.531049 0
M  V30 84 H 1.636495 2.149516 3.802312 0
M  V30 END ATOM
M  V30 BEGIN BOND
M  V30 1 1 1 2
M  V30 2 1 2 3
M  V30 3 2 3 4
M  V30 4 1 4 5
M  V30 5 1 5 6
M  V30 6 1 6 7
M  V30 7 2 6 8
M  V30 8 2 5 9
M  V30 9 1 9 10
M  V30 10 1 10 11
M  V30 11 2 11 12
M  V30 12 1 12 13
M  V30 13 2 13 14
M  V30 14 1 14 15
M  V30 15 1 15 16
M  V30 16 1 16 17
M  V30 17 1 17 18
M  V30 18 1 18 19
M  V30 19 1 19 20
M  V30 20 1 20 21
M  V30 21 1 21 22
M  V30 22 1 22 23
M  V30 23 1 22 24
M  V30 24 1 24 25
M  V30 25 1 18 26
M  V30 26 1 26 27
M  V30 27 1 14 28
M  V30 28 1 28 29
M  V30 29 1 29 30
M  V30 30 2 28 31
M  V30 31 1 9 32
M  V30 32 2 32 33
M  V30 33 1 33 34
M  V30 34 1 34 35
M  V30 35 1 35 36
M  V30 36 1 36 37
M  V30 37 1 37 38
M  V30 38 1 38 39
M  V30 39 1 39 40
M  V30 40 1 33 3
M  V30 41 1 40 35
M  V30 42 1 31 11
M  V30 43 1 27 15
M  V30 44 1 25 19
M  V30 45 1 1 41
M  V30 46 1 1 42
M  V30 47 1 1 43
M  V30 48 1 2 44
M  V30 49 1 2 45
M  V30 50 1 7 46
M  V30 51 1 7 47
M  V30 52 1 10 48
M  V30 53 1 12 49
M  V30 54 1 13 50
M  V30 55 1 16 51
M  V30 56 1 16 52
M  V30 57 1 17 53
M  V30 58 1 17 54
M  V30 59 1 18 55
M  V30 60 1 20 56
M  V30 61 1 20 57
M  V30 62 1 21 58
M  V30 63 1 21 59
M  V30 64 1 23 60
M  V30 65 1 23 61
M  V30 66 1 23 62
M  V30 67 1 24 63
M  V30 68 1 24 64
M  V30 69 1 25 65
M  V30 70 1 25 66
M  V30 71 1 26 67
M  V30 72 1 26 68
M  V30 73 1 27 69
M  V30 74 1 27 70
M  V30 75 1 30 71
M  V30 76 1 30 72
M  V30 77 1 30 73
M  V30 78 1 31 74
M  V30 79 1 34 75
M  V30 80 1 35 76
M  V30 81 1 36 77
M  V30 82 1 36 78
M  V30 83 1 37 79
M  V30 84 1 37 80
M  V30 85 1 39 81
M  V30 86 1 39 82
M  V30 87 1 40 83
M  V30 88 1 40 84
M  V30 END BOND
M  V30 END CTAB
M  END
>  <Dataset>  (26) 
ChEMBL_Kinases

>  <Ligand_Instance>  (26) 
nan

>  <PDB_ID>  (26) 
nan

>  <Standardized_SMILES>  (26) 
CCc1nc(C(N)=O)c(Nc2ccc(N3CCC(N4CCN(C)CC4)CC3)c(OC)c2)nc1NC1CCOCC1

>  <Name>  (26) 
GILTERITINIB

>  <Pocket>  (26) 
nan

>  <ATP_Site>  (26) 
nan

>  <Peripheral>  (26) 
nan

>  <Num_H_Atoms_ProtBoundConf>  (26) 
nan

>  <Num_Resolved_Atoms>  (26) 
nan

>  <Num_Not_Resolved_Atoms>  (26) 
nan

$$$$
CHEMBL1421
     RDKit          3D

  0  0  0  0  0  0  0  0  0  0999 V3000
M  V30 BEGIN CTAB
M  V30 COUNTS 59 62 0 0 0
M  V30 BEGIN ATOM
M  V30 1 C 5.118715 -3.518302 2.876733 0
M  V30 2 C 3.686876 -3.154878 2.981906 0
M  V30 3 N 3.415763 -2.038973 3.695881 0
M  V30 4 C 2.135440 -1.612162 3.863153 0
M  V30 5 N 1.797722 -0.425742 4.594362 0
M  V30 6 C 1.381269 0.526473 3.547759 0
M  V30 7 N 0.237086 0.564033 3.352904 0
M  V30 8 C -0.453109 1.288965 2.498930 0
M  V30 9 C 0.261794 2.112391 1.732670 0
M  V30 10 C -0.030731 3.106333 0.637634 0
M  V30 11 O 0.941277 3.705971 0.131125 0
M  V30 12 N -1.389552 3.217949 0.336063 0
M  V30 13 C -1.627993 4.169335 -0.713683 0
M  V30 14 C -1.614282 3.498417 -1.940509 0
M  V30 15 C -1.409665 2.043689 -2.179153 0
M  V30 16 C -1.813857 4.195700 -3.124209 0
M  V30 17 C -2.026030 5.557190 -3.083878 0
M  V30 18 C -2.035689 6.194857 -1.870403 0
M  V30 19 C -1.841050 5.530697 -0.680791 0
M  V30 20 Cl -1.824440 6.178057 0.927927 0
M  V30 21 S 1.982421 1.776447 2.320137 0
M  V30 22 C 1.123259 -2.346853 3.285248 0
M  V30 23 C 1.411274 -3.478088 2.561257 0
M  V30 24 N 0.389045 -4.241460 1.942870 0
M  V30 25 C -1.014773 -3.978846 1.896224 0
M  V30 26 C -1.580029 -3.914008 0.493123 0
M  V30 27 N -0.729388 -4.383302 -0.530449 0
M  V30 28 C -0.371763 -3.422372 -1.510111 0
M  V30 29 C -1.549734 -3.043632 -2.343830 0
M  V30 30 O -1.173297 -2.089871 -3.315960 0
M  V30 31 C 0.228843 -5.373091 -0.222693 0
M  V30 32 C 0.628649 -5.469360 1.225681 0
M  V30 33 N 2.688800 -3.868448 2.419003 0
M  V30 34 H 5.775783 -2.629790 2.997764 0
M  V30 35 H 5.348190 -4.190097 3.742758 0
M  V30 36 H 5.365551 -4.043152 1.913188 0
M  V30 37 H 1.767854 -0.075918 5.571617 0
M  V30 38 H -1.535469 1.357644 2.281520 0
M  V30 39 H -2.140432 2.674745 0.817041 0
M  V30 40 H -1.480536 1.527673 -1.215808 0
M  V30 41 H -2.270898 1.632039 -2.785074 0
M  V30 42 H -0.462038 1.902452 -2.699239 0
M  V30 43 H -1.818894 3.761896 -4.115668 0
M  V30 44 H -2.183599 6.134457 -3.994572 0
M  V30 45 H -2.197565 7.270709 -1.749656 0
M  V30 46 H 0.113213 -1.989001 3.429424 0
M  V30 47 H -1.523469 -4.842648 2.420957 0
M  V30 48 H -1.290397 -3.021773 2.397669 0
M  V30 49 H -2.576198 -4.445457 0.461067 0
M  V30 50 H -1.857784 -2.853058 0.229569 0
M  V30 51 H 0.465179 -3.797546 -2.136437 0
M  V30 52 H 0.026658 -2.528155 -0.984121 0
M  V30 53 H -2.314664 -2.560718 -1.719499 0
M  V30 54 H -2.003291 -3.929534 -2.808009 0
M  V30 55 H -0.194043 -2.037866 -3.376811 0
M  V30 56 H -0.171561 -6.372895 -0.550013 0
M  V30 57 H 1.121980 -5.214872 -0.881450 0
M  V30 58 H 1.708007 -5.751931 1.261228 0
M  V30 59 H 0.054442 -6.299260 1.697176 0
M  V30 END ATOM
M  V30 BEGIN BOND
M  V30 1 1 1 2
M  V30 2 2 2 3
M  V30 3 1 3 4
M  V30 4 1 4 5
M  V30 5 1 5 6
M  V30 6 2 6 7
M  V30 7 1 7 8
M  V30 8 2 8 9
M  V30 9 1 9 10
M  V30 10 2 10 11
M  V30 11 1 10 12
M  V30 12 1 12 13
M  V30 13 2 13 14
M  V30 14 1 14 15
M  V30 15 1 14 16
M  V30 16 2 16 17
M  V30 17 1 17 18
M  V30 18 2 18 19
M  V30 19 1 19 20
M  V30 20 1 9 21
M  V30 21 2 4 22
M  V30 22 1 22 23
M  V30 23 1 23 24
M  V30 24 1 24 25
M  V30 25 1 25 26
M  V30 26 1 26 27
M  V30 27 1 27 28
M  V30 28 1 28 29
M  V30 29 1 29 30
M  V30 30 1 27 31
M  V30 31 1 31 32
M  V30 32 2 23 33
M  V30 33 1 33 2
M  V30 34 1 21 6
M  V30 35 1 32 24
M  V30 36 1 19 13
M  V30 37 1 1 34
M  V30 38 1 1 35
M  V30 39 1 1 36
M  V30 40 1 5 37
M  V30 41 1 8 38
M  V30 42 1 12 39
M  V30 43 1 15 40
M  V30 44 1 15 41
M  V30 45 1 15 42
M  V30 46 1 16 43
M  V30 47 1 17 44
M  V30 48 1 18 45
M  V30 49 1 22 46
M  V30 50 1 25 47
M  V30 51 1 25 48
M  V30 52 1 26 49
M  V30 53 1 26 50
M  V30 54 1 28 51
M  V30 55 1 28 52
M  V30 56 1 29 53
M  V30 57 1 29 54
M  V30 58 1 30 55
M  V30 59 1 31 56
M  V30 60 1 31 57
M  V30 61 1 32 58
M  V30 62 1 32 59
M  V30 END BOND
M  V30 END CTAB
M  END
>  <Dataset>  (27) 
ChEMBL_Kinases

>  <Ligand_Instance>  (27) 
nan

>  <PDB_ID>  (27) 
nan

>  <Standardized_SMILES>  (27) 
Cc1nc(Nc2ncc(C(=O)Nc3c(C)cccc3Cl)s2)cc(N2CCN(CCO)CC2)n1

>  <Name>  (27) 
DASATINIB

>  <Pocket>  (27) 
nan

>  <ATP_Site>  (27) 
nan

>  <Peripheral>  (27) 
nan

>  <Num_H_Atoms_ProtBoundConf>  (27) 
nan

>  <Num_Resolved_Atoms>  (27) 
nan

>  <Num_Not_Resolved_Atoms>  (27) 
nan

$$$$
CHEMBL4552628
     RDKit          3D

  0  0  0  0  0  0  0  0  0  0999 V3000
M  V30 BEGIN CTAB
M  V30 COUNTS 46 49 0 0 0
M  V30 BEGIN ATOM
M  V30 1 C -1.133487 -4.566180 2.323001 0
M  V30 2 C -0.936060 -3.169572 2.027072 0
M  V30 3 S 0.710508 -2.664591 1.557067 0
M  V30 4 C 0.639250 -1.061581 1.285520 0
M  V30 5 C 0.586140 0.505596 1.016366 0
M  V30 6 O 0.149635 1.707650 0.897862 0
M  V30 7 N 1.965813 0.701475 0.674531 0
M  V30 8 C 2.636433 1.955910 0.297690 0 CFG=2
M  V30 9 C 3.038784 1.769630 -1.164510 0 CFG=2
M  V30 10 N 3.455807 0.398480 -1.385156 0
M  V30 11 C 4.145506 2.721444 -1.548618 0
M  V30 12 C 5.381200 2.409334 -0.770397 0
M  V30 13 C 5.126325 1.896128 0.607899 0
M  V30 14 C 3.795610 2.301844 1.163520 0
M  V30 15 F 3.687991 1.760626 2.423671 0
M  V30 16 F 3.871968 3.695030 1.337667 0
M  V30 17 C -0.854558 -0.860245 1.593935 0
M  V30 18 C -1.639104 -1.966774 1.973245 0
M  V30 19 C -3.037198 -2.217775 2.340223 0
M  V30 20 C -3.492128 -2.145921 3.637939 0
M  V30 21 N -4.816518 -2.413760 3.482331 0
M  V30 22 N -5.100544 -2.621843 2.209401 0
M  V30 23 C -6.298625 -2.913571 1.647181 0
M  V30 24 C -6.413342 -3.098635 0.284074 0
M  V30 25 Cl -7.928749 -3.477086 -0.494707 0
M  V30 26 C -5.270948 -2.976865 -0.484151 0
M  V30 27 N -4.079210 -2.684589 0.096451 0
M  V30 28 C -4.000552 -2.513011 1.405680 0
M  V30 29 H -0.888726 -4.774724 3.382199 0
M  V30 30 H -0.610574 -5.267662 1.676673 0
M  V30 31 H -2.236146 -4.778685 2.227833 0
M  V30 32 H 2.807263 0.047257 0.611968 0
M  V30 33 H 1.944204 2.822368 0.309155 0
M  V30 34 H 2.131587 1.937327 -1.780203 0
M  V30 35 H 2.904849 -0.051201 -2.124992 0
M  V30 36 H 4.461794 0.282758 -1.527433 0
M  V30 37 H 3.791808 3.755049 -1.420865 0
M  V30 38 H 4.348964 2.523625 -2.621723 0
M  V30 39 H 5.997183 3.349605 -0.776470 0
M  V30 40 H 5.985930 1.659591 -1.341701 0
M  V30 41 H 5.214219 0.800033 0.698191 0
M  V30 42 H 5.902933 2.332965 1.275517 0
M  V30 43 H -1.705924 -0.114568 1.657205 0
M  V30 44 H -2.876711 -1.924972 4.497737 0
M  V30 45 H -7.177583 -3.004549 2.269792 0
M  V30 46 H -5.296722 -3.111836 -1.559768 0
M  V30 END ATOM
M  V30 BEGIN BOND
M  V30 1 1 1 2
M  V30 2 1 2 3
M  V30 3 1 3 4
M  V30 4 1 4 5
M  V30 5 2 5 6
M  V30 6 1 5 7
M  V30 7 1 7 8
M  V30 8 1 8 9
M  V30 9 1 9 10
M  V30 10 1 9 11
M  V30 11 1 11 12
M  V30 12 1 12 13
M  V30 13 1 13 14
M  V30 14 1 14 15
M  V30 15 1 14 16
M  V30 16 2 4 17
M  V30 17 1 17 18
M  V30 18 1 18 19
M  V30 19 1 19 20
M  V30 20 2 20 21
M  V30 21 1 21 22
M  V30 22 1 22 23
M  V30 23 2 23 24
M  V30 24 1 24 25
M  V30 25 1 24 26
M  V30 26 2 26 27
M  V30 27 1 27 28
M  V30 28 2 18 2
M  V30 29 2 28 19
M  V30 30 1 14 8
M  V30 31 1 28 22
M  V30 32 1 1 29
M  V30 33 1 1 30
M  V30 34 1 1 31
M  V30 35 1 7 32
M  V30 36 1 8 33 CFG=3
M  V30 37 1 9 34 CFG=3
M  V30 38 1 10 35
M  V30 39 1 10 36
M  V30 40 1 11 37
M  V30 41 1 11 38
M  V30 42 1 12 39
M  V30 43 1 12 40
M  V30 44 1 13 41
M  V30 45 1 13 42
M  V30 46 1 17 43
M  V30 47 1 20 44
M  V30 48 1 23 45
M  V30 49 1 26 46
M  V30 END BOND
M  V30 END CTAB
M  END
>  <Dataset>  (28) 
ChEMBL_Kinases

>  <Ligand_Instance>  (28) 
nan

>  <PDB_ID>  (28) 
nan

>  <Standardized_SMILES>  (28) 
Cc1sc(C(=O)N[C@@H]2[C@H](N)CCCC2(F)F)cc1-c1cnn2cc(Cl)cnc12

>  <Name>  (28) 
nan

>  <Pocket>  (28) 
nan

>  <ATP_Site>  (28) 
nan

>  <Peripheral>  (28) 
nan

>  <Num_H_Atoms_ProtBoundConf>  (28) 
nan

>  <Num_Resolved_Atoms>  (28) 
nan

>  <Num_Not_Resolved_Atoms>  (28) 
nan

$$$$
CHEMBL574737
     RDKit          3D

  0  0  0  0  0  0  0  0  0  0999 V3000
M  V30 BEGIN CTAB
M  V30 COUNTS 62 69 0 0 0
M  V30 BEGIN ATOM
M  V30 1 C 2.471793 1.190924 0.890477 0
M  V30 2 N 2.074296 -0.172890 0.652026 0
M  V30 3 C 2.160326 -0.998245 1.831239 0 CFG=2
M  V30 4 C 1.887092 -2.445455 1.608527 0
M  V30 5 C 0.443438 -2.835075 1.745387 0 CFG=1
M  V30 6 O -0.343319 -2.057119 2.473336 0
M  V30 7 C -0.165178 -0.702190 2.609138 0 CFG=1
M  V30 8 C -1.056011 -0.356854 3.832670 0
M  V30 9 C 1.245990 -0.445298 2.896826 0 CFG=2
M  V30 10 O 1.621564 0.822439 3.291352 0
M  V30 11 C 2.219666 0.897861 4.535659 0
M  V30 12 N -0.721906 0.000759 1.440204 0
M  V30 13 C -1.187392 1.236784 1.323980 0
M  V30 14 C -1.244466 2.256511 2.244465 0
M  V30 15 C -1.767845 3.485332 1.916955 0
M  V30 16 C -2.263273 3.770769 0.657729 0
M  V30 17 C -2.193362 2.730427 -0.246586 0
M  V30 18 C -1.676864 1.506758 0.065285 0
M  V30 19 C -1.508026 0.370405 -0.659301 0
M  V30 20 C -1.801485 0.009026 -1.981936 0
M  V30 21 C -1.496230 -1.259908 -2.416863 0
M  V30 22 C -0.916289 -2.143127 -1.562563 0
M  V30 23 C -0.505485 -3.429096 -1.735819 0
M  V30 24 C -0.465254 -4.393617 -2.695049 0
M  V30 25 C 0.042084 -5.664330 -2.552914 0
M  V30 26 C 0.571288 -6.014215 -1.308406 0
M  V30 27 C 0.549425 -5.054991 -0.298186 0
M  V30 28 C 0.021687 -3.795269 -0.515810 0
M  V30 29 N -0.050673 -2.803148 0.376096 0
M  V30 30 C -0.633483 -1.779652 -0.269625 0
M  V30 31 C -0.927044 -0.517527 0.202059 0
M  V30 32 C -1.893508 -1.340873 -3.793132 0
M  V30 33 O -1.866952 -2.206063 -4.675257 0
M  V30 34 N -2.441904 -0.105778 -4.185953 0
M  V30 35 C -2.442803 0.822170 -3.068226 0 CFG=1
M  V30 36 O -3.810614 1.048211 -2.793289 0
M  V30 37 H 1.613942 1.806182 1.183645 0
M  V30 38 H 2.962408 1.643747 -0.011453 0
M  V30 39 H 3.264533 1.227409 1.690540 0
M  V30 40 H 2.703176 -0.551222 -0.101194 0
M  V30 41 H 3.202503 -0.846716 2.235666 0
M  V30 42 H 2.338872 -2.697430 0.624489 0
M  V30 43 H 2.455449 -3.033694 2.360874 0
M  V30 44 H 0.363361 -3.890941 2.119647 0
M  V30 45 H -1.364332 -1.302985 4.377376 0
M  V30 46 H -2.024298 0.042392 3.475548 0
M  V30 47 H -0.533652 0.214764 4.588912 0
M  V30 48 H 1.522464 -1.079328 3.799454 0
M  V30 49 H 2.463980 1.962395 4.735126 0
M  V30 50 H 3.232362 0.386246 4.526723 0
M  V30 51 H 1.682510 0.389634 5.354793 0
M  V30 52 H -0.862668 2.087105 3.236398 0
M  V30 53 H -1.785471 4.237524 2.674627 0
M  V30 54 H -2.673561 4.729262 0.396160 0
M  V30 55 H -2.570015 2.919733 -1.241821 0
M  V30 56 H -0.853496 -4.185763 -3.660956 0
M  V30 57 H 0.054442 -6.389022 -3.329005 0
M  V30 58 H 0.990776 -6.987882 -1.104379 0
M  V30 59 H 0.964609 -5.351133 0.653877 0
M  V30 60 H -2.834877 0.279493 -5.071297 0
M  V30 61 H -1.908423 1.739096 -3.303648 0
M  V30 62 H -4.135056 0.201237 -2.360889 0
M  V30 END ATOM
M  V30 BEGIN BOND
M  V30 1 1 1 2
M  V30 2 1 2 3
M  V30 3 1 3 4
M  V30 4 1 4 5
M  V30 5 1 5 6
M  V30 6 1 6 7
M  V30 7 1 7 8 CFG=1
M  V30 8 1 7 9
M  V30 9 1 9 10
M  V30 10 1 10 11
M  V30 11 1 7 12
M  V30 12 1 12 13
M  V30 13 2 13 14
M  V30 14 1 14 15
M  V30 15 2 15 16
M  V30 16 1 16 17
M  V30 17 2 17 18
M  V30 18 1 18 19
M  V30 19 2 19 20
M  V30 20 1 20 21
M  V30 21 2 21 22
M  V30 22 1 22 23
M  V30 23 2 23 24
M  V30 24 1 24 25
M  V30 25 2 25 26
M  V30 26 1 26 27
M  V30 27 2 27 28
M  V30 28 1 28 29
M  V30 29 1 29 30
M  V30 30 2 30 31
M  V30 31 1 21 32
M  V30 32 2 32 33
M  V30 33 1 32 34
M  V30 34 1 34 35
M  V30 35 1 35 36
M  V30 36 1 9 3
M  V30 37 1 31 12
M  V30 38 1 29 5
M  V30 39 1 18 13
M  V30 40 1 31 19
M  V30 41 1 35 20
M  V30 42 1 30 22
M  V30 43 1 28 23
M  V30 44 1 1 37
M  V30 45 1 1 38
M  V30 46 1 1 39
M  V30 47 1 2 40
M  V30 48 1 3 41 CFG=1
M  V30 49 1 4 42
M  V30 50 1 4 43
M  V30 51 1 5 44 CFG=1
M  V30 52 1 8 45
M  V30 53 1 8 46
M  V30 54 1 8 47
M  V30 55 1 9 48 CFG=1
M  V30 56 1 11 49
M  V30 57 1 11 50
M  V30 58 1 11 51
M  V30 59 1 14 52
M  V30 60 1 15 53
M  V30 61 1 16 54
M  V30 62 1 17 55
M  V30 63 1 24 56
M  V30 64 1 25 57
M  V30 65 1 26 58
M  V30 66 1 27 59
M  V30 67 1 34 60
M  V30 68 1 35 61 CFG=3
M  V30 69 1 36 62
M  V30 END BOND
M  V30 END CTAB
M  END
>  <Dataset>  (29) 
ChEMBL_Kinases

>  <Ligand_Instance>  (29) 
nan

>  <PDB_ID>  (29) 
nan

>  <Standardized_SMILES>  (29) 
CN[C@@H]1C[C@H]2O[C@@](C)([C@@H]1OC)n1c3ccccc3c3c4c(c5c6ccccc6n2c5c31)C(=O)N[C@H]4O

>  <Name>  (29) 
UCN-01

>  <Pocket>  (29) 
nan

>  <ATP_Site>  (29) 
nan

>  <Peripheral>  (29) 
nan

>  <Num_H_Atoms_ProtBoundConf>  (29) 
nan

>  <Num_Resolved_Atoms>  (29) 
nan

>  <Num_Not_Resolved_Atoms>  (29) 
nan

$$$$
CHEMBL3545083
     RDKit          3D

  0  0  0  0  0  0  0  0  0  0999 V3000
M  V30 BEGIN CTAB
M  V30 COUNTS 75 80 0 0 0
M  V30 BEGIN ATOM
M  V30 1 C 6.538804 -5.319163 0.366931 0
M  V30 2 O 5.910495 -4.977344 -0.810623 0
M  V30 3 C 6.394933 -3.838918 -1.416655 0
M  V30 4 C 6.284638 -2.586081 -0.580540 0
M  V30 5 N 6.810237 -1.487224 -1.320406 0
M  V30 6 C 6.070826 -1.062715 -2.456740 0
M  V30 7 C 5.333320 0.248147 -2.220078 0
M  V30 8 N 5.094325 0.329730 -0.817593 0
M  V30 9 C 4.032602 1.180902 -0.392487 0
M  V30 10 C 2.745240 0.765922 -0.974696 0
M  V30 11 C 2.237871 1.272689 -2.153840 0
M  V30 12 C 1.022446 0.760050 -2.555712 0
M  V30 13 C 0.293623 -0.198700 -1.882815 0
M  V30 14 C -0.966149 -0.593313 -2.496557 0
M  V30 15 N -1.040304 -0.836573 -3.826999 0
M  V30 16 N -2.283629 -1.182138 -4.154420 0
M  V30 17 C -3.025422 -1.162907 -3.022332 0
M  V30 18 C -2.220871 -0.797692 -1.976189 0
M  V30 19 C -2.959620 -0.757533 -0.717757 0
M  V30 20 O -2.500605 -0.458919 0.413310 0
M  V30 21 C -4.323338 -1.143903 -1.115112 0
M  V30 22 C -5.436937 -1.268851 -0.306356 0
M  V30 23 N -5.464354 -1.039332 1.093085 0
M  V30 24 C -5.706005 0.035471 1.968448 0
M  V30 25 O -5.995136 1.200851 1.573666 0
M  V30 26 N -5.604404 -0.273328 3.342812 0
M  V30 27 N -5.843092 0.779136 4.246473 0
M  V30 28 C -7.218914 0.871283 4.622226 0
M  V30 29 C -7.322304 1.459903 6.001253 0
M  V30 30 O -6.363296 2.418617 6.258341 0
M  V30 31 C -5.078096 1.864486 6.263693 0
M  V30 32 C -5.045016 0.584598 5.442978 0
M  V30 33 C -6.622346 -1.648186 -0.903393 0
M  V30 34 C -6.738311 -1.904711 -2.260607 0
M  V30 35 C -5.582802 -1.757613 -2.995671 0
M  V30 36 C -4.354111 -1.381319 -2.475450 0
M  V30 37 C 0.830815 -0.690532 -0.696448 0
M  V30 38 C 2.049955 -0.203934 -0.254466 0
M  V30 39 C 6.348271 0.653605 -0.166520 0
M  V30 40 C 7.338013 -0.422014 -0.516307 0
M  V30 41 H 6.106337 -6.253955 0.794894 0
M  V30 42 H 6.329835 -4.502617 1.122138 0
M  V30 43 H 7.628249 -5.440772 0.283621 0
M  V30 44 H 7.495416 -4.011456 -1.592145 0
M  V30 45 H 5.978772 -3.668375 -2.419181 0
M  V30 46 H 6.790941 -2.683537 0.402344 0
M  V30 47 H 5.184280 -2.459556 -0.388457 0
M  V30 48 H 6.728325 -0.998537 -3.342868 0
M  V30 49 H 5.276310 -1.802583 -2.681224 0
M  V30 50 H 4.468725 0.359489 -2.877310 0
M  V30 51 H 6.052393 1.046884 -2.494921 0
M  V30 52 H 4.032306 1.153189 0.728964 0
M  V30 53 H 4.270632 2.226065 -0.718324 0
M  V30 54 H 2.778988 2.021454 -2.698739 0
M  V30 55 H 0.652788 1.189587 -3.498861 0
M  V30 56 H -2.704806 -1.435761 -5.071383 0
M  V30 57 H -5.222589 -2.016961 1.388126 0
M  V30 58 H -5.365825 -1.222933 3.705946 0
M  V30 59 H -7.773679 -0.075649 4.516293 0
M  V30 60 H -7.727407 1.599418 3.931947 0
M  V30 61 H -7.282662 0.623788 6.758994 0
M  V30 62 H -8.321550 1.914749 6.150116 0
M  V30 63 H -4.423140 2.595159 5.748488 0
M  V30 64 H -4.674063 1.719271 7.281083 0
M  V30 65 H -4.015211 0.328406 5.129261 0
M  V30 66 H -5.437100 -0.252989 6.042819 0
M  V30 67 H -7.553577 -1.770248 -0.332974 0
M  V30 68 H -7.669292 -2.199179 -2.711489 0
M  V30 69 H -5.629268 -1.946747 -4.048306 0
M  V30 70 H 0.234640 -1.440017 -0.194120 0
M  V30 71 H 2.406407 -0.618704 0.657165 0
M  V30 72 H 6.728411 1.608947 -0.613531 0
M  V30 73 H 6.225304 0.777293 0.929937 0
M  V30 74 H 7.670968 -0.886277 0.446791 0
M  V30 75 H 8.274909 0.009593 -0.960692 0
M  V30 END ATOM
M  V30 BEGIN BOND
M  V30 1 1 1 2
M  V30 2 1 2 3
M  V30 3 1 3 4
M  V30 4 1 4 5
M  V30 5 1 5 6
M  V30 6 1 6 7
M  V30 7 1 7 8
M  V30 8 1 8 9
M  V30 9 1 9 10
M  V30 10 2 10 11
M  V30 11 1 11 12
M  V30 12 2 12 13
M  V30 13 1 13 14
M  V30 14 2 14 15
M  V30 15 1 15 16
M  V30 16 1 16 17
M  V30 17 2 17 18
M  V30 18 1 18 19
M  V30 19 2 19 20
M  V30 20 1 19 21
M  V30 21 2 21 22
M  V30 22 1 22 23
M  V30 23 1 23 24
M  V30 24 2 24 25
M  V30 25 1 24 26
M  V30 26 1 26 27
M  V30 27 1 27 28
M  V30 28 1 28 29
M  V30 29 1 29 30
M  V30 30 1 30 31
M  V30 31 1 31 32
M  V30 32 1 22 33
M  V30 33 2 33 34
M  V30 34 1 34 35
M  V30 35 2 35 36
M  V30 36 1 13 37
M  V30 37 2 37 38
M  V30 38 1 8 39
M  V30 39 1 39 40
M  V30 40 1 40 5
M  V30 41 1 38 10
M  V30 42 1 18 14
M  V30 43 1 36 21
M  V30 44 1 36 17
M  V30 45 1 32 27
M  V30 46 1 1 41
M  V30 47 1 1 42
M  V30 48 1 1 43
M  V30 49 1 3 44
M  V30 50 1 3 45
M  V30 51 1 4 46
M  V30 52 1 4 47
M  V30 53 1 6 48
M  V30 54 1 6 49
M  V30 55 1 7 50
M  V30 56 1 7 51
M  V30 57 1 9 52
M  V30 58 1 9 53
M  V30 59 1 11 54
M  V30 60 1 12 55
M  V30 61 1 16 56
M  V30 62 1 23 57
M  V30 63 1 26 58
M  V30 64 1 28 59
M  V30 65 1 28 60
M  V30 66 1 29 61
M  V30 67 1 29 62
M  V30 68 1 31 63
M  V30 69 1 31 64
M  V30 70 1 32 65
M  V30 71 1 32 66
M  V30 72 1 33 67
M  V30 73 1 34 68
M  V30 74 1 35 69
M  V30 75 1 37 70
M  V30 76 1 38 71
M  V30 77 1 39 72
M  V30 78 1 39 73
M  V30 79 1 40 74
M  V30 80 1 40 75
M  V30 END BOND
M  V30 END CTAB
M  END
>  <Dataset>  (30) 
ChEMBL_Kinases

>  <Ligand_Instance>  (30) 
nan

>  <PDB_ID>  (30) 
nan

>  <Standardized_SMILES>  (30) 
COCCN1CCN(Cc2ccc(-c3n[nH]c4c3C(=O)c3c(NC(=O)NN5CCOCC5)cccc3-4)cc2)CC1

>  <Name>  (30) 
RGB-286638

>  <Pocket>  (30) 
nan

>  <ATP_Site>  (30) 
nan

>  <Peripheral>  (30) 
nan

>  <Num_H_Atoms_ProtBoundConf>  (30) 
nan

>  <Num_Resolved_Atoms>  (30) 
nan

>  <Num_Not_Resolved_Atoms>  (30) 
nan

$$$$
CHEMBL2041933
     RDKit          3D

  0  0  0  0  0  0  0  0  0  0999 V3000
M  V30 BEGIN CTAB
M  V30 COUNTS 44 46 0 0 0
M  V30 BEGIN ATOM
M  V30 1 N 4.124324 -3.285987 1.995253 0
M  V30 2 C 3.450247 -2.100222 1.566074 0
M  V30 3 O 3.332422 -1.220038 2.475732 0
M  V30 4 N 2.947229 -1.886591 0.263606 0
M  V30 5 C 2.325735 -0.614891 0.129016 0
M  V30 6 C 2.921871 0.556142 -0.246507 0
M  V30 7 C 2.241717 1.708426 -0.343249 0
M  V30 8 C 2.677656 3.028889 -0.715841 0
M  V30 9 C 4.000400 3.254095 -1.048172 0
M  V30 10 C 4.374810 4.534188 -1.399030 0
M  V30 11 C 3.448031 5.553917 -1.414775 0
M  V30 12 C 2.131688 5.301714 -1.078120 0
M  V30 13 F 1.257678 6.349308 -1.111102 0
M  V30 14 C 1.720855 4.020715 -0.719230 0
M  V30 15 S 0.554328 1.216812 0.123856 0
M  V30 16 C 0.925412 -0.470543 0.400082 0
M  V30 17 C -0.017657 -1.539741 0.828820 0
M  V30 18 O 0.435940 -2.674256 0.970592 0
M  V30 19 N -1.343053 -1.145002 1.030907 0
M  V30 20 C -2.276915 -2.186282 1.451774 0 CFG=1
M  V30 21 C -2.971477 -1.860085 2.752730 0
M  V30 22 C -3.832330 -3.071012 3.072141 0
M  V30 23 C -3.844936 -4.092967 1.973837 0
M  V30 24 N -4.064793 -3.558830 0.666878 0
M  V30 25 C -3.381405 -2.324126 0.422197 0
M  V30 26 H 3.699653 -3.929313 2.723944 0
M  V30 27 H 5.025656 -3.745276 1.759829 0
M  V30 28 H 3.075139 -2.654296 -0.449094 0
M  V30 29 H 3.999755 0.567131 -0.480938 0
M  V30 30 H 4.680624 2.414141 -1.017300 0
M  V30 31 H 5.436935 4.620438 -1.645914 0
M  V30 32 H 3.821575 6.532840 -1.701872 0
M  V30 33 H 0.679754 3.846011 -0.458206 0
M  V30 34 H -1.732678 -0.183325 0.911838 0
M  V30 35 H -1.794834 -3.160686 1.553653 0
M  V30 36 H -2.313708 -1.557300 3.566583 0
M  V30 37 H -3.701223 -1.028906 2.553519 0
M  V30 38 H -4.836337 -2.804679 3.455331 0
M  V30 39 H -3.324444 -3.579368 3.943636 0
M  V30 40 H -4.733513 -4.754883 2.191389 0
M  V30 41 H -2.959709 -4.760539 2.049517 0
M  V30 42 H -3.736766 -4.244485 -0.049535 0
M  V30 43 H -4.077333 -1.444777 0.520462 0
M  V30 44 H -2.948436 -2.297180 -0.596725 0
M  V30 END ATOM
M  V30 BEGIN BOND
M  V30 1 1 1 2
M  V30 2 2 2 3
M  V30 3 1 2 4
M  V30 4 1 4 5
M  V30 5 1 5 6
M  V30 6 2 6 7
M  V30 7 1 7 8
M  V30 8 2 8 9
M  V30 9 1 9 10
M  V30 10 2 10 11
M  V30 11 1 11 12
M  V30 12 1 12 13
M  V30 13 2 12 14
M  V30 14 1 7 15
M  V30 15 1 15 16
M  V30 16 1 16 17
M  V30 17 2 17 18
M  V30 18 1 17 19
M  V30 19 1 19 20
M  V30 20 1 20 21
M  V30 21 1 21 22
M  V30 22 1 22 23
M  V30 23 1 23 24
M  V30 24 1 24 25
M  V30 25 2 16 5
M  V30 26 1 25 20
M  V30 27 1 14 8
M  V30 28 1 1 26
M  V30 29 1 1 27
M  V30 30 1 4 28
M  V30 31 1 6 29
M  V30 32 1 9 30
M  V30 33 1 10 31
M  V30 34 1 11 32
M  V30 35 1 14 33
M  V30 36 1 19 34
M  V30 37 1 20 35 CFG=1
M  V30 38 1 21 36
M  V30 39 1 21 37
M  V30 40 1 22 38
M  V30 41 1 22 39
M  V30 42 1 23 40
M  V30 43 1 23 41
M  V30 44 1 24 42
M  V30 45 1 25 43
M  V30 46 1 25 44
M  V30 END BOND
M  V30 END CTAB
M  END
>  <Dataset>  (31) 
ChEMBL_Kinases

>  <Ligand_Instance>  (31) 
nan

>  <PDB_ID>  (31) 
nan

>  <Standardized_SMILES>  (31) 
NC(=O)Nc1cc(-c2cccc(F)c2)sc1C(=O)N[C@H]1CCCNC1

>  <Name>  (31) 
AZD-7762

>  <Pocket>  (31) 
nan

>  <ATP_Site>  (31) 
nan

>  <Peripheral>  (31) 
nan

>  <Num_H_Atoms_ProtBoundConf>  (31) 
nan

>  <Num_Resolved_Atoms>  (31) 
nan

>  <Num_Not_Resolved_Atoms>  (31) 
nan

$$$$
CHEMBL1230165
     RDKit          3D

  0  0  0  0  0  0  0  0  0  0999 V3000
M  V30 BEGIN CTAB
M  V30 COUNTS 37 40 0 0 0
M  V30 BEGIN ATOM
M  V30 1 O 1.276893 -3.320422 5.922565 0
M  V30 2 C 0.713396 -2.491487 5.159964 0
M  V30 3 O -0.242478 -1.672885 5.736189 0
M  V30 4 C 1.055922 -2.403727 3.740402 0
M  V30 5 C 2.020054 -3.256180 3.242388 0
M  V30 6 C 2.353623 -3.180776 1.890469 0
M  V30 7 C 1.724711 -2.267690 1.078219 0
M  V30 8 C 0.770569 -1.442428 1.629518 0
M  V30 9 C 0.387135 -1.463703 2.974984 0
M  V30 10 N 0.178535 -0.569601 0.823245 0
M  V30 11 C 0.400369 -0.391515 -0.482601 0
M  V30 12 N -0.245807 0.543747 -1.305497 0
M  V30 13 C -1.256043 1.483398 -0.987005 0
M  V30 14 C -1.788524 2.427378 -1.860795 0
M  V30 15 C -2.770011 3.319674 -1.512952 0
M  V30 16 C -3.297266 3.330431 -0.243812 0
M  V30 17 C -2.807006 2.415998 0.665055 0
M  V30 18 Cl -3.508514 2.470329 2.260429 0
M  V30 19 C -1.820878 1.541506 0.264653 0
M  V30 20 C 1.350397 -1.217507 -1.018219 0
M  V30 21 C 1.742314 -1.213072 -2.339092 0
M  V30 22 C 2.692888 -2.027350 -2.914489 0
M  V30 23 N 3.301666 -2.925088 -2.084564 0
M  V30 24 C 2.972101 -2.989684 -0.779981 0
M  V30 25 C 2.016716 -2.153441 -0.258474 0
M  V30 26 H -0.489629 -1.723628 6.729385 0
M  V30 27 H 2.491174 -3.967070 3.936560 0
M  V30 28 H 3.091845 -3.855091 1.579013 0
M  V30 29 H -0.367340 -0.796899 3.365461 0
M  V30 30 H -0.022772 0.636872 -2.300805 0
M  V30 31 H -1.384135 2.441474 -2.884694 0
M  V30 32 H -3.100158 4.004899 -2.285261 0
M  V30 33 H -4.062586 4.076256 -0.088142 0
M  V30 34 H -1.554592 0.901347 1.084760 0
M  V30 35 H 1.289415 -0.523558 -3.028894 0
M  V30 36 H 2.950844 -1.966861 -3.967795 0
M  V30 37 H 3.534822 -3.730071 -0.297218 0
M  V30 END ATOM
M  V30 BEGIN BOND
M  V30 1 2 1 2
M  V30 2 1 2 3
M  V30 3 1 2 4
M  V30 4 2 4 5
M  V30 5 1 5 6
M  V30 6 2 6 7
M  V30 7 1 7 8
M  V30 8 2 8 9
M  V30 9 1 8 10
M  V30 10 2 10 11
M  V30 11 1 11 12
M  V30 12 1 12 13
M  V30 13 2 13 14
M  V30 14 1 14 15
M  V30 15 2 15 16
M  V30 16 1 16 17
M  V30 17 1 17 18
M  V30 18 2 17 19
M  V30 19 1 11 20
M  V30 20 2 20 21
M  V30 21 1 21 22
M  V30 22 2 22 23
M  V30 23 1 23 24
M  V30 24 2 24 25
M  V30 25 1 9 4
M  V30 26 1 19 13
M  V30 27 1 25 20
M  V30 28 1 25 7
M  V30 29 1 3 26
M  V30 30 1 5 27
M  V30 31 1 6 28
M  V30 32 1 9 29
M  V30 33 1 12 30
M  V30 34 1 14 31
M  V30 35 1 15 32
M  V30 36 1 16 33
M  V30 37 1 19 34
M  V30 38 1 21 35
M  V30 39 1 22 36
M  V30 40 1 24 37
M  V30 END BOND
M  V30 END CTAB
M  END
>  <Dataset>  (32) 
ChEMBL_Kinases

>  <Ligand_Instance>  (32) 
nan

>  <PDB_ID>  (32) 
nan

>  <Standardized_SMILES>  (32) 
O=C(O)c1ccc2c(c1)nc(Nc1cccc(Cl)c1)c1ccncc12

>  <Name>  (32) 
SILMITASERTIB

>  <Pocket>  (32) 
nan

>  <ATP_Site>  (32) 
nan

>  <Peripheral>  (32) 
nan

>  <Num_H_Atoms_ProtBoundConf>  (32) 
nan

>  <Num_Resolved_Atoms>  (32) 
nan

>  <Num_Not_Resolved_Atoms>  (32) 
nan

$$$$
CHEMBL3991929
     RDKit          3D

  0  0  0  0  0  0  0  0  0  0999 V3000
M  V30 BEGIN CTAB
M  V30 COUNTS 58 61 0 0 0
M  V30 BEGIN ATOM
M  V30 1 C 7.842278 -2.984109 0.613917 0
M  V30 2 C 7.237718 -3.119500 2.010821 0
M  V30 3 S 5.603582 -3.844061 1.850695 0
M  V30 4 O 5.055427 -3.967970 3.259838 0
M  V30 5 O 5.676234 -5.194032 1.233756 0
M  V30 6 N 4.667491 -2.796714 0.878659 0
M  V30 7 C 4.508035 -1.480958 1.466567 0
M  V30 8 C 3.946185 -0.610959 0.332640 0
M  V30 9 N 2.574753 -1.012321 0.145812 0
M  V30 10 C 1.437313 -0.189655 0.319896 0
M  V30 11 C 1.584164 1.115686 0.722891 0
M  V30 12 C 0.528534 1.970566 0.911465 0
M  V30 13 C -0.783268 1.531359 0.693389 0
M  V30 14 N -1.895740 2.394925 0.880321 0
M  V30 15 C -3.301857 2.152428 0.720362 0
M  V30 16 N -4.155029 3.154769 0.963314 0
M  V30 17 C -5.464781 2.947043 0.819774 0
M  V30 18 C -5.950117 1.733192 0.430265 0
M  V30 19 C -7.382486 1.619808 0.306555 0
M  V30 20 N -8.292225 2.657229 0.555676 0
M  V30 21 O -8.229625 0.775883 0.003961 0
M  V30 22 C -5.097889 0.702795 0.178952 0
M  V30 23 N -5.561912 -0.569417 -0.225899 0
M  V30 24 C -4.828056 -1.773400 -0.535114 0
M  V30 25 C -3.844652 -1.722711 -1.646648 0
M  V30 26 C -5.098291 -2.526994 -1.786400 0
M  V30 27 N -3.812367 0.976353 0.340528 0
M  V30 28 C -0.899778 0.217500 0.289834 0
M  V30 29 C 0.162909 -0.656399 0.095890 0
M  V30 30 C 2.555042 -2.406952 -0.250421 0
M  V30 31 C 3.324799 -3.307690 0.693129 0
M  V30 32 H 8.950213 -2.991687 0.658450 0
M  V30 33 H 7.531274 -3.829395 -0.032585 0
M  V30 34 H 7.520146 -2.036900 0.127889 0
M  V30 35 H 7.162981 -2.127147 2.456027 0
M  V30 36 H 7.890011 -3.786680 2.609994 0
M  V30 37 H 5.451627 -1.077040 1.874919 0
M  V30 38 H 3.691626 -1.552692 2.214447 0
M  V30 39 H 4.120253 0.448218 0.521028 0
M  V30 40 H 4.491975 -0.862821 -0.625345 0
M  V30 41 H 2.532419 1.588795 0.928065 0
M  V30 42 H 0.657258 3.000994 1.230195 0
M  V30 43 H -1.629521 3.375626 1.188506 0
M  V30 44 H -6.114525 3.784703 1.026758 0
M  V30 45 H -8.362442 3.606601 0.114223 0
M  V30 46 H -8.374835 3.605225 0.125842 0
M  V30 47 H -6.552760 -0.800090 -0.356175 0
M  V30 48 H -4.614853 -2.418666 0.357340 0
M  V30 49 H -2.883247 -2.251676 -1.474337 0
M  V30 50 H -3.814046 -0.786348 -2.259518 0
M  V30 51 H -5.904005 -2.148192 -2.427742 0
M  V30 52 H -4.970884 -3.631761 -1.821047 0
M  V30 53 H -1.857465 -0.218668 0.095562 0
M  V30 54 H -0.028100 -1.672269 -0.223076 0
M  V30 55 H 3.052541 -2.531752 -1.258374 0
M  V30 56 H 1.574028 -2.855383 -0.356651 0
M  V30 57 H 2.824377 -3.338355 1.666617 0
M  V30 58 H 3.294168 -4.316180 0.251829 0
M  V30 END ATOM
M  V30 BEGIN BOND
M  V30 1 1 1 2
M  V30 2 1 2 3
M  V30 3 2 3 4
M  V30 4 2 3 5
M  V30 5 1 3 6
M  V30 6 1 6 7
M  V30 7 1 7 8
M  V30 8 1 8 9
M  V30 9 1 9 10
M  V30 10 2 10 11
M  V30 11 1 11 12
M  V30 12 2 12 13
M  V30 13 1 13 14
M  V30 14 1 14 15
M  V30 15 2 15 16
M  V30 16 1 16 17
M  V30 17 2 17 18
M  V30 18 1 18 19
M  V30 19 1 19 20
M  V30 20 2 19 21
M  V30 21 1 18 22
M  V30 22 1 22 23
M  V30 23 1 23 24
M  V30 24 1 24 25
M  V30 25 1 25 26
M  V30 26 2 22 27
M  V30 27 1 13 28
M  V30 28 2 28 29
M  V30 29 1 9 30
M  V30 30 1 30 31
M  V30 31 1 31 6
M  V30 32 1 29 10
M  V30 33 1 27 15
M  V30 34 1 26 24
M  V30 35 1 1 32
M  V30 36 1 1 33
M  V30 37 1 1 34
M  V30 38 1 2 35
M  V30 39 1 2 36
M  V30 40 1 7 37
M  V30 41 1 7 38
M  V30 42 1 8 39
M  V30 43 1 8 40
M  V30 44 1 11 41
M  V30 45 1 12 42
M  V30 46 1 14 43
M  V30 47 1 17 44
M  V30 48 1 20 45
M  V30 49 1 20 46
M  V30 50 1 23 47
M  V30 51 1 24 48
M  V30 52 1 25 49
M  V30 53 1 25 50
M  V30 54 1 26 51
M  V30 55 1 26 52
M  V30 56 1 28 53
M  V30 57 1 29 54
M  V30 58 1 30 55
M  V30 59 1 30 56
M  V30 60 1 31 57
M  V30 61 1 31 58
M  V30 END BOND
M  V30 END CTAB
M  END
>  <Dataset>  (33) 
ChEMBL_Kinases

>  <Ligand_Instance>  (33) 
nan

>  <PDB_ID>  (33) 
nan

>  <Standardized_SMILES>  (33) 
CCS(=O)(=O)N1CCN(c2ccc(Nc3ncc(C(N)=O)c(NC4CC4)n3)cc2)CC1

>  <Name>  (33) 
Cerdulatinib Hydrochloride

>  <Pocket>  (33) 
nan

>  <ATP_Site>  (33) 
nan

>  <Peripheral>  (33) 
nan

>  <Num_H_Atoms_ProtBoundConf>  (33) 
nan

>  <Num_Resolved_Atoms>  (33) 
nan

>  <Num_Not_Resolved_Atoms>  (33) 
nan

$$$$
CHEMBL3545085
     RDKit          3D

  0  0  0  0  0  0  0  0  0  0999 V3000
M  V30 BEGIN CTAB
M  V30 COUNTS 63 67 0 0 0
M  V30 BEGIN ATOM
M  V30 1 C 2.369040 -1.218748 5.950935 0
M  V30 2 C 3.166275 -2.138234 5.074974 0
M  V30 3 C 4.566780 -2.254116 5.638072 0
M  V30 4 C 3.261588 -1.639871 3.685683 0
M  V30 5 C 3.775951 -0.453760 3.196799 0
M  V30 6 C 3.651834 -0.420663 1.811205 0
M  V30 7 C 4.054352 0.630199 0.847515 0
M  V30 8 N 2.960261 1.556302 0.657607 0
M  V30 9 C 1.718823 1.094778 0.147242 0
M  V30 10 N 0.752075 1.996886 -0.029381 0
M  V30 11 C -0.472940 1.715104 -0.502453 0
M  V30 12 N -1.441855 2.721592 -0.671020 0
M  V30 13 C -2.780645 2.781140 -1.091317 0
M  V30 14 C -3.720045 1.855000 -1.473418 0
M  V30 15 C -4.925212 2.417016 -1.819583 0
M  V30 16 C -6.198804 1.813989 -2.282288 0
M  V30 17 C -7.459586 2.554366 -2.174113 0
M  V30 18 C -6.845291 2.461866 -3.538013 0
M  V30 19 N -4.672334 3.719761 -1.630100 0
M  V30 20 N -3.449648 3.947596 -1.213453 0
M  V30 21 C -0.603735 0.372591 -0.782609 0
M  V30 22 C 0.326429 -0.609874 -0.632373 0
M  V30 23 N 0.125960 -1.969121 -0.937220 0
M  V30 24 C 1.212098 -2.906913 -0.755128 0
M  V30 25 C 0.944650 -4.101472 -1.644722 0
M  V30 26 N -0.244202 -4.817786 -1.224681 0
M  V30 27 C 0.057367 -5.799503 -0.201050 0
M  V30 28 C -1.282862 -3.906620 -0.779629 0
M  V30 29 C -1.102270 -2.551284 -1.431690 0
M  V30 30 N 1.517451 -0.197563 -0.148247 0
M  V30 31 O 3.083554 -1.556175 1.529106 0
M  V30 32 N 2.846944 -2.277186 2.578969 0
M  V30 33 H 3.005637 -0.378881 6.291601 0
M  V30 34 H 1.456939 -0.899218 5.429058 0
M  V30 35 H 2.050079 -1.832251 6.831072 0
M  V30 36 H 2.688750 -3.143917 5.072013 0
M  V30 37 H 4.950086 -3.298336 5.536622 0
M  V30 38 H 4.569817 -1.897812 6.670336 0
M  V30 39 H 5.263624 -1.630105 5.044185 0
M  V30 40 H 4.209623 0.331437 3.796443 0
M  V30 41 H 4.973356 1.119792 1.197856 0
M  V30 42 H 4.295572 0.121518 -0.132864 0
M  V30 43 H 3.134221 2.538738 0.908007 0
M  V30 44 H -1.032642 3.670825 -0.404652 0
M  V30 45 H -3.607560 0.789425 -1.520988 0
M  V30 46 H -6.189748 0.709409 -2.348616 0
M  V30 47 H -7.490609 3.548506 -1.689952 0
M  V30 48 H -8.386120 1.934579 -2.020774 0
M  V30 49 H -7.259212 1.789753 -4.308419 0
M  V30 50 H -6.323884 3.375880 -3.938647 0
M  V30 51 H -5.310439 4.551682 -1.769734 0
M  V30 52 H -1.533853 -0.001801 -1.173921 0
M  V30 53 H 1.308921 -3.250119 0.296898 0
M  V30 54 H 2.123646 -2.401400 -1.134763 0
M  V30 55 H 0.766627 -3.752643 -2.680204 0
M  V30 56 H 1.796720 -4.779164 -1.563703 0
M  V30 57 H 0.129732 -6.781892 -0.683267 0
M  V30 58 H 0.994736 -5.468947 0.306092 0
M  V30 59 H -0.822515 -5.808990 0.487154 0
M  V30 60 H -2.236454 -4.321658 -1.175092 0
M  V30 61 H -1.370039 -3.877055 0.309379 0
M  V30 62 H -2.003781 -1.963891 -1.243519 0
M  V30 63 H -0.998696 -2.745327 -2.522926 0
M  V30 END ATOM
M  V30 BEGIN BOND
M  V30 1 1 1 2
M  V30 2 1 2 3
M  V30 3 1 2 4
M  V30 4 1 4 5
M  V30 5 2 5 6
M  V30 6 1 6 7
M  V30 7 1 7 8
M  V30 8 1 8 9
M  V30 9 2 9 10
M  V30 10 1 10 11
M  V30 11 1 11 12
M  V30 12 1 12 13
M  V30 13 1 13 14
M  V30 14 2 14 15
M  V30 15 1 15 16
M  V30 16 1 16 17
M  V30 17 1 17 18
M  V30 18 1 15 19
M  V30 19 1 19 20
M  V30 20 2 11 21
M  V30 21 1 21 22
M  V30 22 1 22 23
M  V30 23 1 23 24
M  V30 24 1 24 25
M  V30 25 1 25 26
M  V30 26 1 26 27
M  V30 27 1 26 28
M  V30 28 1 28 29
M  V30 29 2 22 30
M  V30 30 1 6 31
M  V30 31 1 31 32
M  V30 32 2 32 4
M  V30 33 1 30 9
M  V30 34 2 20 13
M  V30 35 1 29 23
M  V30 36 1 18 16
M  V30 37 1 1 33
M  V30 38 1 1 34
M  V30 39 1 1 35
M  V30 40 1 2 36
M  V30 41 1 3 37
M  V30 42 1 3 38
M  V30 43 1 3 39
M  V30 44 1 5 40
M  V30 45 1 7 41
M  V30 46 1 7 42
M  V30 47 1 8 43
M  V30 48 1 12 44
M  V30 49 1 14 45
M  V30 50 1 16 46
M  V30 51 1 17 47
M  V30 52 1 17 48
M  V30 53 1 18 49
M  V30 54 1 18 50
M  V30 55 1 19 51
M  V30 56 1 21 52
M  V30 57 1 24 53
M  V30 58 1 24 54
M  V30 59 1 25 55
M  V30 60 1 25 56
M  V30 61 1 27 57
M  V30 62 1 27 58
M  V30 63 1 27 59
M  V30 64 1 28 60
M  V30 65 1 28 61
M  V30 66 1 29 62
M  V30 67 1 29 63
M  V30 END BOND
M  V30 END CTAB
M  END
>  <Dataset>  (34) 
ChEMBL_Kinases

>  <Ligand_Instance>  (34) 
nan

>  <PDB_ID>  (34) 
nan

>  <Standardized_SMILES>  (34) 
CC(C)c1cc(CNc2nc(Nc3cc(C4CC4)[nH]n3)cc(N3CCN(C)CC3)n2)on1

>  <Name>  (34) 
XL-228

>  <Pocket>  (34) 
nan

>  <ATP_Site>  (34) 
nan

>  <Peripheral>  (34) 
nan

>  <Num_H_Atoms_ProtBoundConf>  (34) 
nan

>  <Num_Resolved_Atoms>  (34) 
nan

>  <Num_Not_Resolved_Atoms>  (34) 
nan

$$$$
CHEMBL3301610
     RDKit          3D

  0  0  0  0  0  0  0  0  0  0999 V3000
M  V30 BEGIN CTAB
M  V30 COUNTS 69 73 0 0 0
M  V30 BEGIN ATOM
M  V30 1 C 3.204152 -2.583726 5.015570 0
M  V30 2 C 4.263011 -2.680761 3.934964 0
M  V30 3 N 3.606068 -2.944329 2.675078 0
M  V30 4 C 2.838064 -1.779273 2.287772 0
M  V30 5 C 2.782584 -1.779084 0.777158 0
M  V30 6 N 4.053788 -1.368141 0.285035 0
M  V30 7 C 4.330338 0.023514 0.295691 0
M  V30 8 C 3.323147 0.773595 -0.501591 0
M  V30 9 C 3.362534 1.050722 -1.852926 0
M  V30 10 C 2.345500 1.758985 -2.459161 0
M  V30 11 C 1.248548 2.224584 -1.764649 0
M  V30 12 N 0.174168 2.950266 -2.395009 0
M  V30 13 C -0.885224 3.367347 -1.505674 0
M  V30 14 N -1.220283 4.645349 -1.241238 0
M  V30 15 C -2.228156 4.903745 -0.369895 0
M  V30 16 C -2.920285 3.884376 0.254048 0
M  V30 17 F -3.926076 4.023639 1.126609 0
M  V30 18 C -2.575507 2.589175 -0.018266 0
M  V30 19 C -3.151448 1.341194 0.529240 0
M  V30 20 C -3.404851 1.289317 1.894830 0
M  V30 21 C -3.929475 0.111461 2.397786 0
M  V30 22 F -4.217499 -0.055248 3.714453 0
M  V30 23 C -4.180821 -0.954614 1.548666 0
M  V30 24 N -4.677953 -2.212633 1.731088 0
M  V30 25 C -4.709530 -2.842233 0.554897 0
M  V30 26 C -5.209312 -4.248784 0.443486 0
M  V30 27 N -4.238208 -2.028254 -0.438252 0
M  V30 28 C -4.136867 -2.394145 -1.837461 0
M  V30 29 C -5.426279 -2.011446 -2.580894 0
M  V30 30 C -2.922611 -1.885846 -2.530847 0
M  V30 31 C -3.924410 -0.887377 0.196414 0
M  V30 32 C -3.402242 0.279041 -0.316895 0
M  V30 33 N -1.560692 2.358358 -0.896817 0
M  V30 34 N 1.238258 1.940108 -0.450163 0
M  V30 35 C 2.201642 1.255398 0.185286 0
M  V30 36 C 5.073558 -2.207564 0.823510 0
M  V30 37 C 4.553260 -3.346427 1.679469 0
M  V30 38 H 2.285864 -3.108572 4.660924 0
M  V30 39 H 3.013679 -1.543243 5.343065 0
M  V30 40 H 3.553540 -3.135124 5.913790 0
M  V30 41 H 4.989547 -3.505904 4.159729 0
M  V30 42 H 4.776678 -1.699022 3.874719 0
M  V30 43 H 3.344634 -0.852355 2.619507 0
M  V30 44 H 1.828255 -1.746674 2.745901 0
M  V30 45 H 2.506311 -2.815533 0.413831 0
M  V30 46 H 1.918981 -1.157791 0.466757 0
M  V30 47 H 4.277315 0.399531 1.335805 0
M  V30 48 H 5.365809 0.238558 -0.045616 0
M  V30 49 H 4.224388 0.678409 -2.371164 0
M  V30 50 H 2.404601 1.961670 -3.526942 0
M  V30 51 H 0.259004 3.105363 -3.420861 0
M  V30 52 H -2.518778 5.916122 -0.138553 0
M  V30 53 H -3.219823 2.097513 2.567497 0
M  V30 54 H -5.316502 -4.573852 -0.592191 0
M  V30 55 H -6.120983 -4.326588 1.042423 0
M  V30 56 H -4.446699 -4.894857 0.958330 0
M  V30 57 H -4.091443 -3.504021 -1.884898 0
M  V30 58 H -6.099247 -2.902213 -2.707840 0
M  V30 59 H -6.004185 -1.314002 -1.921584 0
M  V30 60 H -5.206175 -1.590318 -3.577985 0
M  V30 61 H -2.512741 -2.657555 -3.249696 0
M  V30 62 H -3.210279 -1.049285 -3.233403 0
M  V30 63 H -2.076603 -1.647315 -1.880064 0
M  V30 64 H -3.175791 0.416165 -1.342292 0
M  V30 65 H 2.014966 1.129160 1.238166 0
M  V30 66 H 5.653618 -2.717766 -0.003451 0
M  V30 67 H 5.814410 -1.614236 1.406055 0
M  V30 68 H 4.174327 -4.191068 1.044976 0
M  V30 69 H 5.451264 -3.761263 2.218076 0
M  V30 END ATOM
M  V30 BEGIN BOND
M  V30 1 1 1 2
M  V30 2 1 2 3
M  V30 3 1 3 4
M  V30 4 1 4 5
M  V30 5 1 5 6
M  V30 6 1 6 7
M  V30 7 1 7 8
M  V30 8 2 8 9
M  V30 9 1 9 10
M  V30 10 2 10 11
M  V30 11 1 11 12
M  V30 12 1 12 13
M  V30 13 2 13 14
M  V30 14 1 14 15
M  V30 15 2 15 16
M  V30 16 1 16 17
M  V30 17 1 16 18
M  V30 18 1 18 19
M  V30 19 2 19 20
M  V30 20 1 20 21
M  V30 21 1 21 22
M  V30 22 2 21 23
M  V30 23 1 23 24
M  V30 24 2 24 25
M  V30 25 1 25 26
M  V30 26 1 25 27
M  V30 27 1 27 28
M  V30 28 1 28 29
M  V30 29 1 28 30
M  V30 30 1 27 31
M  V30 31 2 31 32
M  V30 32 2 18 33
M  V30 33 1 11 34
M  V30 34 2 34 35
M  V30 35 1 6 36
M  V30 36 1 36 37
M  V30 37 1 37 3
M  V30 38 1 35 8
M  V30 39 1 33 13
M  V30 40 1 32 19
M  V30 41 1 31 23
M  V30 42 1 1 38
M  V30 43 1 1 39
M  V30 44 1 1 40
M  V30 45 1 2 41
M  V30 46 1 2 42
M  V30 47 1 4 43
M  V30 48 1 4 44
M  V30 49 1 5 45
M  V30 50 1 5 46
M  V30 51 1 7 47
M  V30 52 1 7 48
M  V30 53 1 9 49
M  V30 54 1 10 50
M  V30 55 1 12 51
M  V30 56 1 15 52
M  V30 57 1 20 53
M  V30 58 1 26 54
M  V30 59 1 26 55
M  V30 60 1 26 56
M  V30 61 1 28 57
M  V30 62 1 29 58
M  V30 63 1 29 59
M  V30 64 1 29 60
M  V30 65 1 30 61
M  V30 66 1 30 62
M  V30 67 1 30 63
M  V30 68 1 32 64
M  V30 69 1 35 65
M  V30 70 1 36 66
M  V30 71 1 36 67
M  V30 72 1 37 68
M  V30 73 1 37 69
M  V30 END BOND
M  V30 END CTAB
M  END
>  <Dataset>  (35) 
ChEMBL_Kinases

>  <Ligand_Instance>  (35) 
nan

>  <PDB_ID>  (35) 
nan

>  <Standardized_SMILES>  (35) 
CCN1CCN(Cc2ccc(Nc3ncc(F)c(-c4cc(F)c5nc(C)n(C(C)C)c5c4)n3)nc2)CC1

>  <Name>  (35) 
ABEMACICLIB

>  <Pocket>  (35) 
nan

>  <ATP_Site>  (35) 
nan

>  <Peripheral>  (35) 
nan

>  <Num_H_Atoms_ProtBoundConf>  (35) 
nan

>  <Num_Resolved_Atoms>  (35) 
nan

>  <Num_Not_Resolved_Atoms>  (35) 
nan

$$$$
CHEMBL1725279
     RDKit          3D

  0  0  0  0  0  0  0  0  0  0999 V3000
M  V30 BEGIN CTAB
M  V30 COUNTS 25 28 0 0 0
M  V30 BEGIN ATOM
M  V30 1 O -1.211797 -2.544241 0.694129 0
M  V30 2 C -0.444842 -1.399936 0.788796 0
M  V30 3 C 0.170647 -0.987009 1.963599 0
M  V30 4 C 0.015492 -1.753804 3.108305 0
M  V30 5 C 0.627298 -1.349681 4.289853 0
M  V30 6 C 1.375579 -0.194376 4.297724 0
M  V30 7 C 1.553746 0.598402 3.174014 0
M  V30 8 C 0.930118 0.168401 2.008918 0
M  V30 9 C 1.101588 0.952314 0.881914 0
M  V30 10 C 0.468394 0.496677 -0.259647 0
M  V30 11 C 0.743831 1.397287 -1.290288 0
M  V30 12 C 0.175878 1.078917 -2.510598 0
M  V30 13 C -0.610172 -0.070168 -2.659164 0
M  V30 14 C -0.848878 -0.930090 -1.593311 0
M  V30 15 C -0.298632 -0.645004 -0.360251 0
M  V30 16 N 1.567236 2.411663 -0.723061 0
M  V30 17 N 1.771771 2.156024 0.521530 0
M  V30 18 H -0.808639 -3.447421 0.444825 0
M  V30 19 H -0.586047 -2.657600 3.047737 0
M  V30 20 H 0.510173 -1.951151 5.203224 0
M  V30 21 H 1.859707 0.125865 5.231696 0
M  V30 22 H 2.140722 1.505099 3.179251 0
M  V30 23 H 0.371599 1.753877 -3.319072 0
M  V30 24 H -1.043869 -0.297084 -3.626254 0
M  V30 25 H -1.445457 -1.821595 -1.663909 0
M  V30 END ATOM
M  V30 BEGIN BOND
M  V30 1 1 1 2
M  V30 2 2 2 3
M  V30 3 1 3 4
M  V30 4 2 4 5
M  V30 5 1 5 6
M  V30 6 2 6 7
M  V30 7 1 7 8
M  V30 8 2 8 9
M  V30 9 1 9 10
M  V30 10 2 10 11
M  V30 11 1 11 12
M  V30 12 2 12 13
M  V30 13 1 13 14
M  V30 14 2 14 15
M  V30 15 1 11 16
M  V30 16 2 16 17
M  V30 17 1 15 2
M  V30 18 1 8 3
M  V30 19 1 17 9
M  V30 20 1 15 10
M  V30 21 1 1 18
M  V30 22 1 4 19
M  V30 23 1 5 20
M  V30 24 1 6 21
M  V30 25 1 7 22
M  V30 26 1 12 23
M  V30 27 1 13 24
M  V30 28 1 14 25
M  V30 END BOND
M  V30 END CTAB
M  END
>  <Dataset>  (36) 
ChEMBL_Kinases

>  <Ligand_Instance>  (36) 
nan

>  <PDB_ID>  (36) 
nan

>  <Standardized_SMILES>  (36) 
Oc1c2ccccc2c2c3c(cccc13)N=N2

>  <Name>  (36) 
SP-600125

>  <Pocket>  (36) 
nan

>  <ATP_Site>  (36) 
nan

>  <Peripheral>  (36) 
nan

>  <Num_H_Atoms_ProtBoundConf>  (36) 
nan

>  <Num_Resolved_Atoms>  (36) 
nan

>  <Num_Not_Resolved_Atoms>  (36) 
nan

$$$$
CHEMBL2105728
     RDKit          3D

  0  0  0  0  0  0  0  0  0  0999 V3000
M  V30 BEGIN CTAB
M  V30 COUNTS 62 67 0 0 0
M  V30 BEGIN ATOM
M  V30 1 C 3.917811 -3.338933 -0.123330 0
M  V30 2 C 5.162515 -2.569997 -0.357757 0
M  V30 3 C 5.478416 -1.365384 0.431840 0
M  V30 4 O 4.672039 -0.283254 0.435992 0
M  V30 5 C 3.436573 0.078771 0.765386 0
M  V30 6 C 2.327564 -0.533366 1.305603 0
M  V30 7 C 1.117407 0.070277 1.560788 0
M  V30 8 C 1.031325 1.406902 1.239305 0
M  V30 9 C 2.071598 2.130888 0.693682 0
M  V30 10 C 3.274055 1.444426 0.462689 0
M  V30 11 N 1.591896 3.373192 0.531631 0
M  V30 12 C 0.316645 3.416103 0.956376 0
M  V30 13 N -0.040076 2.205334 1.396146 0
M  V30 14 C -1.359703 1.942389 1.917146 0
M  V30 15 C -1.773303 2.835843 2.897520 0
M  V30 16 C -3.036825 2.582976 3.395632 0
M  V30 17 C -3.805380 1.547437 2.960475 0
M  V30 18 C -5.050146 1.394212 3.531232 0
M  V30 19 C -5.835185 0.346449 3.094872 0
M  V30 20 C -5.334321 -0.502714 2.102690 0
M  V30 21 C -4.098708 -0.368064 1.521533 0
M  V30 22 N -3.655568 -1.270149 0.518549 0
M  V30 23 C -4.391925 -2.395184 -0.020249 0
M  V30 24 C -4.433400 -2.396810 -1.531730 0
M  V30 25 C -3.038534 -2.488552 -2.110276 0
M  V30 26 N -2.900770 -1.567805 -3.210754 0
M  V30 27 C -2.027918 -2.295173 -1.017004 0
M  V30 28 C -2.348388 -1.137516 -0.090816 0
M  V30 29 C -3.358594 0.685527 1.987952 0
M  V30 30 N -2.135098 0.926130 1.501971 0
M  V30 31 C 6.344749 -3.549910 -0.210633 0
M  V30 32 O 6.023187 -3.981636 -1.500213 0
M  V30 33 C 5.718940 -2.629338 -1.762819 0
M  V30 34 H 3.927980 -4.295324 -0.684719 0
M  V30 35 H 3.066599 -2.759039 -0.578400 0
M  V30 36 H 3.705488 -3.589531 0.912807 0
M  V30 37 H 6.501133 -1.020067 0.062954 0
M  V30 38 H 5.747572 -1.723125 1.482089 0
M  V30 39 H 2.486739 -1.555143 1.529240 0
M  V30 40 H 0.331786 -0.529402 1.986851 0
M  V30 41 H 4.003996 2.144817 0.029481 0
M  V30 42 H -0.205209 4.340286 0.892274 0
M  V30 43 H -1.184683 3.670586 3.265634 0
M  V30 44 H -3.402859 3.256809 4.165265 0
M  V30 45 H -5.385451 2.081390 4.294757 0
M  V30 46 H -6.802169 0.241511 3.550042 0
M  V30 47 H -6.034402 -1.265660 1.857052 0
M  V30 48 H -5.377187 -2.504743 0.431761 0
M  V30 49 H -3.808734 -3.304678 0.312862 0
M  V30 50 H -4.994630 -1.506484 -1.875709 0
M  V30 51 H -5.018331 -3.294162 -1.818701 0
M  V30 52 H -2.889750 -3.504235 -2.506314 0
M  V30 53 H -3.401856 -0.667404 -3.060859 0
M  V30 54 H -3.295134 -2.005282 -4.081562 0
M  V30 55 H -1.047961 -2.135308 -1.513289 0
M  V30 56 H -1.934082 -3.249087 -0.462675 0
M  V30 57 H -1.595442 -1.236736 0.746438 0
M  V30 58 H -2.185461 -0.167497 -0.584519 0
M  V30 59 H 7.306631 -3.017793 -0.128116 0
M  V30 60 H 6.148472 -4.311230 0.592466 0
M  V30 61 H 6.657717 -2.053862 -1.813668 0
M  V30 62 H 5.017164 -2.574920 -2.593165 0
M  V30 END ATOM
M  V30 BEGIN BOND
M  V30 1 1 1 2
M  V30 2 1 2 3
M  V30 3 1 3 4
M  V30 4 1 4 5
M  V30 5 2 5 6
M  V30 6 1 6 7
M  V30 7 2 7 8
M  V30 8 1 8 9
M  V30 9 2 9 10
M  V30 10 1 9 11
M  V30 11 2 11 12
M  V30 12 1 12 13
M  V30 13 1 13 14
M  V30 14 2 14 15
M  V30 15 1 15 16
M  V30 16 2 16 17
M  V30 17 1 17 18
M  V30 18 2 18 19
M  V30 19 1 19 20
M  V30 20 2 20 21
M  V30 21 1 21 22
M  V30 22 1 22 23
M  V30 23 1 23 24
M  V30 24 1 24 25
M  V30 25 1 25 26
M  V30 26 1 25 27
M  V30 27 1 27 28
M  V30 28 1 21 29
M  V30 29 2 29 30
M  V30 30 1 2 31
M  V30 31 1 31 32
M  V30 32 1 32 33
M  V30 33 1 33 2
M  V30 34 1 10 5
M  V30 35 1 30 14
M  V30 36 1 13 8
M  V30 37 1 29 17
M  V30 38 1 28 22
M  V30 39 1 1 34
M  V30 40 1 1 35
M  V30 41 1 1 36
M  V30 42 1 3 37
M  V30 43 1 3 38
M  V30 44 1 6 39
M  V30 45 1 7 40
M  V30 46 1 10 41
M  V30 47 1 12 42
M  V30 48 1 15 43
M  V30 49 1 16 44
M  V30 50 1 18 45
M  V30 51 1 19 46
M  V30 52 1 20 47
M  V30 53 1 23 48
M  V30 54 1 23 49
M  V30 55 1 24 50
M  V30 56 1 24 51
M  V30 57 1 25 52
M  V30 58 1 26 53
M  V30 59 1 26 54
M  V30 60 1 27 55
M  V30 61 1 27 56
M  V30 62 1 28 57
M  V30 63 1 28 58
M  V30 64 1 31 59
M  V30 65 1 31 60
M  V30 66 1 33 61
M  V30 67 1 33 62
M  V30 END BOND
M  V30 END CTAB
M  END
>  <Dataset>  (37) 
ChEMBL_Kinases

>  <Ligand_Instance>  (37) 
nan

>  <PDB_ID>  (37) 
nan

>  <Standardized_SMILES>  (37) 
CC1(COc2ccc3c(c2)ncn3-c2ccc3cccc(N4CCC(N)CC4)c3n2)COC1

>  <Name>  (37) 
CRENOLANIB

>  <Pocket>  (37) 
nan

>  <ATP_Site>  (37) 
nan

>  <Peripheral>  (37) 
nan

>  <Num_H_Atoms_ProtBoundConf>  (37) 
nan

>  <Num_Resolved_Atoms>  (37) 
nan

>  <Num_Not_Resolved_Atoms>  (37) 
nan

$$$$
CHEMBL4569508
     RDKit          3D

  0  0  0  0  0  0  0  0  0  0999 V3000
M  V30 BEGIN CTAB
M  V30 COUNTS 63 67 0 0 0
M  V30 BEGIN ATOM
M  V30 1 O 8.435522 1.726359 -2.692351 0
M  V30 2 C 7.388139 1.252049 -2.175443 0
M  V30 3 N 7.061774 -0.126180 -2.089434 0
M  V30 4 C 8.026781 -1.066935 -2.646676 0
M  V30 5 C 7.448067 -2.457530 -2.431701 0
M  V30 6 F 8.254799 -3.446016 -2.908417 0
M  V30 7 F 6.277396 -2.504998 -3.193208 0
M  V30 8 F 7.146982 -2.607753 -1.095605 0
M  V30 9 C 6.436683 2.186036 -1.621322 0
M  V30 10 C 5.262574 2.077090 -1.009338 0
M  V30 11 C 4.535675 3.131732 -0.559831 0
M  V30 12 C 3.246299 3.072669 0.118136 0
M  V30 13 C 2.997259 3.826964 1.270927 0
M  V30 14 N 1.720186 3.509052 1.598514 0
M  V30 15 N 1.251322 2.635806 0.709298 0
M  V30 16 C 0.023776 2.084673 0.696352 0
M  V30 17 C -0.339749 1.175481 -0.303462 0
M  V30 18 C -1.682026 0.569987 -0.315770 0
M  V30 19 C -2.379589 0.189858 -1.442657 0
M  V30 20 C -3.652891 -0.375808 -1.279985 0
M  V30 21 C -4.244843 -0.570697 -0.020706 0
M  V30 22 O -5.443632 -1.119452 -0.213180 0
M  V30 23 C -6.485779 -1.571434 0.505142 0
M  V30 24 C -6.447744 -2.759774 1.382862 0
M  V30 25 N -5.549583 -2.904274 2.438165 0
M  V30 26 C -4.222768 -3.211574 2.033685 0
M  V30 27 C -3.848167 -4.653630 2.449209 0
M  V30 28 C -3.747161 -4.644697 3.950143 0
M  V30 29 C -5.042897 -4.109734 4.509240 0
M  V30 30 C -6.068087 -3.816385 3.437286 0
M  V30 31 C -3.459519 -0.155058 1.028762 0
M  V30 32 C -2.209674 0.404656 0.947547 0
M  V30 33 C 0.632166 0.878790 -1.272036 0
M  V30 34 N 1.858004 1.454591 -1.224598 0
M  V30 35 C 2.150152 2.320510 -0.240337 0
M  V30 36 C 5.169443 4.394957 -0.814617 0
M  V30 37 S 6.743275 3.964578 -1.671551 0
M  V30 38 H 6.151847 -0.431559 -1.636477 0
M  V30 39 H 8.195638 -0.848198 -3.710931 0
M  V30 40 H 8.981230 -0.955665 -2.064802 0
M  V30 41 H 4.904232 1.052828 -0.886769 0
M  V30 42 H 3.628455 4.502703 1.800583 0
M  V30 43 H -0.729344 2.316106 1.447851 0
M  V30 44 H -1.851003 0.376499 -2.343431 0
M  V30 45 H -4.038459 -0.608125 -2.286789 0
M  V30 46 H -7.342924 -1.809542 -0.242733 0
M  V30 47 H -7.018102 -0.719940 1.083506 0
M  V30 48 H -7.541960 -2.889408 1.738260 0
M  V30 49 H -6.355592 -3.652737 0.650548 0
M  V30 50 H -4.031054 -3.206304 0.945047 0
M  V30 51 H -3.442142 -2.576181 2.524382 0
M  V30 52 H -4.620258 -5.377880 2.144424 0
M  V30 53 H -2.919769 -4.908114 1.930090 0
M  V30 54 H -3.537540 -5.686394 4.330843 0
M  V30 55 H -2.878112 -3.993691 4.204445 0
M  V30 56 H -5.462877 -4.889460 5.177237 0
M  V30 57 H -4.873391 -3.218922 5.153004 0
M  V30 58 H -6.388818 -4.748045 2.936677 0
M  V30 59 H -6.933882 -3.306398 3.922104 0
M  V30 60 H -4.013897 -0.339656 1.964951 0
M  V30 61 H -1.800687 0.645804 1.915989 0
M  V30 62 H 0.365732 0.178660 -2.051072 0
M  V30 63 H 4.655046 5.407140 -0.479686 0
M  V30 END ATOM
M  V30 BEGIN BOND
M  V30 1 2 1 2
M  V30 2 1 2 3
M  V30 3 1 3 4
M  V30 4 1 4 5
M  V30 5 1 5 6
M  V30 6 1 5 7
M  V30 7 1 5 8
M  V30 8 1 2 9
M  V30 9 2 9 10
M  V30 10 1 10 11
M  V30 11 1 11 12
M  V30 12 1 12 13
M  V30 13 2 13 14
M  V30 14 1 14 15
M  V30 15 1 15 16
M  V30 16 2 16 17
M  V30 17 1 17 18
M  V30 18 2 18 19
M  V30 19 1 19 20
M  V30 20 2 20 21
M  V30 21 1 21 22
M  V30 22 1 22 23
M  V30 23 1 23 24
M  V30 24 1 24 25
M  V30 25 1 25 26
M  V30 26 1 26 27
M  V30 27 1 27 28
M  V30 28 1 28 29
M  V30 29 1 29 30
M  V30 30 1 21 31
M  V30 31 2 31 32
M  V30 32 1 17 33
M  V30 33 2 33 34
M  V30 34 1 34 35
M  V30 35 2 11 36
M  V30 36 1 36 37
M  V30 37 1 37 9
M  V30 38 2 35 12
M  V30 39 1 35 15
M  V30 40 1 32 18
M  V30 41 1 30 25
M  V30 42 1 3 38
M  V30 43 1 4 39
M  V30 44 1 4 40
M  V30 45 1 10 41
M  V30 46 1 13 42
M  V30 47 1 16 43
M  V30 48 1 19 44
M  V30 49 1 20 45
M  V30 50 1 23 46
M  V30 51 1 23 47
M  V30 52 1 24 48
M  V30 53 1 24 49
M  V30 54 1 26 50
M  V30 55 1 26 51
M  V30 56 1 27 52
M  V30 57 1 27 53
M  V30 58 1 28 54
M  V30 59 1 28 55
M  V30 60 1 29 56
M  V30 61 1 29 57
M  V30 62 1 30 58
M  V30 63 1 30 59
M  V30 64 1 31 60
M  V30 65 1 32 61
M  V30 66 1 33 62
M  V30 67 1 36 63
M  V30 END BOND
M  V30 END CTAB
M  END
>  <Dataset>  (38) 
ChEMBL_Kinases

>  <Ligand_Instance>  (38) 
nan

>  <PDB_ID>  (38) 
nan

>  <Standardized_SMILES>  (38) 
O=C(NCC(F)(F)F)c1cc(-c2cnn3cc(-c4ccc(OCCN5CCCCC5)cc4)cnc23)cs1

>  <Name>  (38) 
nan

>  <Pocket>  (38) 
nan

>  <ATP_Site>  (38) 
nan

>  <Peripheral>  (38) 
nan

>  <Num_H_Atoms_ProtBoundConf>  (38) 
nan

>  <Num_Resolved_Atoms>  (38) 
nan

>  <Num_Not_Resolved_Atoms>  (38) 
nan

$$$$
CHEMBL1336
     RDKit          3D

  0  0  0  0  0  0  0  0  0  0999 V3000
M  V30 BEGIN CTAB
M  V30 COUNTS 48 50 0 0 0
M  V30 BEGIN ATOM
M  V30 1 C 4.315036 -6.496825 0.376273 0
M  V30 2 N 3.545406 -5.792523 1.385601 0
M  V30 3 C 3.613716 -4.425489 1.728570 0
M  V30 4 O 4.406889 -3.649976 1.142665 0
M  V30 5 C 2.723755 -3.928984 2.799486 0
M  V30 6 C 2.783884 -2.600743 3.139137 0
M  V30 7 C 1.981298 -2.071393 4.129564 0
M  V30 8 O 2.039509 -0.710049 4.481212 0
M  V30 9 C 1.212315 0.219832 3.829007 0
M  V30 10 C 1.835091 0.750714 2.694117 0
M  V30 11 C 1.145363 1.686327 1.938612 0
M  V30 12 C -0.124658 2.053999 2.337364 0
M  V30 13 N -0.787036 3.020192 1.522459 0
M  V30 14 C -1.565415 2.448604 0.459969 0
M  V30 15 O -1.546030 1.188742 0.408140 0
M  V30 16 N -2.312779 3.166246 -0.482364 0
M  V30 17 C -3.053456 2.472183 -1.502619 0
M  V30 18 C -4.357422 2.020659 -1.451777 0
M  V30 19 C -4.864911 1.374471 -2.559907 0
M  V30 20 C -4.106780 1.180223 -3.684555 0
M  V30 21 Cl -4.861053 0.347671 -5.024987 0
M  V30 22 C -2.790705 1.627488 -3.756132 0
M  V30 23 C -2.023209 1.384448 -5.005862 0
M  V30 24 F -1.955549 0.011540 -5.226837 0
M  V30 25 F -2.618016 1.975506 -6.077941 0
M  V30 26 F -0.738093 1.880540 -4.768982 0
M  V30 27 C -2.286352 2.279300 -2.631792 0
M  V30 28 C -0.742888 1.532394 3.456833 0
M  V30 29 C -0.059115 0.600591 4.211454 0
M  V30 30 C 1.101089 -2.904953 4.787949 0
M  V30 31 C 1.082307 -4.230419 4.406365 0
M  V30 32 N 1.868899 -4.719230 3.444749 0
M  V30 33 H 5.210589 -6.988175 0.756417 0
M  V30 34 H 3.653114 -7.217216 -0.156198 0
M  V30 35 H 4.659340 -5.695843 -0.329019 0
M  V30 36 H 2.868745 -6.403970 1.900630 0
M  V30 37 H 3.450274 -1.937130 2.650532 0
M  V30 38 H 2.819228 0.491873 2.350691 0
M  V30 39 H 1.617738 2.116512 1.041463 0
M  V30 40 H -0.807796 4.078780 1.560138 0
M  V30 41 H -2.299646 4.219522 -0.400303 0
M  V30 42 H -4.849512 2.234392 -0.511659 0
M  V30 43 H -5.895710 1.050858 -2.439845 0
M  V30 44 H -1.255274 2.593773 -2.774038 0
M  V30 45 H -1.730388 1.823279 3.760277 0
M  V30 46 H -0.437666 0.125756 5.102247 0
M  V30 47 H 0.486568 -2.465280 5.556692 0
M  V30 48 H 0.393330 -4.885433 4.920931 0
M  V30 END ATOM
M  V30 BEGIN BOND
M  V30 1 1 1 2
M  V30 2 1 2 3
M  V30 3 2 3 4
M  V30 4 1 3 5
M  V30 5 2 5 6
M  V30 6 1 6 7
M  V30 7 1 7 8
M  V30 8 1 8 9
M  V30 9 2 9 10
M  V30 10 1 10 11
M  V30 11 2 11 12
M  V30 12 1 12 13
M  V30 13 1 13 14
M  V30 14 2 14 15
M  V30 15 1 14 16
M  V30 16 1 16 17
M  V30 17 2 17 18
M  V30 18 1 18 19
M  V30 19 2 19 20
M  V30 20 1 20 21
M  V30 21 1 20 22
M  V30 22 1 22 23
M  V30 23 1 23 24
M  V30 24 1 23 25
M  V30 25 1 23 26
M  V30 26 2 22 27
M  V30 27 1 12 28
M  V30 28 2 28 29
M  V30 29 2 7 30
M  V30 30 1 30 31
M  V30 31 2 31 32
M  V30 32 1 32 5
M  V30 33 1 29 9
M  V30 34 1 27 17
M  V30 35 1 1 33
M  V30 36 1 1 34
M  V30 37 1 1 35
M  V30 38 1 2 36
M  V30 39 1 6 37
M  V30 40 1 10 38
M  V30 41 1 11 39
M  V30 42 1 13 40
M  V30 43 1 16 41
M  V30 44 1 18 42
M  V30 45 1 19 43
M  V30 46 1 27 44
M  V30 47 1 28 45
M  V30 48 1 29 46
M  V30 49 1 30 47
M  V30 50 1 31 48
M  V30 END BOND
M  V30 END CTAB
M  END
>  <Dataset>  (39) 
ChEMBL_Kinases

>  <Ligand_Instance>  (39) 
nan

>  <PDB_ID>  (39) 
nan

>  <Standardized_SMILES>  (39) 
CNC(=O)c1cc(Oc2ccc(NC(=O)Nc3ccc(Cl)c(C(F)(F)F)c3)cc2)ccn1

>  <Name>  (39) 
SORAFENIB

>  <Pocket>  (39) 
nan

>  <ATP_Site>  (39) 
nan

>  <Peripheral>  (39) 
nan

>  <Num_H_Atoms_ProtBoundConf>  (39) 
nan

>  <Num_Resolved_Atoms>  (39) 
nan

>  <Num_Not_Resolved_Atoms>  (39) 
nan

$$$$
CHEMBL2425628
     RDKit          3D

  0  0  0  0  0  0  0  0  0  0999 V3000
M  V30 BEGIN CTAB
M  V30 COUNTS 76 80 0 0 0
M  V30 BEGIN ATOM
M  V30 1 C 5.591795 3.782227 6.220699 0
M  V30 2 S 4.093558 2.909059 5.793686 0
M  V30 3 O 3.992960 1.624752 6.554541 0
M  V30 4 O 4.200867 2.600192 4.327053 0
M  V30 5 C 2.685553 3.922323 6.146297 0
M  V30 6 C 1.371264 3.261611 5.828212 0
M  V30 7 C 1.213834 2.886046 4.397023 0
M  V30 8 O -0.053681 2.265998 4.139628 0
M  V30 9 C -0.302798 1.880659 2.827662 0
M  V30 10 C 0.570375 2.048938 1.746539 0
M  V30 11 C 0.198938 1.621691 0.492858 0
M  V30 12 C -1.037795 1.012924 0.240231 0
M  V30 13 C -1.856814 0.871989 1.339603 0
M  V30 14 C -1.527358 1.283996 2.608576 0
M  V30 15 C -2.581981 0.972855 3.407050 0
M  V30 16 C -3.522680 0.379250 2.595592 0
M  V30 17 N -3.079774 0.311774 1.304579 0
M  V30 18 C -3.933150 -0.275752 0.333468 0
M  V30 19 C -5.247721 0.141519 0.304508 0
M  V30 20 C -6.197270 -0.338496 -0.570205 0
M  V30 21 N -5.769625 -1.270551 -1.430799 0
M  V30 22 C -4.489698 -1.719976 -1.449812 0
M  V30 23 N -4.131699 -2.714128 -2.385125 0
M  V30 24 C -2.826595 -3.314972 -2.588354 0 CFG=1
M  V30 25 C -2.295564 -3.921633 -1.294388 0
M  V30 26 C -0.797578 -4.034969 -1.531729 0
M  V30 27 C -0.486916 -4.775559 -2.792282 0 CFG=2
M  V30 28 C 0.258489 -3.866152 -3.692696 0
M  V30 29 O -0.254026 -3.541586 -4.821004 0
M  V30 30 N 1.553184 -3.317411 -3.361901 0
M  V30 31 C 2.370471 -3.503754 -2.169448 0
M  V30 32 C 2.885521 -2.225468 -1.608587 0
M  V30 33 C 2.184129 -1.065418 -2.274259 0
M  V30 34 O 2.619050 0.152138 -1.719542 0
M  V30 35 C 2.480191 -1.097295 -3.738797 0
M  V30 36 C 2.215355 -2.446148 -4.308739 0
M  V30 37 C -1.681399 -5.289094 -3.522197 0
M  V30 38 C -2.891724 -4.460613 -3.560582 0
M  V30 39 N -3.617337 -1.214002 -0.575593 0
M  V30 40 H 5.417197 4.866510 6.063200 0
M  V30 41 H 5.883735 3.563406 7.271262 0
M  V30 42 H 6.429030 3.482310 5.540557 0
M  V30 43 H 2.643876 4.199889 7.215310 0
M  V30 44 H 2.724392 4.840564 5.503995 0
M  V30 45 H 0.505563 3.846805 6.175224 0
M  V30 46 H 1.355880 2.307996 6.432407 0
M  V30 47 H 1.966810 2.068168 4.190698 0
M  V30 48 H 1.457762 3.691514 3.708462 0
M  V30 49 H 1.514255 2.520685 1.971835 0
M  V30 50 H 0.915989 1.781022 -0.298689 0
M  V30 51 H -1.306904 0.685122 -0.759513 0
M  V30 52 H -2.638761 1.167767 4.471403 0
M  V30 53 H -4.472088 0.040219 3.034005 0
M  V30 54 H -5.602601 0.908402 1.008368 0
M  V30 55 H -7.226213 -0.004871 -0.585876 0
M  V30 56 H -4.887225 -3.081006 -3.027067 0
M  V30 57 H -2.083058 -2.589093 -2.978589 0
M  V30 58 H -2.653677 -4.962438 -1.149317 0
M  V30 59 H -2.436931 -3.285584 -0.418715 0
M  V30 60 H -0.379840 -4.549946 -0.643038 0
M  V30 61 H -0.389212 -3.007573 -1.531683 0
M  V30 62 H 0.199579 -5.614087 -2.538706 0
M  V30 63 H 3.264694 -4.077484 -2.541907 0
M  V30 64 H 1.851066 -4.144851 -1.416402 0
M  V30 65 H 4.003472 -2.113966 -1.713048 0
M  V30 66 H 2.695188 -2.181995 -0.500661 0
M  V30 67 H 1.090023 -1.208372 -2.095271 0
M  V30 68 H 2.374718 0.851825 -2.395933 0
M  V30 69 H 3.554297 -0.789742 -3.874797 0
M  V30 70 H 1.887275 -0.361613 -4.326217 0
M  V30 71 H 1.653774 -2.389150 -5.276293 0
M  V30 72 H 3.211815 -2.928053 -4.508493 0
M  V30 73 H -1.937870 -6.277110 -3.028362 0
M  V30 74 H -1.401805 -5.598644 -4.562398 0
M  V30 75 H -3.798495 -5.077554 -3.336190 0
M  V30 76 H -3.055461 -4.095866 -4.603871 0
M  V30 END ATOM
M  V30 BEGIN BOND
M  V30 1 1 1 2
M  V30 2 2 2 3
M  V30 3 2 2 4
M  V30 4 1 2 5
M  V30 5 1 5 6
M  V30 6 1 6 7
M  V30 7 1 7 8
M  V30 8 1 8 9
M  V30 9 2 9 10
M  V30 10 1 10 11
M  V30 11 2 11 12
M  V30 12 1 12 13
M  V30 13 2 13 14
M  V30 14 1 14 15
M  V30 15 2 15 16
M  V30 16 1 16 17
M  V30 17 1 17 18
M  V30 18 2 18 19
M  V30 19 1 19 20
M  V30 20 2 20 21
M  V30 21 1 21 22
M  V30 22 1 22 23
M  V30 23 1 23 24
M  V30 24 1 24 25
M  V30 25 1 25 26
M  V30 26 1 26 27
M  V30 27 1 27 28
M  V30 28 2 28 29
M  V30 29 1 28 30
M  V30 30 1 30 31
M  V30 31 1 31 32
M  V30 32 1 32 33
M  V30 33 1 33 34
M  V30 34 1 33 35
M  V30 35 1 35 36
M  V30 36 1 27 37
M  V30 37 1 37 38
M  V30 38 2 22 39
M  V30 39 1 14 9
M  V30 40 1 39 18
M  V30 41 1 17 13
M  V30 42 1 38 24
M  V30 43 1 36 30
M  V30 44 1 1 40
M  V30 45 1 1 41
M  V30 46 1 1 42
M  V30 47 1 5 43
M  V30 48 1 5 44
M  V30 49 1 6 45
M  V30 50 1 6 46
M  V30 51 1 7 47
M  V30 52 1 7 48
M  V30 53 1 10 49
M  V30 54 1 11 50
M  V30 55 1 12 51
M  V30 56 1 15 52
M  V30 57 1 16 53
M  V30 58 1 19 54
M  V30 59 1 20 55
M  V30 60 1 23 56
M  V30 61 1 24 57 CFG=3
M  V30 62 1 25 58
M  V30 63 1 25 59
M  V30 64 1 26 60
M  V30 65 1 26 61
M  V30 66 1 27 62 CFG=1
M  V30 67 1 31 63
M  V30 68 1 31 64
M  V30 69 1 32 65
M  V30 70 1 32 66
M  V30 71 1 33 67
M  V30 72 1 34 68
M  V30 73 1 35 69
M  V30 74 1 35 70
M  V30 75 1 36 71
M  V30 76 1 36 72
M  V30 77 1 37 73
M  V30 78 1 37 74
M  V30 79 1 38 75
M  V30 80 1 38 76
M  V30 END BOND
M  V30 END CTAB
M  END
>  <Dataset>  (40) 
ChEMBL_Kinases

>  <Ligand_Instance>  (40) 
nan

>  <PDB_ID>  (40) 
nan

>  <Standardized_SMILES>  (40) 
CS(=O)(=O)CCCOc1cccc2c1ccn2-c1ccnc(N[C@H]2CC[C@H](C(=O)N3CCC(O)CC3)CC2)n1

>  <Name>  (40) 
nan

>  <Pocket>  (40) 
nan

>  <ATP_Site>  (40) 
nan

>  <Peripheral>  (40) 
nan

>  <Num_H_Atoms_ProtBoundConf>  (40) 
nan

>  <Num_Resolved_Atoms>  (40) 
nan

>  <Num_Not_Resolved_Atoms>  (40) 
nan

$$$$
CHEMBL1084546
     RDKit          3D

  0  0  0  0  0  0  0  0  0  0999 V3000
M  V30 BEGIN CTAB
M  V30 COUNTS 55 58 0 0 0
M  V30 BEGIN ATOM
M  V30 1 C -0.031802 1.159159 1.503543 0
M  V30 2 N 1.406221 1.216497 1.212639 0
M  V30 3 C 2.508284 0.389601 0.881850 0
M  V30 4 N 3.133935 -0.109340 1.957378 0
M  V30 5 C 4.230908 -0.875184 1.860380 0
M  V30 6 C 4.713515 -1.145140 0.599046 0
M  V30 7 C 4.041090 -0.613688 -0.480517 0
M  V30 8 C 2.893763 0.188332 -0.413345 0
M  V30 9 C 2.306109 0.629269 -1.693519 0
M  V30 10 N 1.254625 -0.179340 -2.219688 0
M  V30 11 C -0.013698 -0.787699 -2.258920 0
M  V30 12 N -0.722232 -0.424773 -1.189126 0
M  V30 13 C -1.973559 -0.801207 -0.907394 0
M  V30 14 N -2.796551 -0.471611 0.199218 0
M  V30 15 C -2.995151 -1.156600 1.429156 0
M  V30 16 C -3.842499 -0.597260 2.358175 0
M  V30 17 C -4.009678 -1.313233 3.548458 0
M  V30 18 C -3.367815 -2.509775 3.786732 0
M  V30 19 C -2.527351 -3.024969 2.817189 0
M  V30 20 C -2.339469 -2.351401 1.639163 0
M  V30 21 C -1.928179 -4.319688 3.251999 0
M  V30 22 C -2.538140 -4.475348 4.597292 0
M  V30 23 O -2.244234 -5.482332 5.260820 0
M  V30 24 N -3.410636 -3.374453 4.916823 0
M  V30 25 N -2.531669 -1.621038 -1.811596 0
M  V30 26 C -1.886583 -2.033583 -2.914902 0
M  V30 27 C -0.602996 -1.630858 -3.177238 0
M  V30 28 C 0.263331 -1.978934 -4.326913 0
M  V30 29 F 1.424923 -2.621509 -3.977368 0
M  V30 30 F 0.593426 -0.884828 -5.093201 0
M  V30 31 F -0.410826 -2.872216 -5.168371 0
M  V30 32 S 1.809418 2.910400 1.373297 0
M  V30 33 C 1.060896 3.880619 0.103052 0
M  V30 34 O 1.313686 3.439960 2.700082 0
M  V30 35 O 3.293298 3.135433 1.324370 0
M  V30 36 H -0.166050 1.507202 2.554633 0
M  V30 37 H -0.607294 1.785692 0.826736 0
M  V30 38 H -0.369815 0.087866 1.528630 0
M  V30 39 H 4.753479 -1.289276 2.704801 0
M  V30 40 H 5.588921 -1.751680 0.462094 0
M  V30 41 H 4.465813 -0.859042 -1.458242 0
M  V30 42 H 3.176615 0.790165 -2.380168 0
M  V30 43 H 1.900707 1.681837 -1.571965 0
M  V30 44 H 1.692886 -0.539397 -3.125418 0
M  V30 45 H -3.268131 0.415567 -0.044119 0
M  V30 46 H -4.354521 0.351049 2.175044 0
M  V30 47 H -4.682942 -0.874825 4.294429 0
M  V30 48 H -1.689843 -2.736729 0.873411 0
M  V30 49 H -2.210587 -5.147160 2.569869 0
M  V30 50 H -0.831620 -4.172781 3.326006 0
M  V30 51 H -3.935540 -3.273507 5.789347 0
M  V30 52 H -2.235318 -2.687129 -3.702184 0
M  V30 53 H 0.000818 3.608457 -0.075169 0
M  V30 54 H 1.617701 3.938281 -0.830707 0
M  V30 55 H 1.025441 4.931212 0.501657 0
M  V30 END ATOM
M  V30 BEGIN BOND
M  V30 1 1 1 2
M  V30 2 1 2 3
M  V30 3 2 3 4
M  V30 4 1 4 5
M  V30 5 2 5 6
M  V30 6 1 6 7
M  V30 7 2 7 8
M  V30 8 1 8 9
M  V30 9 1 9 10
M  V30 10 1 10 11
M  V30 11 2 11 12
M  V30 12 1 12 13
M  V30 13 1 13 14
M  V30 14 1 14 15
M  V30 15 2 15 16
M  V30 16 1 16 17
M  V30 17 2 17 18
M  V30 18 1 18 19
M  V30 19 2 19 20
M  V30 20 1 19 21
M  V30 21 1 21 22
M  V30 22 2 22 23
M  V30 23 1 22 24
M  V30 24 2 13 25
M  V30 25 1 25 26
M  V30 26 2 26 27
M  V30 27 1 27 28
M  V30 28 1 28 29
M  V30 29 1 28 30
M  V30 30 1 28 31
M  V30 31 1 2 32
M  V30 32 1 32 33
M  V30 33 2 32 34
M  V30 34 2 32 35
M  V30 35 1 8 3
M  V30 36 1 27 11
M  V30 37 1 20 15
M  V30 38 1 24 18
M  V30 39 1 1 36
M  V30 40 1 1 37
M  V30 41 1 1 38
M  V30 42 1 5 39
M  V30 43 1 6 40
M  V30 44 1 7 41
M  V30 45 1 9 42
M  V30 46 1 9 43
M  V30 47 1 10 44
M  V30 48 1 14 45
M  V30 49 1 16 46
M  V30 50 1 17 47
M  V30 51 1 20 48
M  V30 52 1 21 49
M  V30 53 1 21 50
M  V30 54 1 24 51
M  V30 55 1 26 52
M  V30 56 1 33 53
M  V30 57 1 33 54
M  V30 58 1 33 55
M  V30 END BOND
M  V30 END CTAB
M  END
>  <Dataset>  (41) 
ChEMBL_Kinases

>  <Ligand_Instance>  (41) 
nan

>  <PDB_ID>  (41) 
nan

>  <Standardized_SMILES>  (41) 
CN(c1ncccc1CNc1nc(Nc2ccc3c(c2)CC(=O)N3)ncc1C(F)(F)F)S(C)(=O)=O

>  <Name>  (41) 
PF-00562271

>  <Pocket>  (41) 
nan

>  <ATP_Site>  (41) 
nan

>  <Peripheral>  (41) 
nan

>  <Num_H_Atoms_ProtBoundConf>  (41) 
nan

>  <Num_Resolved_Atoms>  (41) 
nan

>  <Num_Not_Resolved_Atoms>  (41) 
nan

$$$$
CHEMBL1944698
     RDKit          3D

  0  0  0  0  0  0  0  0  0  0999 V3000
M  V30 BEGIN CTAB
M  V30 COUNTS 52 55 0 0 0
M  V30 BEGIN ATOM
M  V30 1 C -0.217219 -4.295139 2.299394 0
M  V30 2 N 0.439100 -3.592277 1.202373 0
M  V30 3 C 0.383502 -2.164072 1.461463 0
M  V30 4 C 1.204450 -1.785296 2.632085 0
M  V30 5 C 2.211202 -0.902706 2.473207 0
M  V30 6 C 3.222292 -0.286115 3.360471 0
M  V30 7 C 3.110176 1.203129 3.445690 0
M  V30 8 O 3.266201 1.929346 2.280233 0
M  V30 9 C 2.566586 1.914410 1.132039 0
M  V30 10 C 3.471060 1.921141 0.061001 0
M  V30 11 C 3.094771 1.910548 -1.285298 0
M  V30 12 C 1.714533 1.891595 -1.526084 0
M  V30 13 C 0.822951 1.884195 -0.463949 0
M  V30 14 C 1.217795 1.896025 0.848486 0
M  V30 15 C -0.541755 1.838841 -0.972142 0
M  V30 16 C -0.892775 2.848680 -1.864000 0
M  V30 17 C -2.204384 2.758704 -2.350886 0
M  V30 18 N -3.010038 1.759762 -1.955514 0
M  V30 19 C -2.622883 0.790612 -1.078537 0
M  V30 20 N -1.371601 0.852562 -0.595375 0
M  V30 21 N -3.514359 -0.242834 -0.710805 0
M  V30 22 C -3.231367 -1.566809 -0.355986 0
M  V30 23 C -4.277674 -2.375322 0.048891 0
M  V30 24 C -3.998635 -3.692505 0.414344 0
M  V30 25 C -2.719629 -4.236670 0.393271 0
M  V30 26 C -1.655916 -3.435397 -0.011666 0
M  V30 27 C -1.987343 -2.148362 -0.361017 0
M  V30 28 C -0.245978 -3.891796 -0.058529 0
M  V30 29 H -0.421528 -5.325627 1.976265 0
M  V30 30 H 0.524052 -4.360979 3.126484 0
M  V30 31 H -1.090877 -3.717985 2.630297 0
M  V30 32 H 0.790800 -1.652290 0.548157 0
M  V30 33 H -0.634663 -1.802630 1.653640 0
M  V30 34 H 0.923149 -2.270084 3.584603 0
M  V30 35 H 2.425698 -0.513455 1.489986 0
M  V30 36 H 4.258746 -0.603198 3.040623 0
M  V30 37 H 3.055618 -0.705968 4.385145 0
M  V30 38 H 2.082790 1.401138 3.875895 0
M  V30 39 H 3.836477 1.543003 4.242077 0
M  V30 40 H 4.573813 1.935048 0.126524 0
M  V30 41 H 3.788629 1.915877 -2.117656 0
M  V30 42 H 1.420131 1.886715 -2.589605 0
M  V30 43 H 0.489039 1.891253 1.640012 0
M  V30 44 H -0.150576 3.605668 -2.111113 0
M  V30 45 H -2.494095 3.526187 -3.037469 0
M  V30 46 H -4.496784 0.079464 -0.720985 0
M  V30 47 H -5.295232 -2.015011 0.089057 0
M  V30 48 H -4.838917 -4.325562 0.734406 0
M  V30 49 H -2.520819 -5.255210 0.678888 0
M  V30 50 H -1.203117 -1.484474 -0.692308 0
M  V30 51 H -0.231256 -4.989401 -0.173197 0
M  V30 52 H 0.340202 -3.443270 -0.859202 0
M  V30 END ATOM
M  V30 BEGIN BOND
M  V30 1 1 1 2
M  V30 2 1 2 3
M  V30 3 1 3 4
M  V30 4 2 4 5
M  V30 5 1 5 6
M  V30 6 1 6 7
M  V30 7 1 7 8
M  V30 8 1 8 9
M  V30 9 1 9 10
M  V30 10 2 10 11
M  V30 11 1 11 12
M  V30 12 2 12 13
M  V30 13 1 13 14
M  V30 14 1 13 15
M  V30 15 1 15 16
M  V30 16 2 16 17
M  V30 17 1 17 18
M  V30 18 2 18 19
M  V30 19 1 19 20
M  V30 20 1 19 21
M  V30 21 1 21 22
M  V30 22 1 22 23
M  V30 23 2 23 24
M  V30 24 1 24 25
M  V30 25 2 25 26
M  V30 26 1 26 27
M  V30 27 1 26 28
M  V30 28 1 28 2
M  V30 29 2 14 9
M  V30 30 2 20 15
M  V30 31 2 27 22
M  V30 32 1 1 29
M  V30 33 1 1 30
M  V30 34 1 1 31
M  V30 35 1 3 32
M  V30 36 1 3 33
M  V30 37 1 4 34
M  V30 38 1 5 35
M  V30 39 1 6 36
M  V30 40 1 6 37
M  V30 41 1 7 38
M  V30 42 1 7 39
M  V30 43 1 10 40
M  V30 44 1 11 41
M  V30 45 1 12 42
M  V30 46 1 14 43
M  V30 47 1 16 44
M  V30 48 1 17 45
M  V30 49 1 21 46
M  V30 50 1 23 47
M  V30 51 1 24 48
M  V30 52 1 25 49
M  V30 53 1 27 50
M  V30 54 1 28 51
M  V30 55 1 28 52
M  V30 END BOND
M  V30 END CTAB
M  END
>  <Dataset>  (42) 
ChEMBL_Kinases

>  <Ligand_Instance>  (42) 
nan

>  <PDB_ID>  (42) 
nan

>  <Standardized_SMILES>  (42) 
CN1C/C=C/CCOc2cccc(c2)-c2ccnc(n2)Nc2cccc(c2)C1

>  <Name>  (42) 
ZOTIRACICLIB

>  <Pocket>  (42) 
nan

>  <ATP_Site>  (42) 
nan

>  <Peripheral>  (42) 
nan

>  <Num_H_Atoms_ProtBoundConf>  (42) 
nan

>  <Num_Resolved_Atoms>  (42) 
nan

>  <Num_Not_Resolved_Atoms>  (42) 
nan

$$$$
CHEMBL3545137
     RDKit          3D

  0  0  0  0  0  0  0  0  0  0999 V3000
M  V30 BEGIN CTAB
M  V30 COUNTS 56 60 0 0 0
M  V30 BEGIN ATOM
M  V30 1 C 0.965600 -6.889638 6.750645 0
M  V30 2 N 1.177273 -6.607568 5.350115 0
M  V30 3 C 1.021340 -5.488787 4.621449 0
M  V30 4 C 1.334325 -5.622090 3.283974 0
M  V30 5 C 1.228720 -4.533282 2.352198 0
M  V30 6 N 0.837377 -3.378419 2.708956 0
M  V30 7 C 0.809461 -2.461923 1.632093 0
M  V30 8 C 0.449777 -1.141511 1.621211 0
M  V30 9 C 0.514964 -0.465734 0.419194 0
M  V30 10 N 0.147701 0.907429 0.365789 0
M  V30 11 C 0.105501 1.888225 -0.660090 0
M  V30 12 O 0.478791 1.424551 -1.764837 0
M  V30 13 C -0.347274 3.264046 -0.328428 0
M  V30 14 N -0.592130 3.437387 1.097437 0
M  V30 15 C -1.606967 3.571995 -1.065782 0
M  V30 16 C -2.108069 4.993528 -0.699173 0
M  V30 17 C -3.308435 5.239234 -1.584616 0
M  V30 18 C -3.734372 4.003901 -2.352690 0
M  V30 19 C -2.651249 3.453913 -3.243071 0
M  V30 20 C -1.313034 3.679470 -2.545838 0
M  V30 21 C 0.932499 -1.124822 -0.718005 0
M  V30 22 C 1.296585 -2.455396 -0.714973 0
M  V30 23 C 1.216450 -3.091127 0.505973 0
M  V30 24 C 1.499530 -4.448182 0.937204 0
M  V30 25 C 1.925740 -5.424802 0.179231 0
M  V30 26 N 2.217687 -5.438423 -1.206457 0
M  V30 27 N 2.194066 -4.394049 -2.166573 0
M  V30 28 C 1.719334 -3.044731 -1.971061 0
M  V30 29 O 1.638444 -2.253093 -2.930284 0
M  V30 30 C 1.698153 -6.930266 3.257792 0
M  V30 31 N 1.608780 -7.514812 4.464906 0
M  V30 32 H 0.190654 -6.248784 7.206696 0
M  V30 33 H 0.683087 -7.948595 6.907894 0
M  V30 34 H 1.907374 -6.654175 7.318903 0
M  V30 35 H 0.664451 -4.616047 5.190622 0
M  V30 36 H 0.124198 -0.663036 2.553061 0
M  V30 37 H -0.171337 1.300394 1.308121 0
M  V30 38 H 0.485644 3.940119 -0.577723 0
M  V30 39 H -1.606012 3.337081 1.328425 0
M  V30 40 H -0.157481 4.301631 1.461835 0
M  V30 41 H -2.406797 2.840184 -0.855321 0
M  V30 42 H -2.325604 5.082460 0.370531 0
M  V30 43 H -1.258943 5.667362 -1.004185 0
M  V30 44 H -4.195641 5.517052 -0.958613 0
M  V30 45 H -3.126995 6.043482 -2.338900 0
M  V30 46 H -4.218505 3.240896 -1.709037 0
M  V30 47 H -4.543032 4.355642 -3.045034 0
M  V30 48 H -2.596054 3.911638 -4.232482 0
M  V30 49 H -2.770548 2.346088 -3.350373 0
M  V30 50 H -0.535234 3.024812 -2.916173 0
M  V30 51 H -1.042830 4.746662 -2.813985 0
M  V30 52 H 1.023347 -0.712135 -1.698125 0
M  V30 53 H 2.068216 -6.334600 0.697318 0
M  V30 54 H 2.505577 -6.355826 -1.642294 0
M  V30 55 H 2.544636 -4.573194 -3.121128 0
M  V30 56 H 2.024767 -7.510000 2.446523 0
M  V30 END ATOM
M  V30 BEGIN BOND
M  V30 1 1 1 2
M  V30 2 1 2 3
M  V30 3 2 3 4
M  V30 4 1 4 5
M  V30 5 2 5 6
M  V30 6 1 6 7
M  V30 7 2 7 8
M  V30 8 1 8 9
M  V30 9 1 9 10
M  V30 10 1 10 11
M  V30 11 2 11 12
M  V30 12 1 11 13
M  V30 13 1 13 14
M  V30 14 1 13 15
M  V30 15 1 15 16
M  V30 16 1 16 17
M  V30 17 1 17 18
M  V30 18 1 18 19
M  V30 19 1 19 20
M  V30 20 2 9 21
M  V30 21 1 21 22
M  V30 22 2 22 23
M  V30 23 1 23 24
M  V30 24 2 24 25
M  V30 25 1 25 26
M  V30 26 1 26 27
M  V30 27 1 27 28
M  V30 28 2 28 29
M  V30 29 1 4 30
M  V30 30 2 30 31
M  V30 31 1 31 2
M  V30 32 1 24 5
M  V30 33 1 23 7
M  V30 34 1 20 15
M  V30 35 1 28 22
M  V30 36 1 1 32
M  V30 37 1 1 33
M  V30 38 1 1 34
M  V30 39 1 3 35
M  V30 40 1 8 36
M  V30 41 1 10 37
M  V30 42 1 13 38
M  V30 43 1 14 39
M  V30 44 1 14 40
M  V30 45 1 15 41
M  V30 46 1 16 42
M  V30 47 1 16 43
M  V30 48 1 17 44
M  V30 49 1 17 45
M  V30 50 1 18 46
M  V30 51 1 18 47
M  V30 52 1 19 48
M  V30 53 1 19 49
M  V30 54 1 20 50
M  V30 55 1 20 51
M  V30 56 1 21 52
M  V30 57 1 25 53
M  V30 58 1 26 54
M  V30 59 1 27 55
M  V30 60 1 30 56
M  V30 END BOND
M  V30 END CTAB
M  END
>  <Dataset>  (43) 
ChEMBL_Kinases

>  <Ligand_Instance>  (43) 
nan

>  <PDB_ID>  (43) 
nan

>  <Standardized_SMILES>  (43) 
Cn1cc(C2=Nc3cc(NC(=O)C(N)C4CCCCC4)cc4c3C2=CNNC4=O)cn1

>  <Name>  (43) 
PF-00477736

>  <Pocket>  (43) 
nan

>  <ATP_Site>  (43) 
nan

>  <Peripheral>  (43) 
nan

>  <Num_H_Atoms_ProtBoundConf>  (43) 
nan

>  <Num_Resolved_Atoms>  (43) 
nan

>  <Num_Not_Resolved_Atoms>  (43) 
nan

$$$$
CHEMBL494089
     RDKit          3D

  0  0  0  0  0  0  0  0  0  0999 V3000
M  V30 BEGIN CTAB
M  V30 COUNTS 58 61 0 0 0
M  V30 BEGIN ATOM
M  V30 1 C 1.830224 -2.882982 -0.971998 0
M  V30 2 C 1.450514 -1.449091 -1.367519 0
M  V30 3 N 1.127364 -0.661684 -0.204245 0
M  V30 4 C 1.996842 0.068296 0.517802 0
M  V30 5 C 3.428267 0.223861 0.291319 0
M  V30 6 N 4.227933 -0.295598 -0.655425 0
M  V30 7 O 5.455718 0.084857 -0.515450 0
M  V30 8 N 5.508323 0.867266 0.526886 0
M  V30 9 C 4.268751 0.989413 1.070416 0
M  V30 10 N 3.973005 1.771122 2.218095 0
M  V30 11 N 1.357165 0.674999 1.533761 0
M  V30 12 C 0.055864 0.337330 1.474184 0
M  V30 13 C -1.066396 0.636016 2.220859 0
M  V30 14 C -0.955568 1.504407 3.361752 0
M  V30 15 C -0.866438 2.219419 4.332716 0
M  V30 16 C -0.766225 3.079985 5.536423 0
M  V30 17 C 0.369140 4.044067 5.405038 0
M  V30 18 C -0.531604 2.241392 6.777320 0
M  V30 19 O -1.981637 3.723514 5.698829 0
M  V30 20 N -2.295371 0.130263 1.911851 0
M  V30 21 C -2.401935 -0.695017 0.827920 0
M  V30 22 C -1.301781 -1.032887 0.034977 0
M  V30 23 O -1.518857 -1.885326 -1.052189 0
M  V30 24 C -2.821488 -2.392538 -1.340474 0
M  V30 25 C -2.687819 -3.269012 -2.568676 0 CFG=1
M  V30 26 C -2.168452 -2.408983 -3.685024 0
M  V30 27 C -1.495489 -3.198143 -4.775970 0
M  V30 28 C -0.501705 -4.161023 -4.151508 0
M  V30 29 N -1.279821 -5.110754 -3.377160 0
M  V30 30 C -1.768158 -4.403383 -2.211974 0
M  V30 31 C -0.075153 -0.502286 0.378376 0
M  V30 32 H 1.933050 -3.525331 -1.844069 0
M  V30 33 H 0.994338 -3.310856 -0.349272 0
M  V30 34 H 2.704427 -2.869072 -0.290381 0
M  V30 35 H 2.317351 -1.018471 -1.877405 0
M  V30 36 H 0.602857 -1.557231 -2.072085 0
M  V30 37 H 3.558565 2.715924 2.390191 0
M  V30 38 H 4.062235 1.679074 3.242199 0
M  V30 39 H 0.839095 4.201721 6.386397 0
M  V30 40 H 0.086440 4.996420 4.918936 0
M  V30 41 H 1.146187 3.533607 4.766867 0
M  V30 42 H -1.449624 1.693991 7.104386 0
M  V30 43 H -0.091844 2.857824 7.572344 0
M  V30 44 H 0.180442 1.429262 6.465847 0
M  V30 45 H -2.657669 3.185399 6.186482 0
M  V30 46 H -3.408150 -1.074511 0.621751 0
M  V30 47 H -3.197521 -2.979303 -0.465019 0
M  V30 48 H -3.537306 -1.558896 -1.506471 0
M  V30 49 H -3.662637 -3.712018 -2.836437 0
M  V30 50 H -1.489252 -1.606358 -3.342471 0
M  V30 51 H -3.037639 -1.894775 -4.152487 0
M  V30 52 H -2.191736 -3.788913 -5.383357 0
M  V30 53 H -0.930737 -2.462661 -5.387613 0
M  V30 54 H 0.136319 -4.636782 -4.896395 0
M  V30 55 H 0.132706 -3.585540 -3.428114 0
M  V30 56 H -0.571451 -5.804458 -2.993984 0
M  V30 57 H -2.342100 -5.136991 -1.606129 0
M  V30 58 H -0.946953 -4.056406 -1.577361 0
M  V30 END ATOM
M  V30 BEGIN BOND
M  V30 1 1 1 2
M  V30 2 1 2 3
M  V30 3 1 3 4
M  V30 4 1 4 5
M  V30 5 2 5 6
M  V30 6 1 6 7
M  V30 7 1 7 8
M  V30 8 2 8 9
M  V30 9 1 9 10
M  V30 10 2 4 11
M  V30 11 1 11 12
M  V30 12 2 12 13
M  V30 13 1 13 14
M  V30 14 3 14 15
M  V30 15 1 15 16
M  V30 16 1 16 17
M  V30 17 1 16 18
M  V30 18 1 16 19
M  V30 19 1 13 20
M  V30 20 2 20 21
M  V30 21 1 21 22
M  V30 22 1 22 23
M  V30 23 1 23 24
M  V30 24 1 24 25
M  V30 25 1 25 26
M  V30 26 1 26 27
M  V30 27 1 27 28
M  V30 28 1 28 29
M  V30 29 1 29 30
M  V30 30 2 22 31
M  V30 31 1 31 3
M  V30 32 1 9 5
M  V30 33 1 31 12
M  V30 34 1 30 25
M  V30 35 1 1 32
M  V30 36 1 1 33
M  V30 37 1 1 34
M  V30 38 1 2 35
M  V30 39 1 2 36
M  V30 40 1 10 37
M  V30 41 1 10 38
M  V30 42 1 17 39
M  V30 43 1 17 40
M  V30 44 1 17 41
M  V30 45 1 18 42
M  V30 46 1 18 43
M  V30 47 1 18 44
M  V30 48 1 19 45
M  V30 49 1 21 46
M  V30 50 1 24 47
M  V30 51 1 24 48
M  V30 52 1 25 49 CFG=3
M  V30 53 1 26 50
M  V30 54 1 26 51
M  V30 55 1 27 52
M  V30 56 1 27 53
M  V30 57 1 28 54
M  V30 58 1 28 55
M  V30 59 1 29 56
M  V30 60 1 30 57
M  V30 61 1 30 58
M  V30 END BOND
M  V30 END CTAB
M  END
>  <Dataset>  (44) 
ChEMBL_Kinases

>  <Ligand_Instance>  (44) 
nan

>  <PDB_ID>  (44) 
nan

>  <Standardized_SMILES>  (44) 
CCn1c(-c2nonc2N)nc2c(C#CC(C)(C)O)ncc(OC[C@H]3CCCNC3)c21

>  <Name>  (44) 
GSK-690693

>  <Pocket>  (44) 
nan

>  <ATP_Site>  (44) 
nan

>  <Peripheral>  (44) 
nan

>  <Num_H_Atoms_ProtBoundConf>  (44) 
nan

>  <Num_Resolved_Atoms>  (44) 
nan

>  <Num_Not_Resolved_Atoms>  (44) 
nan

$$$$
CHEMBL477772
     RDKit          3D

  0  0  0  0  0  0  0  0  0  0999 V3000
M  V30 BEGIN CTAB
M  V30 COUNTS 54 57 0 0 0
M  V30 BEGIN ATOM
M  V30 1 C -0.101950 -2.413448 -3.010825 0
M  V30 2 C 0.663732 -2.601557 -1.767225 0
M  V30 3 C 1.713092 -1.732325 -1.518110 0
M  V30 4 C 2.481061 -1.856964 -0.377665 0
M  V30 5 C 2.147462 -2.881848 0.481546 0
M  V30 6 N 2.857324 -3.022439 1.732378 0
M  V30 7 C 2.997284 -1.776663 2.464361 0
M  V30 8 N 3.732829 -1.758059 3.588210 0
M  V30 9 C 3.832146 -0.597153 4.298082 0
M  V30 10 C 3.185237 0.553353 3.872318 0
M  V30 11 C 2.424403 0.531832 2.710003 0
M  V30 12 N 1.743735 1.656236 2.166861 0
M  V30 13 C 2.625543 2.798158 2.280528 0
M  V30 14 C 0.437151 1.632057 1.608995 0
M  V30 15 C -0.141143 2.726064 1.016085 0
M  V30 16 C -1.448473 2.670848 0.518338 0
M  V30 17 C -2.173699 1.500941 0.622538 0
M  V30 18 C -3.454256 1.197366 0.231105 0
M  V30 19 C -4.479912 2.031144 -0.455780 0
M  V30 20 N -3.626813 -0.100886 0.604354 0
M  V30 21 C -4.789740 -0.956916 0.459341 0
M  V30 22 N -2.521170 -0.557639 1.184917 0
M  V30 23 C -1.580203 0.396006 1.225760 0
M  V30 24 C -0.287361 0.467698 1.711479 0
M  V30 25 N 2.392175 -0.653011 2.088727 0
M  V30 26 C 1.104784 -3.747180 0.230332 0
M  V30 27 C 0.322384 -3.633915 -0.906881 0
M  V30 28 S -1.063314 -4.636943 -1.215754 0
M  V30 29 N -1.151158 -5.326898 -2.754797 0
M  V30 30 O -0.902121 -5.819786 -0.241177 0
M  V30 31 O -2.322098 -3.977901 -0.810316 0
M  V30 32 H 0.440945 -2.881484 -3.872715 0
M  V30 33 H -1.168624 -2.677622 -2.956252 0
M  V30 34 H -0.083726 -1.304971 -3.243938 0
M  V30 35 H 1.928695 -0.939862 -2.246055 0
M  V30 36 H 3.299715 -1.212025 -0.147331 0
M  V30 37 H 3.261101 -3.882818 2.133686 0
M  V30 38 H 4.437462 -0.618252 5.203477 0
M  V30 39 H 3.258113 1.460051 4.429081 0
M  V30 40 H 2.748201 3.100745 3.361729 0
M  V30 41 H 2.218709 3.719295 1.801404 0
M  V30 42 H 3.660234 2.589496 1.892882 0
M  V30 43 H 0.393613 3.657534 0.911552 0
M  V30 44 H -1.877288 3.546141 0.056338 0
M  V30 45 H -5.138084 1.378509 -1.081997 0
M  V30 46 H -5.123091 2.437023 0.352777 0
M  V30 47 H -4.040183 2.822787 -1.083718 0
M  V30 48 H -4.894027 -1.657514 1.310336 0
M  V30 49 H -5.692121 -0.333636 0.417785 0
M  V30 50 H -4.749957 -1.574792 -0.455524 0
M  V30 51 H 0.051049 -0.463862 2.158055 0
M  V30 52 H 0.887146 -4.547620 0.953934 0
M  V30 53 H -2.124313 -5.188576 -3.111235 0
M  V30 54 H -0.419541 -5.062171 -3.413300 0
M  V30 END ATOM
M  V30 BEGIN BOND
M  V30 1 1 1 2
M  V30 2 2 2 3
M  V30 3 1 3 4
M  V30 4 2 4 5
M  V30 5 1 5 6
M  V30 6 1 6 7
M  V30 7 2 7 8
M  V30 8 1 8 9
M  V30 9 2 9 10
M  V30 10 1 10 11
M  V30 11 1 11 12
M  V30 12 1 12 13
M  V30 13 1 12 14
M  V30 14 1 14 15
M  V30 15 2 15 16
M  V30 16 1 16 17
M  V30 17 2 17 18
M  V30 18 1 18 19
M  V30 19 1 18 20
M  V30 20 1 20 21
M  V30 21 1 20 22
M  V30 22 2 22 23
M  V30 23 1 23 24
M  V30 24 2 11 25
M  V30 25 1 5 26
M  V30 26 2 26 27
M  V30 27 1 27 28
M  V30 28 1 28 29
M  V30 29 2 28 30
M  V30 30 2 28 31
M  V30 31 1 27 2
M  V30 32 1 25 7
M  V30 33 2 24 14
M  V30 34 1 23 17
M  V30 35 1 1 32
M  V30 36 1 1 33
M  V30 37 1 1 34
M  V30 38 1 3 35
M  V30 39 1 4 36
M  V30 40 1 6 37
M  V30 41 1 9 38
M  V30 42 1 10 39
M  V30 43 1 13 40
M  V30 44 1 13 41
M  V30 45 1 13 42
M  V30 46 1 15 43
M  V30 47 1 16 44
M  V30 48 1 19 45
M  V30 49 1 19 46
M  V30 50 1 19 47
M  V30 51 1 21 48
M  V30 52 1 21 49
M  V30 53 1 21 50
M  V30 54 1 24 51
M  V30 55 1 26 52
M  V30 56 1 29 53
M  V30 57 1 29 54
M  V30 END BOND
M  V30 END CTAB
M  END
>  <Dataset>  (45) 
ChEMBL_Kinases

>  <Ligand_Instance>  (45) 
nan

>  <PDB_ID>  (45) 
nan

>  <Standardized_SMILES>  (45) 
Cc1ccc(Nc2nccc(N(C)c3ccc4c(C)n(C)nc4c3)n2)cc1S(N)(=O)=O

>  <Name>  (45) 
PAZOPANIB

>  <Pocket>  (45) 
nan

>  <ATP_Site>  (45) 
nan

>  <Peripheral>  (45) 
nan

>  <Num_H_Atoms_ProtBoundConf>  (45) 
nan

>  <Num_Resolved_Atoms>  (45) 
nan

>  <Num_Not_Resolved_Atoms>  (45) 
nan

$$$$
CHEMBL3544932
     RDKit          3D

  0  0  0  0  0  0  0  0  0  0999 V3000
M  V30 BEGIN CTAB
M  V30 COUNTS 68 72 0 0 0
M  V30 BEGIN ATOM
M  V30 1 C 4.861010 0.881187 5.600736 0
M  V30 2 C 5.168541 -0.426275 4.949600 0
M  V30 3 S 5.493193 -0.324743 3.221119 0
M  V30 4 O 5.797815 -1.715456 2.733904 0
M  V30 5 O 6.740759 0.490233 3.017452 0
M  V30 6 C 4.168932 0.316603 2.310992 0
M  V30 7 C 4.023669 1.646488 2.003270 0
M  V30 8 C 2.935957 2.071369 1.271712 0
M  V30 9 C 1.996586 1.120867 0.856934 0
M  V30 10 C 2.094142 -0.229499 1.138760 0
M  V30 11 C 0.967486 -0.974985 0.636702 0
M  V30 12 C -0.250754 -0.545077 1.168392 0
M  V30 13 C -1.462666 -1.134676 0.880355 0
M  V30 14 C -2.729501 -0.678138 1.438063 0
M  V30 15 O -3.124726 -0.790340 2.644157 0
M  V30 16 N -3.677585 -0.028212 0.604956 0
M  V30 17 C -4.977019 0.528713 0.819388 0
M  V30 18 C -5.981017 -0.317206 0.037369 0
M  V30 19 C -5.652368 -0.366816 -1.429215 0
M  V30 20 N -5.374450 0.964940 -1.902346 0
M  V30 21 C -5.976912 1.103857 -3.208924 0
M  V30 22 C -5.830154 2.009386 -1.002554 0
M  V30 23 C -5.128495 1.943054 0.320458 0
M  V30 24 C -1.484848 -2.215495 0.015150 0
M  V30 25 C -2.734525 -2.897731 -0.337755 0
M  V30 26 C -0.298555 -2.661117 -0.525590 0
M  V30 27 N -0.025775 -3.660190 -1.378462 0
M  V30 28 C 1.298485 -3.685521 -1.611026 0
M  V30 29 N 2.078975 -4.464525 -2.378362 0
M  V30 30 C 3.420373 -4.310928 -2.479680 0
M  V30 31 C 4.016260 -3.285261 -1.744892 0
M  V30 32 C 5.502677 -3.168539 -1.900804 0
M  V30 33 C 3.239363 -2.475005 -0.952947 0
M  V30 34 C 1.888618 -2.675938 -0.886396 0
M  V30 35 C 0.883933 -2.043836 -0.211396 0
M  V30 36 C 3.223018 -0.584379 1.884060 0
M  V30 37 H 4.051294 0.680272 6.361166 0
M  V30 38 H 4.455993 1.653631 4.916980 0
M  V30 39 H 5.730382 1.252896 6.188141 0
M  V30 40 H 4.402432 -1.201413 5.172748 0
M  V30 41 H 6.107404 -0.828647 5.420803 0
M  V30 42 H 4.767173 2.349944 2.338783 0
M  V30 43 H 2.865213 3.125850 1.054051 0
M  V30 44 H 1.197325 1.588055 0.295768 0
M  V30 45 H -0.350591 0.288135 1.852523 0
M  V30 46 H -3.489167 0.137447 -0.429724 0
M  V30 47 H -5.314975 0.431254 1.885471 0
M  V30 48 H -6.950652 0.210707 0.147509 0
M  V30 49 H -6.114782 -1.317338 0.485834 0
M  V30 50 H -6.501393 -0.829735 -1.950194 0
M  V30 51 H -4.755900 -0.976076 -1.654363 0
M  V30 52 H -7.078844 1.321262 -3.124470 0
M  V30 53 H -5.870552 0.126262 -3.717636 0
M  V30 54 H -5.459565 1.921397 -3.749036 0
M  V30 55 H -5.538492 2.969188 -1.482788 0
M  V30 56 H -6.922998 2.017785 -0.900093 0
M  V30 57 H -5.765768 2.514994 1.055726 0
M  V30 58 H -4.122285 2.399800 0.219513 0
M  V30 59 H -2.759888 -3.857762 0.248464 0
M  V30 60 H -3.608463 -2.330546 0.010261 0
M  V30 61 H -2.808482 -3.201304 -1.403596 0
M  V30 62 H -0.742340 -4.304200 -1.785684 0
M  V30 63 H 4.009849 -4.958290 -3.110635 0
M  V30 64 H 6.039020 -3.968863 -1.383289 0
M  V30 65 H 5.724523 -3.268443 -2.995122 0
M  V30 66 H 5.854470 -2.139100 -1.624520 0
M  V30 67 H 3.829644 -1.736273 -0.470448 0
M  V30 68 H 3.212745 -1.668560 2.059445 0
M  V30 END ATOM
M  V30 BEGIN BOND
M  V30 1 1 1 2
M  V30 2 1 2 3
M  V30 3 2 3 4
M  V30 4 2 3 5
M  V30 5 1 3 6
M  V30 6 2 6 7
M  V30 7 1 7 8
M  V30 8 2 8 9
M  V30 9 1 9 10
M  V30 10 1 10 11
M  V30 11 2 11 12
M  V30 12 1 12 13
M  V30 13 1 13 14
M  V30 14 2 14 15
M  V30 15 1 14 16
M  V30 16 1 16 17
M  V30 17 1 17 18
M  V30 18 1 18 19
M  V30 19 1 19 20
M  V30 20 1 20 21
M  V30 21 1 20 22
M  V30 22 1 22 23
M  V30 23 2 13 24
M  V30 24 1 24 25
M  V30 25 1 24 26
M  V30 26 1 26 27
M  V30 27 1 27 28
M  V30 28 2 28 29
M  V30 29 1 29 30
M  V30 30 2 30 31
M  V30 31 1 31 32
M  V30 32 1 31 33
M  V30 33 2 33 34
M  V30 34 1 34 35
M  V30 35 2 10 36
M  V30 36 1 36 6
M  V30 37 1 35 11
M  V30 38 1 23 17
M  V30 39 2 35 26
M  V30 40 1 34 28
M  V30 41 1 1 37
M  V30 42 1 1 38
M  V30 43 1 1 39
M  V30 44 1 2 40
M  V30 45 1 2 41
M  V30 46 1 7 42
M  V30 47 1 8 43
M  V30 48 1 9 44
M  V30 49 1 12 45
M  V30 50 1 16 46
M  V30 51 1 17 47
M  V30 52 1 18 48
M  V30 53 1 18 49
M  V30 54 1 19 50
M  V30 55 1 19 51
M  V30 56 1 21 52
M  V30 57 1 21 53
M  V30 58 1 21 54
M  V30 59 1 22 55
M  V30 60 1 22 56
M  V30 61 1 23 57
M  V30 62 1 23 58
M  V30 63 1 25 59
M  V30 64 1 25 60
M  V30 65 1 25 61
M  V30 66 1 27 62
M  V30 67 1 30 63
M  V30 68 1 32 64
M  V30 69 1 32 65
M  V30 70 1 32 66
M  V30 71 1 33 67
M  V30 72 1 36 68
M  V30 END BOND
M  V30 END CTAB
M  END
>  <Dataset>  (46) 
ChEMBL_Kinases

>  <Ligand_Instance>  (46) 
nan

>  <PDB_ID>  (46) 
nan

>  <Standardized_SMILES>  (46) 
CCS(=O)(=O)c1cccc(-c2cc(C(=O)NC3CCN(C)CC3)c(C)c3[nH]c4ncc(C)cc4c23)c1

>  <Name>  (46) 
TAK-901

>  <Pocket>  (46) 
nan

>  <ATP_Site>  (46) 
nan

>  <Peripheral>  (46) 
nan

>  <Num_H_Atoms_ProtBoundConf>  (46) 
nan

>  <Num_Resolved_Atoms>  (46) 
nan

>  <Num_Not_Resolved_Atoms>  (46) 
nan

$$$$
CHEMBL1078178
     RDKit          3D

  0  0  0  0  0  0  0  0  0  0999 V3000
M  V30 BEGIN CTAB
M  V30 COUNTS 53 56 0 0 0
M  V30 BEGIN ATOM
M  V30 1 N -7.418228 2.186373 -2.773533 0
M  V30 2 C -6.545571 2.931230 -2.619853 0
M  V30 3 C -5.440234 3.881919 -2.402006 0
M  V30 4 N -4.332226 3.128627 -1.852971 0
M  V30 5 C -3.221701 3.976658 -1.614404 0
M  V30 6 O -3.468810 5.185079 -1.939282 0
M  V30 7 C -1.945191 3.518479 -1.061651 0
M  V30 8 C -1.692692 2.202071 -0.722436 0
M  V30 9 C -0.446241 1.898408 -0.208288 0
M  V30 10 C 0.575482 2.796994 -0.001938 0
M  V30 11 C 1.869798 2.423779 0.543389 0
M  V30 12 C 2.844883 3.370720 0.726278 0
M  V30 13 C 4.056154 2.973803 1.247852 0
M  V30 14 N 4.267382 1.692654 1.565793 0
M  V30 15 C 3.333668 0.746776 1.397865 0
M  V30 16 N 3.639240 -0.588836 1.763820 0
M  V30 17 C 2.826306 -1.749036 1.669979 0
M  V30 18 C 1.553947 -1.808535 1.147897 0
M  V30 19 C 0.779872 -2.945314 1.069550 0
M  V30 20 C 1.281891 -4.123783 1.536911 0
M  V30 21 N 0.517324 -5.317082 1.471023 0
M  V30 22 C -0.768096 -5.483446 0.861446 0
M  V30 23 C -1.746863 -5.917788 1.953752 0
M  V30 24 O -1.422974 -7.245322 2.229494 0
M  V30 25 C -0.197385 -7.223131 2.874214 0
M  V30 26 C 0.904882 -6.600651 2.022594 0
M  V30 27 C 2.542110 -4.114759 2.064598 0
M  V30 28 C 3.287985 -2.964367 2.128038 0
M  V30 29 N 2.166351 1.164961 0.888529 0
M  V30 30 C 0.274051 4.089903 -0.354911 0
M  V30 31 C -0.965326 4.483426 -0.883100 0
M  V30 32 H -5.781524 4.634651 -1.691600 0
M  V30 33 H -5.217168 4.329896 -3.380659 0
M  V30 34 H -4.248615 2.105829 -1.623745 0
M  V30 35 H -2.468259 1.464333 -0.868875 0
M  V30 36 H -0.319105 0.855070 0.034174 0
M  V30 37 H 2.760506 4.400497 0.502552 0
M  V30 38 H 4.867080 3.669389 1.417484 0
M  V30 39 H 4.596619 -0.751432 2.158905 0
M  V30 40 H 1.117255 -0.898576 0.764512 0
M  V30 41 H -0.220795 -2.848200 0.628752 0
M  V30 42 H -0.740333 -6.329923 0.128687 0
M  V30 43 H -1.212634 -4.577244 0.420575 0
M  V30 44 H -2.796610 -5.789443 1.612660 0
M  V30 45 H -1.627549 -5.342874 2.877770 0
M  V30 46 H 0.111547 -8.270225 3.066219 0
M  V30 47 H -0.268977 -6.726277 3.875322 0
M  V30 48 H 1.015741 -7.303669 1.147379 0
M  V30 49 H 1.793694 -6.590155 2.648691 0
M  V30 50 H 3.019770 -5.011523 2.459024 0
M  V30 51 H 4.289721 -3.014104 2.560614 0
M  V30 52 H 0.971864 4.899171 -0.250306 0
M  V30 53 H -1.165947 5.511018 -1.149180 0
M  V30 END ATOM
M  V30 BEGIN BOND
M  V30 1 3 1 2
M  V30 2 1 2 3
M  V30 3 1 3 4
M  V30 4 1 4 5
M  V30 5 2 5 6
M  V30 6 1 5 7
M  V30 7 2 7 8
M  V30 8 1 8 9
M  V30 9 2 9 10
M  V30 10 1 10 11
M  V30 11 2 11 12
M  V30 12 1 12 13
M  V30 13 2 13 14
M  V30 14 1 14 15
M  V30 15 1 15 16
M  V30 16 1 16 17
M  V30 17 2 17 18
M  V30 18 1 18 19
M  V30 19 2 19 20
M  V30 20 1 20 21
M  V30 21 1 21 22
M  V30 22 1 22 23
M  V30 23 1 23 24
M  V30 24 1 24 25
M  V30 25 1 25 26
M  V30 26 1 20 27
M  V30 27 2 27 28
M  V30 28 2 15 29
M  V30 29 1 10 30
M  V30 30 2 30 31
M  V30 31 1 31 7
M  V30 32 1 29 11
M  V30 33 1 28 17
M  V30 34 1 26 21
M  V30 35 1 3 32
M  V30 36 1 3 33
M  V30 37 1 4 34
M  V30 38 1 8 35
M  V30 39 1 9 36
M  V30 40 1 12 37
M  V30 41 1 13 38
M  V30 42 1 16 39
M  V30 43 1 18 40
M  V30 44 1 19 41
M  V30 45 1 22 42
M  V30 46 1 22 43
M  V30 47 1 23 44
M  V30 48 1 23 45
M  V30 49 1 25 46
M  V30 50 1 25 47
M  V30 51 1 26 48
M  V30 52 1 26 49
M  V30 53 1 27 50
M  V30 54 1 28 51
M  V30 55 1 30 52
M  V30 56 1 31 53
M  V30 END BOND
M  V30 END CTAB
M  END
>  <Dataset>  (47) 
ChEMBL_Kinases

>  <Ligand_Instance>  (47) 
nan

>  <PDB_ID>  (47) 
nan

>  <Standardized_SMILES>  (47) 
N#CCNC(=O)c1ccc(-c2ccnc(Nc3ccc(N4CCOCC4)cc3)n2)cc1

>  <Name>  (47) 
MOMELOTINIB

>  <Pocket>  (47) 
nan

>  <ATP_Site>  (47) 
nan

>  <Peripheral>  (47) 
nan

>  <Num_H_Atoms_ProtBoundConf>  (47) 
nan

>  <Num_Resolved_Atoms>  (47) 
nan

>  <Num_Not_Resolved_Atoms>  (47) 
nan

$$$$
CHEMBL3545396
     RDKit          3D

  0  0  0  0  0  0  0  0  0  0999 V3000
M  V30 BEGIN CTAB
M  V30 COUNTS 51 54 0 0 0
M  V30 BEGIN ATOM
M  V30 1 C 2.936643 -2.893405 2.950923 0
M  V30 2 O 2.654066 -3.542257 1.748876 0
M  V30 3 C 2.360359 -2.963695 0.542997 0
M  V30 4 C 2.111283 -3.826951 -0.520743 0
M  V30 5 C 1.806245 -3.319718 -1.776984 0
M  V30 6 C 1.737081 -1.961756 -2.025227 0
M  V30 7 C 1.983503 -1.081215 -0.974089 0
M  V30 8 N 1.950516 0.353181 -1.052725 0
M  V30 9 C 2.238898 1.274082 -0.019888 0
M  V30 10 N 3.571560 1.562830 0.066422 0
M  V30 11 C 3.913662 2.444299 1.035903 0
M  V30 12 N 3.062998 3.036445 1.891045 0
M  V30 13 N 1.766722 2.743357 1.792230 0
M  V30 14 C 0.690655 3.162821 2.481461 0
M  V30 15 C -0.403157 2.529048 1.942074 0
M  V30 16 C 0.012144 1.698136 0.893391 0
M  V30 17 C -0.891223 0.865119 0.098006 0
M  V30 18 N -0.917839 -0.522748 0.410839 0
M  V30 19 C -1.296061 -0.839750 1.755470 0
M  V30 20 C -2.756661 -0.855809 2.037538 0
M  V30 21 C -3.450767 -1.771579 1.034308 0 CFG=1
M  V30 22 N -4.872717 -1.780491 1.292882 0
M  V30 23 C -3.199468 -1.132530 -0.325156 0 CFG=2
M  V30 24 O -3.838253 -1.908192 -1.275815 0
M  V30 25 C -1.710165 -1.204645 -0.585625 0
M  V30 26 C 1.367566 1.880706 0.856386 0
M  V30 27 C 2.283500 -1.617188 0.260780 0
M  V30 28 H 4.026704 -2.988232 3.173243 0
M  V30 29 H 2.360996 -3.331739 3.795282 0
M  V30 30 H 2.708245 -1.808099 2.951641 0
M  V30 31 H 2.138339 -4.913230 -0.439282 0
M  V30 32 H 1.604758 -3.973540 -2.634757 0
M  V30 33 H 1.511621 -1.493487 -2.950578 0
M  V30 34 H 1.684738 0.769471 -1.974527 0
M  V30 35 H 4.978773 2.707874 1.142565 0
M  V30 36 H 0.694121 3.872070 3.308856 0
M  V30 37 H -1.418931 2.657713 2.280457 0
M  V30 38 H -0.682055 0.943970 -1.010813 0
M  V30 39 H -1.933587 1.241137 0.191165 0
M  V30 40 H -0.907950 -1.861091 2.040176 0
M  V30 41 H -0.757483 -0.147872 2.429838 0
M  V30 42 H -3.175040 0.147337 1.903694 0
M  V30 43 H -2.891336 -1.253539 3.066285 0
M  V30 44 H -2.975256 -2.754831 1.022528 0
M  V30 45 H -5.119069 -1.269326 2.174163 0
M  V30 46 H -5.420084 -1.306006 0.540697 0
M  V30 47 H -3.518994 -0.081472 -0.292581 0
M  V30 48 H -3.337660 -2.751879 -1.348290 0
M  V30 49 H -1.546262 -0.657997 -1.554249 0
M  V30 50 H -1.369802 -2.233814 -0.732071 0
M  V30 51 H 2.481826 -0.968222 1.105941 0
M  V30 END ATOM
M  V30 BEGIN BOND
M  V30 1 1 1 2
M  V30 2 1 2 3
M  V30 3 2 3 4
M  V30 4 1 4 5
M  V30 5 2 5 6
M  V30 6 1 6 7
M  V30 7 1 7 8
M  V30 8 1 8 9
M  V30 9 2 9 10
M  V30 10 1 10 11
M  V30 11 2 11 12
M  V30 12 1 12 13
M  V30 13 1 13 14
M  V30 14 2 14 15
M  V30 15 1 15 16
M  V30 16 1 16 17
M  V30 17 1 17 18
M  V30 18 1 18 19
M  V30 19 1 19 20
M  V30 20 1 20 21
M  V30 21 1 21 22
M  V30 22 1 21 23
M  V30 23 1 23 24
M  V30 24 1 23 25
M  V30 25 2 16 26
M  V30 26 2 7 27
M  V30 27 1 27 3
M  V30 28 1 26 9
M  V30 29 1 26 13
M  V30 30 1 25 18
M  V30 31 1 1 28
M  V30 32 1 1 29
M  V30 33 1 1 30
M  V30 34 1 4 31
M  V30 35 1 5 32
M  V30 36 1 6 33
M  V30 37 1 8 34
M  V30 38 1 11 35
M  V30 39 1 14 36
M  V30 40 1 15 37
M  V30 41 1 17 38
M  V30 42 1 17 39
M  V30 43 1 19 40
M  V30 44 1 19 41
M  V30 45 1 20 42
M  V30 46 1 20 43
M  V30 47 1 21 44 CFG=3
M  V30 48 1 22 45
M  V30 49 1 22 46
M  V30 50 1 23 47 CFG=1
M  V30 51 1 24 48
M  V30 52 1 25 49
M  V30 53 1 25 50
M  V30 54 1 27 51
M  V30 END BOND
M  V30 END CTAB
M  END
>  <Dataset>  (48) 
ChEMBL_Kinases

>  <Ligand_Instance>  (48) 
nan

>  <PDB_ID>  (48) 
nan

>  <Standardized_SMILES>  (48) 
COc1cccc(Nc2ncnn3ccc(CN4CC[C@@H](N)[C@H](O)C4)c23)c1

>  <Name>  (48) 
BMS-690514

>  <Pocket>  (48) 
nan

>  <ATP_Site>  (48) 
nan

>  <Peripheral>  (48) 
nan

>  <Num_H_Atoms_ProtBoundConf>  (48) 
nan

>  <Num_Resolved_Atoms>  (48) 
nan

>  <Num_Not_Resolved_Atoms>  (48) 
nan

$$$$
CHEMBL402548
     RDKit          3D

  0  0  0  0  0  0  0  0  0  0999 V3000
M  V30 BEGIN CTAB
M  V30 COUNTS 65 69 0 0 0
M  V30 BEGIN ATOM
M  V30 1 C 0.797385 -0.880635 3.339025 0
M  V30 2 O 1.571084 0.168674 3.811679 0
M  V30 3 C 2.734641 -0.250432 4.455342 0 CFG=1
M  V30 4 C 3.936597 0.252729 3.715044 0
M  V30 5 O 5.195916 0.215160 3.788047 0
M  V30 6 N 3.794954 1.036583 2.535227 0
M  V30 7 C 4.932539 1.542754 1.790117 0
M  V30 8 C 4.666707 0.965590 0.427158 0
M  V30 9 N 5.159035 0.424255 -0.701931 0
M  V30 10 N 4.152951 0.154035 -1.517643 0
M  V30 11 C 2.982431 0.509264 -0.947405 0
M  V30 12 N 1.646854 0.413095 -1.434914 0
M  V30 13 C 0.910635 -0.767074 -1.168673 0
M  V30 14 O 1.568542 -1.612027 -0.504985 0
M  V30 15 C -0.463873 -0.969100 -1.621532 0
M  V30 16 C -1.211005 -0.055500 -2.350641 0
M  V30 17 C -2.515182 -0.364467 -2.725488 0
M  V30 18 C -3.055461 -1.579436 -2.368099 0
M  V30 19 N -4.390443 -1.821028 -2.787930 0
M  V30 20 C -5.089453 -0.811952 -3.560737 0
M  V30 21 C -6.400083 -1.382175 -4.117533 0
M  V30 22 N -6.046984 -2.611678 -4.763198 0
M  V30 23 C -5.351115 -2.469697 -5.991706 0
M  V30 24 C -5.596040 -3.632818 -3.879352 0
M  V30 25 C -5.197011 -2.999721 -2.537952 0
M  V30 26 C -2.327547 -2.497291 -1.644610 0
M  V30 27 C -1.045388 -2.192005 -1.276839 0
M  V30 28 C 3.289080 1.037361 0.312509 0
M  V30 29 C 2.837756 1.647028 1.604666 0
M  V30 30 C 2.724220 0.245381 5.854891 0
M  V30 31 C 1.547054 0.106403 6.566014 0
M  V30 32 C 1.395893 0.522192 7.872064 0
M  V30 33 C 2.452203 1.111090 8.534244 0
M  V30 34 C 3.650820 1.260166 7.831312 0
M  V30 35 C 3.781985 0.834809 6.517153 0
M  V30 36 H -0.130078 -0.499358 2.827775 0
M  V30 37 H 1.357482 -1.465161 2.570286 0
M  V30 38 H 0.484832 -1.593841 4.128155 0
M  V30 39 H 2.727192 -1.378248 4.413366 0
M  V30 40 H 4.896210 2.661658 1.682062 0
M  V30 41 H 5.898027 1.199675 2.190024 0
M  V30 42 H 6.186663 0.257855 -0.872545 0
M  V30 43 H 1.203525 1.195800 -1.983411 0
M  V30 44 H -0.717150 0.878522 -2.594085 0
M  V30 45 H -2.972490 0.437602 -3.285897 0
M  V30 46 H -4.479244 -0.380096 -4.381040 0
M  V30 47 H -5.344608 0.011347 -2.859432 0
M  V30 48 H -7.118174 -1.551862 -3.311083 0
M  V30 49 H -6.745990 -0.672797 -4.905112 0
M  V30 50 H -5.994961 -2.601026 -6.888353 0
M  V30 51 H -4.453043 -3.140108 -5.997102 0
M  V30 52 H -4.948757 -1.436638 -6.061363 0
M  V30 53 H -4.746548 -4.162877 -4.325516 0
M  V30 54 H -6.367778 -4.419209 -3.684229 0
M  V30 55 H -4.694616 -3.750672 -1.894607 0
M  V30 56 H -6.113649 -2.712126 -1.967052 0
M  V30 57 H -2.753086 -3.450099 -1.365171 0
M  V30 58 H -0.481194 -2.937022 -0.700285 0
M  V30 59 H 1.800295 1.372641 1.813464 0
M  V30 60 H 2.969083 2.752405 1.574647 0
M  V30 61 H 0.644564 -0.337088 6.167219 0
M  V30 62 H 0.478751 0.418909 8.440337 0
M  V30 63 H 2.471533 1.481130 9.552839 0
M  V30 64 H 4.520350 1.722366 8.313150 0
M  V30 65 H 4.702099 0.940980 5.954421 0
M  V30 END ATOM
M  V30 BEGIN BOND
M  V30 1 1 1 2
M  V30 2 1 2 3
M  V30 3 1 3 4
M  V30 4 2 4 5
M  V30 5 1 4 6
M  V30 6 1 6 7
M  V30 7 1 7 8
M  V30 8 1 8 9
M  V30 9 1 9 10
M  V30 10 2 10 11
M  V30 11 1 11 12
M  V30 12 1 12 13
M  V30 13 2 13 14
M  V30 14 1 13 15
M  V30 15 2 15 16
M  V30 16 1 16 17
M  V30 17 2 17 18
M  V30 18 1 18 19
M  V30 19 1 19 20
M  V30 20 1 20 21
M  V30 21 1 21 22
M  V30 22 1 22 23
M  V30 23 1 22 24
M  V30 24 1 24 25
M  V30 25 1 18 26
M  V30 26 2 26 27
M  V30 27 1 11 28
M  V30 28 1 28 29
M  V30 29 1 3 30
M  V30 30 2 30 31
M  V30 31 1 31 32
M  V30 32 2 32 33
M  V30 33 1 33 34
M  V30 34 2 34 35
M  V30 35 1 29 6
M  V30 36 1 35 30
M  V30 37 2 28 8
M  V30 38 1 27 15
M  V30 39 1 25 19
M  V30 40 1 1 36
M  V30 41 1 1 37
M  V30 42 1 1 38
M  V30 43 1 3 39 CFG=1
M  V30 44 1 7 40
M  V30 45 1 7 41
M  V30 46 1 9 42
M  V30 47 1 12 43
M  V30 48 1 16 44
M  V30 49 1 17 45
M  V30 50 1 20 46
M  V30 51 1 20 47
M  V30 52 1 21 48
M  V30 53 1 21 49
M  V30 54 1 23 50
M  V30 55 1 23 51
M  V30 56 1 23 52
M  V30 57 1 24 53
M  V30 58 1 24 54
M  V30 59 1 25 55
M  V30 60 1 25 56
M  V30 61 1 26 57
M  V30 62 1 27 58
M  V30 63 1 29 59
M  V30 64 1 29 60
M  V30 65 1 31 61
M  V30 66 1 32 62
M  V30 67 1 33 63
M  V30 68 1 34 64
M  V30 69 1 35 65
M  V30 END BOND
M  V30 END CTAB
M  END
>  <Dataset>  (49) 
ChEMBL_Kinases

>  <Ligand_Instance>  (49) 
nan

>  <PDB_ID>  (49) 
nan

>  <Standardized_SMILES>  (49) 
CO[C@@H](C(=O)N1Cc2[nH]nc(NC(=O)c3ccc(N4CCN(C)CC4)cc3)c2C1)c1ccccc1

>  <Name>  (49) 
DANUSERTIB

>  <Pocket>  (49) 
nan

>  <ATP_Site>  (49) 
nan

>  <Peripheral>  (49) 
nan

>  <Num_H_Atoms_ProtBoundConf>  (49) 
nan

>  <Num_Resolved_Atoms>  (49) 
nan

>  <Num_Not_Resolved_Atoms>  (49) 
nan

$$$$
CHEMBL278041
     RDKit          3D

  0  0  0  0  0  0  0  0  0  0999 V3000
M  V30 BEGIN CTAB
M  V30 COUNTS 39 42 0 0 0
M  V30 BEGIN ATOM
M  V30 1 O 2.283708 -4.770793 6.069531 0
M  V30 2 C 1.885645 -3.912349 5.034775 0
M  V30 3 C 1.049509 -4.417208 4.063628 0
M  V30 4 C 0.652683 -3.558819 3.030598 0
M  V30 5 C 1.136308 -2.258195 3.066826 0
M  V30 6 C 0.715860 -1.368813 1.982928 0
M  V30 7 N 1.034645 -0.076671 1.778615 0
M  V30 8 C 0.443696 0.391625 0.662329 0
M  V30 9 C 0.535136 1.734125 0.095678 0
M  V30 10 C 1.124299 1.714450 -1.156991 0
M  V30 11 C 1.317287 2.878956 -1.891653 0
M  V30 12 C 0.901413 4.095036 -1.340342 0
M  V30 13 F 1.057384 5.287402 -2.003716 0
M  V30 14 C 0.320332 4.096262 -0.099748 0
M  V30 15 C 0.129243 2.940865 0.628267 0
M  V30 16 C -0.287274 -0.649739 0.127676 0
M  V30 17 C -1.114960 -0.677842 -1.078353 0
M  V30 18 C -0.943921 -1.470107 -2.195727 0
M  V30 19 C -1.847376 -1.345359 -3.246006 0
M  V30 20 N -2.880167 -0.484399 -3.216490 0
M  V30 21 C -3.032077 0.278220 -2.123158 0
M  V30 22 C -2.183483 0.219795 -1.036084 0
M  V30 23 N -0.098025 -1.708912 0.959864 0
M  V30 24 C 1.974091 -1.769045 4.048673 0
M  V30 25 C 2.372614 -2.623553 5.082094 0
M  V30 26 H 1.606213 -5.403385 6.511915 0
M  V30 27 H 0.705589 -5.448673 4.093642 0
M  V30 28 H 0.005565 -3.949118 2.278711 0
M  V30 29 H 1.484371 0.853633 -1.687051 0
M  V30 30 H 1.758955 2.961217 -2.857667 0
M  V30 31 H -0.032509 4.990413 0.406410 0
M  V30 32 H -0.315965 2.835880 1.607710 0
M  V30 33 H -0.103316 -2.133439 -2.155706 0
M  V30 34 H -1.594842 -2.030113 -4.065639 0
M  V30 35 H -3.880715 0.974684 -2.117635 0
M  V30 36 H -2.402937 0.871485 -0.227494 0
M  V30 37 H -0.539160 -2.644640 0.797548 0
M  V30 38 H 2.325818 -0.749029 4.036448 0
M  V30 39 H 3.023329 -2.314651 5.881707 0
M  V30 END ATOM
M  V30 BEGIN BOND
M  V30 1 1 1 2
M  V30 2 2 2 3
M  V30 3 1 3 4
M  V30 4 2 4 5
M  V30 5 1 5 6
M  V30 6 2 6 7
M  V30 7 1 7 8
M  V30 8 1 8 9
M  V30 9 2 9 10
M  V30 10 1 10 11
M  V30 11 2 11 12
M  V30 12 1 12 13
M  V30 13 1 12 14
M  V30 14 2 14 15
M  V30 15 2 8 16
M  V30 16 1 16 17
M  V30 17 2 17 18
M  V30 18 1 18 19
M  V30 19 2 19 20
M  V30 20 1 20 21
M  V30 21 2 21 22
M  V30 22 1 16 23
M  V30 23 1 5 24
M  V30 24 2 24 25
M  V30 25 1 25 2
M  V30 26 1 23 6
M  V30 27 1 15 9
M  V30 28 1 22 17
M  V30 29 1 1 26
M  V30 30 1 3 27
M  V30 31 1 4 28
M  V30 32 1 10 29
M  V30 33 1 11 30
M  V30 34 1 14 31
M  V30 35 1 15 32
M  V30 36 1 18 33
M  V30 37 1 19 34
M  V30 38 1 21 35
M  V30 39 1 22 36
M  V30 40 1 23 37
M  V30 41 1 24 38
M  V30 42 1 25 39
M  V30 END BOND
M  V30 END CTAB
M  END
>  <Dataset>  (50) 
ChEMBL_Kinases

>  <Ligand_Instance>  (50) 
nan

>  <PDB_ID>  (50) 
nan

>  <Standardized_SMILES>  (50) 
Oc1ccc(-c2nc(-c3ccc(F)cc3)c(-c3ccncc3)[nH]2)cc1

>  <Name>  (50) 
SB-202190

>  <Pocket>  (50) 
nan

>  <ATP_Site>  (50) 
nan

>  <Peripheral>  (50) 
nan

>  <Num_H_Atoms_ProtBoundConf>  (50) 
nan

>  <Num_Resolved_Atoms>  (50) 
nan

>  <Num_Not_Resolved_Atoms>  (50) 
nan

$$$$
CHEMBL223360
     RDKit          3D

  0  0  0  0  0  0  0  0  0  0999 V3000
M  V30 BEGIN CTAB
M  V30 COUNTS 46 49 0 0 0
M  V30 BEGIN ATOM
M  V30 1 C 6.407053 -3.989280 0.717671 0
M  V30 2 C 5.479662 -3.652680 -0.399538 0
M  V30 3 C 5.182435 -4.608596 -1.349936 0
M  V30 4 C 4.322374 -4.288200 -2.381465 0
M  V30 5 C 3.733213 -3.039193 -2.514840 0
M  V30 6 F 2.891516 -2.680518 -3.499211 0
M  V30 7 C 4.061309 -2.117813 -1.540246 0
M  V30 8 N 3.544658 -0.771783 -1.517620 0
M  V30 9 C 2.313317 -0.559256 -0.798007 0
M  V30 10 O 1.727205 -1.534426 -0.216289 0
M  V30 11 N 1.681031 0.707647 -0.685772 0
M  V30 12 C 0.468967 0.719171 0.066506 0
M  V30 13 C 0.475606 0.944195 1.429946 0
M  V30 14 C -0.722787 0.946382 2.115906 0
M  V30 15 C -1.964196 0.730502 1.501095 0
M  V30 16 C -3.067734 0.769739 2.449625 0
M  V30 17 C -2.932207 -0.089809 3.547855 0
M  V30 18 C -3.884619 -0.215978 4.544803 0
M  V30 19 C -5.029950 0.535172 4.468068 0
M  V30 20 C -5.186184 1.384666 3.403108 0
M  V30 21 N -6.148432 2.261891 3.005879 0
M  V30 22 N -5.804737 2.869622 1.862404 0
M  V30 23 C -4.594937 2.413491 1.458963 0
M  V30 24 N -3.896879 2.832066 0.294553 0
M  V30 25 C -4.234940 1.499319 2.423693 0
M  V30 26 C -1.942705 0.507770 0.139389 0
M  V30 27 C -0.748003 0.504925 -0.550223 0
M  V30 28 C 4.916022 -2.396004 -0.492738 0
M  V30 29 H 7.408491 -3.617073 0.460641 0
M  V30 30 H 5.998519 -3.524819 1.658313 0
M  V30 31 H 6.462780 -5.067699 0.862096 0
M  V30 32 H 5.622905 -5.599429 -1.281987 0
M  V30 33 H 4.052816 -5.008574 -3.161789 0
M  V30 34 H 3.944148 0.096348 -1.959333 0
M  V30 35 H 2.161178 1.523099 -1.166008 0
M  V30 36 H 1.427851 1.108532 1.893894 0
M  V30 37 H -0.593536 1.134140 3.184136 0
M  V30 38 H -2.048157 -0.719522 3.677883 0
M  V30 39 H -3.738723 -0.891373 5.373620 0
M  V30 40 H -5.822766 0.496896 5.202942 0
M  V30 41 H -7.049211 2.452078 3.514600 0
M  V30 42 H -2.938555 3.227662 0.306461 0
M  V30 43 H -4.476435 2.686885 -0.558700 0
M  V30 44 H -2.925839 0.337208 -0.273370 0
M  V30 45 H -0.827909 0.323242 -1.609015 0
M  V30 46 H 5.184683 -1.687096 0.279939 0
M  V30 END ATOM
M  V30 BEGIN BOND
M  V30 1 1 1 2
M  V30 2 2 2 3
M  V30 3 1 3 4
M  V30 4 2 4 5
M  V30 5 1 5 6
M  V30 6 1 5 7
M  V30 7 1 7 8
M  V30 8 1 8 9
M  V30 9 2 9 10
M  V30 10 1 9 11
M  V30 11 1 11 12
M  V30 12 2 12 13
M  V30 13 1 13 14
M  V30 14 2 14 15
M  V30 15 1 15 16
M  V30 16 2 16 17
M  V30 17 1 17 18
M  V30 18 2 18 19
M  V30 19 1 19 20
M  V30 20 1 20 21
M  V30 21 1 21 22
M  V30 22 2 22 23
M  V30 23 1 23 24
M  V30 24 1 23 25
M  V30 25 1 15 26
M  V30 26 2 26 27
M  V30 27 2 7 28
M  V30 28 1 28 2
M  V30 29 1 27 12
M  V30 30 1 25 16
M  V30 31 2 25 20
M  V30 32 1 1 29
M  V30 33 1 1 30
M  V30 34 1 1 31
M  V30 35 1 3 32
M  V30 36 1 4 33
M  V30 37 1 8 34
M  V30 38 1 11 35
M  V30 39 1 13 36
M  V30 40 1 14 37
M  V30 41 1 17 38
M  V30 42 1 18 39
M  V30 43 1 19 40
M  V30 44 1 21 41
M  V30 45 1 24 42
M  V30 46 1 24 43
M  V30 47 1 26 44
M  V30 48 1 27 45
M  V30 49 1 28 46
M  V30 END BOND
M  V30 END CTAB
M  END
>  <Dataset>  (51) 
ChEMBL_Kinases

>  <Ligand_Instance>  (51) 
nan

>  <PDB_ID>  (51) 
nan

>  <Standardized_SMILES>  (51) 
Cc1ccc(F)c(NC(=O)Nc2ccc(-c3cccc4[nH]nc(N)c34)cc2)c1

>  <Name>  (51) 
LINIFANIB

>  <Pocket>  (51) 
nan

>  <ATP_Site>  (51) 
nan

>  <Peripheral>  (51) 
nan

>  <Num_H_Atoms_ProtBoundConf>  (51) 
nan

>  <Num_Resolved_Atoms>  (51) 
nan

>  <Num_Not_Resolved_Atoms>  (51) 
nan

$$$$
CHEMBL2006765
     RDKit          3D

  0  0  0  0  0  0  0  0  0  0999 V3000
M  V30 BEGIN CTAB
M  V30 COUNTS 47 49 0 0 0
M  V30 BEGIN ATOM
M  V30 1 C 2.583193 -7.436387 1.101294 0
M  V30 2 C 2.139007 -6.019705 0.796709 0
M  V30 3 C 2.496066 -5.133265 1.957151 0
M  V30 4 N 2.191301 -3.749173 1.792410 0
M  V30 5 C 2.391141 -2.679681 2.719622 0
M  V30 6 O 2.898536 -3.094829 3.811497 0
M  V30 7 C 2.056695 -1.296757 2.450781 0
M  V30 8 C 1.549739 -0.885049 1.211966 0
M  V30 9 C 1.240496 0.457271 1.002494 0
M  V30 10 C 1.417424 1.434857 1.995894 0
M  V30 11 N 1.018584 2.811068 1.809570 0
M  V30 12 C -0.284978 2.778185 1.205507 0
M  V30 13 N -0.785061 2.081513 0.197374 0
M  V30 14 C -2.051011 2.075012 -0.240399 0
M  V30 15 N -2.433750 1.229565 -1.330473 0
M  V30 16 C -1.533251 0.371717 -2.095201 0
M  V30 17 C -0.772290 1.280148 -3.044446 0
M  V30 18 F 0.121481 0.564199 -3.830366 0
M  V30 19 F -1.788685 1.835049 -3.863459 0
M  V30 20 F -0.137228 2.240817 -2.304029 0
M  V30 21 C -2.895423 2.909329 0.476634 0
M  V30 22 C -4.255106 3.104965 0.259063 0
M  V30 23 C -4.632080 4.018135 1.230944 0
M  V30 24 N -3.533632 4.315770 1.955115 0
M  V30 25 C -2.444972 3.659717 1.528379 0
M  V30 26 N -1.128627 3.602277 1.906372 0
M  V30 27 C 1.920375 0.977139 3.193872 0
M  V30 28 C 2.234077 -0.349380 3.424201 0
M  V30 29 H 1.926150 -7.854145 1.901600 0
M  V30 30 H 3.630692 -7.507775 1.453660 0
M  V30 31 H 2.489340 -8.097025 0.209462 0
M  V30 32 H 1.020555 -6.084761 0.674853 0
M  V30 33 H 2.537315 -5.712810 -0.176842 0
M  V30 34 H 3.596658 -5.213849 2.118333 0
M  V30 35 H 2.031360 -5.564007 2.892908 0
M  V30 36 H 1.757852 -3.533651 0.850155 0
M  V30 37 H 1.406345 -1.616094 0.429913 0
M  V30 38 H 0.887603 0.656929 0.022773 0
M  V30 39 H 1.554364 3.658897 2.053181 0
M  V30 40 H -3.455544 1.286176 -1.526539 0
M  V30 41 H -0.812641 -0.140939 -1.414120 0
M  V30 42 H -2.104662 -0.412600 -2.633425 0
M  V30 43 H -4.918046 2.658843 -0.494797 0
M  V30 44 H -5.640457 4.369904 1.321305 0
M  V30 45 H -3.584355 4.985190 2.744119 0
M  V30 46 H 2.062245 1.726412 3.966134 0
M  V30 47 H 2.623292 -0.651472 4.410446 0
M  V30 END ATOM
M  V30 BEGIN BOND
M  V30 1 1 1 2
M  V30 2 1 2 3
M  V30 3 1 3 4
M  V30 4 1 4 5
M  V30 5 2 5 6
M  V30 6 1 5 7
M  V30 7 2 7 8
M  V30 8 1 8 9
M  V30 9 2 9 10
M  V30 10 1 10 11
M  V30 11 1 11 12
M  V30 12 2 12 13
M  V30 13 1 13 14
M  V30 14 1 14 15
M  V30 15 1 15 16
M  V30 16 1 16 17
M  V30 17 1 17 18
M  V30 18 1 17 19
M  V30 19 1 17 20
M  V30 20 2 14 21
M  V30 21 1 21 22
M  V30 22 2 22 23
M  V30 23 1 23 24
M  V30 24 1 24 25
M  V30 25 2 25 26
M  V30 26 1 10 27
M  V30 27 2 27 28
M  V30 28 1 28 7
M  V30 29 1 26 12
M  V30 30 1 25 21
M  V30 31 1 1 29
M  V30 32 1 1 30
M  V30 33 1 1 31
M  V30 34 1 2 32
M  V30 35 1 2 33
M  V30 36 1 3 34
M  V30 37 1 3 35
M  V30 38 1 4 36
M  V30 39 1 8 37
M  V30 40 1 9 38
M  V30 41 1 11 39
M  V30 42 1 15 40
M  V30 43 1 16 41
M  V30 44 1 16 42
M  V30 45 1 22 43
M  V30 46 1 23 44
M  V30 47 1 24 45
M  V30 48 1 27 46
M  V30 49 1 28 47
M  V30 END BOND
M  V30 END CTAB
M  END
>  <Dataset>  (52) 
ChEMBL_Kinases

>  <Ligand_Instance>  (52) 
nan

>  <PDB_ID>  (52) 
nan

>  <Standardized_SMILES>  (52) 
CCCNC(=O)c1ccc(Nc2nc(NCC(F)(F)F)c3cc[nH]c3n2)cc1

>  <Name>  (52) 
nan

>  <Pocket>  (52) 
nan

>  <ATP_Site>  (52) 
nan

>  <Peripheral>  (52) 
nan

>  <Num_H_Atoms_ProtBoundConf>  (52) 
nan

>  <Num_Resolved_Atoms>  (52) 
nan

>  <Num_Not_Resolved_Atoms>  (52) 
nan

$$$$
CHEMBL3699142
     RDKit          3D

  0  0  0  0  0  0  0  0  0  0999 V3000
M  V30 BEGIN CTAB
M  V30 COUNTS 63 66 0 0 0
M  V30 BEGIN ATOM
M  V30 1 C 10.275820 -0.974468 2.957556 0
M  V30 2 C 9.781298 0.370233 2.444850 0
M  V30 3 N 8.316101 0.269393 2.368886 0
M  V30 4 C 7.659449 1.455201 1.898490 0
M  V30 5 O 8.286857 2.496796 1.577985 0
M  V30 6 C 6.204074 1.373656 1.814915 0
M  V30 7 C 5.000424 1.303543 1.725283 0
M  V30 8 C 3.566601 1.195606 1.624973 0
M  V30 9 C 2.948971 1.384439 0.378758 0
M  V30 10 C 1.576542 1.277514 0.283524 0
M  V30 11 C 0.861252 0.988038 1.414449 0
M  V30 12 C 1.456512 0.802577 2.642313 0
M  V30 13 C 2.830575 0.906451 2.754599 0
M  V30 14 N 0.482841 0.538066 3.645946 0
M  V30 15 C -0.806452 0.550693 3.041952 0
M  V30 16 O -1.909900 0.366461 3.569500 0
M  V30 17 C -0.554429 0.829308 1.654660 0
M  V30 18 C -1.457707 0.860449 0.702739 0
M  V30 19 N -2.874923 0.714924 0.935212 0
M  V30 20 C -3.549482 -0.463135 0.443991 0
M  V30 21 C -4.154408 -0.463500 -0.801233 0
M  V30 22 C -4.801497 -1.588712 -1.292923 0
M  V30 23 C -4.858745 -2.744877 -0.547026 0
M  V30 24 C -5.499926 -4.029019 -0.913197 0
M  V30 25 N -6.864644 -4.152687 -0.495031 0
M  V30 26 C -7.706774 -3.131830 -1.081905 0
M  V30 27 C -7.423172 -5.424295 -0.894392 0
M  V30 28 C -4.256473 -2.748872 0.696563 0
M  V30 29 C -3.605063 -1.622598 1.196472 0
M  V30 30 C -1.305797 0.895069 -0.735523 0
M  V30 31 C -0.663081 -0.258232 -1.220548 0
M  V30 32 C -0.399620 -0.452239 -2.579217 0
M  V30 33 C -0.812434 0.562839 -3.409906 0
M  V30 34 C -1.442853 1.707582 -2.989692 0
M  V30 35 C -1.692693 1.877806 -1.643963 0
M  V30 36 H 9.447553 -1.594706 3.386967 0
M  V30 37 H 10.688808 -1.611564 2.125318 0
M  V30 38 H 11.033981 -0.854911 3.770883 0
M  V30 39 H 10.096156 1.161921 3.126302 0
M  V30 40 H 10.167941 0.486697 1.411213 0
M  V30 41 H 7.784845 -0.603850 2.637215 0
M  V30 42 H 3.635182 1.610532 -0.451811 0
M  V30 43 H 1.258483 1.470430 -0.692152 0
M  V30 44 H 3.284247 0.757093 3.725383 0
M  V30 45 H 0.663296 0.361730 4.661778 0
M  V30 46 H -3.556565 1.318218 1.411827 0
M  V30 47 H -4.156772 0.385698 -1.437378 0
M  V30 48 H -5.279888 -1.630303 -2.252803 0
M  V30 49 H -4.920375 -4.904278 -0.533688 0
M  V30 50 H -5.488183 -4.179558 -2.033843 0
M  V30 51 H -7.843584 -2.274770 -0.362553 0
M  V30 52 H -8.753611 -3.530318 -1.242320 0
M  V30 53 H -7.348809 -2.804285 -2.072342 0
M  V30 54 H -8.492012 -5.414439 -0.591008 0
M  V30 55 H -6.890161 -6.286949 -0.433920 0
M  V30 56 H -7.397410 -5.454333 -2.015682 0
M  V30 57 H -4.251368 -3.621796 1.360115 0
M  V30 58 H -3.142910 -1.652158 2.171663 0
M  V30 59 H -0.318336 -1.090811 -0.588352 0
M  V30 60 H 0.094468 -1.341667 -2.937937 0
M  V30 61 H -0.634872 0.469809 -4.482208 0
M  V30 62 H -1.767742 2.507829 -3.644302 0
M  V30 63 H -2.175068 2.715987 -1.165127 0
M  V30 END ATOM
M  V30 BEGIN BOND
M  V30 1 1 1 2
M  V30 2 1 2 3
M  V30 3 1 3 4
M  V30 4 2 4 5
M  V30 5 1 4 6
M  V30 6 3 6 7
M  V30 7 1 7 8
M  V30 8 2 8 9
M  V30 9 1 9 10
M  V30 10 2 10 11
M  V30 11 1 11 12
M  V30 12 2 12 13
M  V30 13 1 12 14
M  V30 14 1 14 15
M  V30 15 2 15 16
M  V30 16 1 15 17
M  V30 17 2 17 18
M  V30 18 1 18 19
M  V30 19 1 19 20
M  V30 20 2 20 21
M  V30 21 1 21 22
M  V30 22 2 22 23
M  V30 23 1 23 24
M  V30 24 1 24 25
M  V30 25 1 25 26
M  V30 26 1 25 27
M  V30 27 1 23 28
M  V30 28 2 28 29
M  V30 29 1 18 30
M  V30 30 2 30 31
M  V30 31 1 31 32
M  V30 32 2 32 33
M  V30 33 1 33 34
M  V30 34 2 34 35
M  V30 35 1 13 8
M  V30 36 1 29 20
M  V30 37 1 35 30
M  V30 38 1 17 11
M  V30 39 1 1 36
M  V30 40 1 1 37
M  V30 41 1 1 38
M  V30 42 1 2 39
M  V30 43 1 2 40
M  V30 44 1 3 41
M  V30 45 1 9 42
M  V30 46 1 10 43
M  V30 47 1 13 44
M  V30 48 1 14 45
M  V30 49 1 19 46
M  V30 50 1 21 47
M  V30 51 1 22 48
M  V30 52 1 24 49
M  V30 53 1 24 50
M  V30 54 1 26 51
M  V30 55 1 26 52
M  V30 56 1 26 53
M  V30 57 1 27 54
M  V30 58 1 27 55
M  V30 59 1 27 56
M  V30 60 1 28 57
M  V30 61 1 29 58
M  V30 62 1 31 59
M  V30 63 1 32 60
M  V30 64 1 33 61
M  V30 65 1 34 62
M  V30 66 1 35 63
M  V30 END BOND
M  V30 END CTAB
M  END
>  <Dataset>  (53) 
ChEMBL_Kinases

>  <Ligand_Instance>  (53) 
nan

>  <PDB_ID>  (53) 
nan

>  <Standardized_SMILES>  (53) 
CCNC(=O)C#Cc1ccc2c(c1)NC(=O)/C2=C(\Nc1ccc(CN(C)C)cc1)c1ccccc1

>  <Name>  (53) 
nan

>  <Pocket>  (53) 
nan

>  <ATP_Site>  (53) 
nan

>  <Peripheral>  (53) 
nan

>  <Num_H_Atoms_ProtBoundConf>  (53) 
nan

>  <Num_Resolved_Atoms>  (53) 
nan

>  <Num_Not_Resolved_Atoms>  (53) 
nan

$$$$
CHEMBL4550702
     RDKit          3D

  0  0  0  0  0  0  0  0  0  0999 V3000
M  V30 BEGIN CTAB
M  V30 COUNTS 41 44 0 0 0
M  V30 BEGIN ATOM
M  V30 1 C -3.570781 -7.291623 -1.043390 0
M  V30 2 N -2.524071 -6.348876 -0.667212 0
M  V30 3 C -2.355425 -5.046357 -0.947056 0
M  V30 4 C -1.175839 -4.606806 -0.338795 0
M  V30 5 C -0.683875 -3.216492 -0.442387 0
M  V30 6 C 0.037875 -2.651146 0.590803 0
M  V30 7 N 0.446890 -1.370827 0.403605 0
M  V30 8 C 0.178652 -0.671610 -0.712305 0
M  V30 9 C 0.503615 0.621008 -1.082969 0
M  V30 10 C 1.270223 1.637293 -0.319356 0
M  V30 11 C 2.249713 2.340903 -1.039394 0
M  V30 12 S 2.919043 3.475375 0.328874 0
M  V30 13 C 1.890149 2.894105 1.534476 0
M  V30 14 C 1.851765 3.354601 2.951425 0
M  V30 15 O 1.033295 2.835645 3.750176 0
M  V30 16 N 2.728328 4.361770 3.380221 0
M  V30 17 C 2.823220 4.910827 4.688794 0
M  V30 18 C 3.179987 3.974472 5.790246 0
M  V30 19 F 3.232313 4.685235 7.001821 0
M  V30 20 F 4.415180 3.395157 5.645571 0
M  V30 21 F 2.223861 3.002897 6.000681 0
M  V30 22 C 1.080819 1.918931 1.008692 0
M  V30 23 C -0.050154 0.768168 -2.343421 0
M  V30 24 N -0.672758 -0.366687 -2.713609 0
M  V30 25 N -0.532407 -1.245215 -1.716804 0
M  V30 26 C -0.971172 -2.513061 -1.601002 0
M  V30 27 C -0.660585 -5.697077 0.306329 0
M  V30 28 N -1.501302 -6.738602 0.088297 0
M  V30 29 H -4.153007 -7.530286 -0.106212 0
M  V30 30 H -3.138961 -8.220881 -1.463719 0
M  V30 31 H -4.244821 -6.775341 -1.744756 0
M  V30 32 H -3.045503 -4.475437 -1.547903 0
M  V30 33 H 0.245585 -3.224376 1.480623 0
M  V30 34 H 2.548720 2.281710 -2.039088 0
M  V30 35 H 3.380699 4.736361 2.624682 0
M  V30 36 H 1.867075 5.423636 4.996459 0
M  V30 37 H 3.600987 5.716246 4.695156 0
M  V30 38 H 0.337647 1.398912 1.594073 0
M  V30 39 H 0.055128 1.702617 -2.878690 0
M  V30 40 H -1.526832 -2.922938 -2.416740 0
M  V30 41 H 0.259559 -5.618282 0.858883 0
M  V30 END ATOM
M  V30 BEGIN BOND
M  V30 1 1 1 2
M  V30 2 1 2 3
M  V30 3 2 3 4
M  V30 4 1 4 5
M  V30 5 1 5 6
M  V30 6 2 6 7
M  V30 7 1 7 8
M  V30 8 2 8 9
M  V30 9 1 9 10
M  V30 10 2 10 11
M  V30 11 1 11 12
M  V30 12 1 12 13
M  V30 13 1 13 14
M  V30 14 2 14 15
M  V30 15 1 14 16
M  V30 16 1 16 17
M  V30 17 1 17 18
M  V30 18 1 18 19
M  V30 19 1 18 20
M  V30 20 1 18 21
M  V30 21 2 13 22
M  V30 22 1 9 23
M  V30 23 2 23 24
M  V30 24 1 24 25
M  V30 25 1 25 26
M  V30 26 1 4 27
M  V30 27 2 27 28
M  V30 28 1 28 2
M  V30 29 2 26 5
M  V30 30 1 25 8
M  V30 31 1 22 10
M  V30 32 1 1 29
M  V30 33 1 1 30
M  V30 34 1 1 31
M  V30 35 1 3 32
M  V30 36 1 6 33
M  V30 37 1 11 34
M  V30 38 1 16 35
M  V30 39 1 17 36
M  V30 40 1 17 37
M  V30 41 1 22 38
M  V30 42 1 23 39
M  V30 43 1 26 40
M  V30 44 1 27 41
M  V30 END BOND
M  V30 END CTAB
M  END
>  <Dataset>  (54) 
ChEMBL_Kinases

>  <Ligand_Instance>  (54) 
nan

>  <PDB_ID>  (54) 
nan

>  <Standardized_SMILES>  (54) 
Cn1cc(-c2cnc3c(-c4csc(C(=O)NCC(F)(F)F)c4)cnn3c2)cn1

>  <Name>  (54) 
nan

>  <Pocket>  (54) 
nan

>  <ATP_Site>  (54) 
nan

>  <Peripheral>  (54) 
nan

>  <Num_H_Atoms_ProtBoundConf>  (54) 
nan

>  <Num_Resolved_Atoms>  (54) 
nan

>  <Num_Not_Resolved_Atoms>  (54) 
nan

$$$$
CHEMBL288441
     RDKit          3D

  0  0  0  0  0  0  0  0  0  0999 V3000
M  V30 BEGIN CTAB
M  V30 COUNTS 65 68 0 0 0
M  V30 BEGIN ATOM
M  V30 1 C 7.709231 -0.834657 4.290834 0
M  V30 2 O 7.703872 -1.998395 3.482948 0
M  V30 3 C 6.662903 -2.202287 2.590094 0
M  V30 4 C 5.675000 -1.274395 2.496823 0
M  V30 5 C 4.564053 -1.281555 1.693903 0
M  V30 6 N 3.513374 -0.455363 1.412328 0
M  V30 7 C 2.472693 0.370830 1.078095 0
M  V30 8 C 2.937812 1.469977 0.350701 0
M  V30 9 C 4.343298 1.726356 0.006166 0
M  V30 10 N 5.431740 1.910319 -0.274734 0
M  V30 11 C 2.038800 2.416278 -0.102240 0
M  V30 12 N 0.753622 2.255070 0.173382 0
M  V30 13 C 0.298021 1.220088 0.867896 0
M  V30 14 C -1.020947 1.043816 1.215040 0
M  V30 15 C -1.510240 -0.016076 1.981419 0
M  V30 16 O -2.814775 -0.222314 2.347514 0
M  V30 17 C -3.839866 0.612303 1.873848 0
M  V30 18 C -4.017018 0.322766 0.400831 0
M  V30 19 C -5.054616 1.187818 -0.275471 0
M  V30 20 N -5.166677 0.764133 -1.629164 0
M  V30 21 C -4.075927 1.017644 -2.500446 0
M  V30 22 C -4.429338 0.314540 -3.818639 0
M  V30 23 N -4.245881 -1.089816 -3.618031 0
M  V30 24 C -4.716823 -1.841207 -4.738160 0
M  V30 25 C -4.847584 -1.521471 -2.366401 0
M  V30 26 C -5.807054 -0.501081 -1.814037 0
M  V30 27 C -0.574896 -0.968439 2.424060 0
M  V30 28 O -1.013469 -2.007743 3.169276 0
M  V30 29 C -0.382865 -3.086301 3.747301 0
M  V30 30 C 0.784479 -0.854886 2.108391 0
M  V30 31 C 1.128786 0.237571 1.346724 0
M  V30 32 C 4.469940 -2.420270 0.864803 0
M  V30 33 Cl 3.179482 -2.763787 -0.289213 0
M  V30 34 C 5.402857 -3.410485 0.874521 0
M  V30 35 C 6.477067 -3.257579 1.750862 0
M  V30 36 Cl 7.717715 -4.498333 1.803820 0
M  V30 37 H 6.694418 -0.744295 4.777192 0
M  V30 38 H 8.008380 0.089647 3.785721 0
M  V30 39 H 8.434465 -1.022294 5.127375 0
M  V30 40 H 5.657996 -0.346716 3.091088 0
M  V30 41 H 3.287067 -0.453327 2.466359 0
M  V30 42 H 2.261997 3.311936 -0.670080 0
M  V30 43 H -1.703300 1.824467 0.867392 0
M  V30 44 H -3.508029 1.687010 2.017197 0
M  V30 45 H -4.755559 0.517624 2.455233 0
M  V30 46 H -4.411588 -0.765711 0.394612 0
M  V30 47 H -3.073957 0.331266 -0.107849 0
M  V30 48 H -4.650982 2.245189 -0.276961 0
M  V30 49 H -5.997941 1.244624 0.264604 0
M  V30 50 H -3.911996 2.093484 -2.644507 0
M  V30 51 H -3.167222 0.527594 -2.108631 0
M  V30 52 H -3.814832 0.699238 -4.644198 0
M  V30 53 H -5.519594 0.496779 -3.970923 0
M  V30 54 H -5.825138 -1.888687 -4.702335 0
M  V30 55 H -4.425554 -1.308533 -5.674595 0
M  V30 56 H -4.264529 -2.860333 -4.785363 0
M  V30 57 H -4.005593 -1.696932 -1.681293 0
M  V30 58 H -5.380598 -2.496608 -2.494479 0
M  V30 59 H -6.696622 -0.499202 -2.455221 0
M  V30 60 H -6.146503 -0.868979 -0.824033 0
M  V30 61 H 0.604946 -2.762039 4.139040 0
M  V30 62 H -0.143847 -3.912423 3.015355 0
M  V30 63 H -0.907188 -3.524484 4.621916 0
M  V30 64 H 1.511922 -1.564944 2.424323 0
M  V30 65 H 5.421551 -4.324225 0.272805 0
M  V30 END ATOM
M  V30 BEGIN BOND
M  V30 1 1 1 2
M  V30 2 1 2 3
M  V30 3 2 3 4
M  V30 4 1 4 5
M  V30 5 1 5 6
M  V30 6 1 6 7
M  V30 7 2 7 8
M  V30 8 1 8 9
M  V30 9 3 9 10
M  V30 10 1 8 11
M  V30 11 2 11 12
M  V30 12 1 12 13
M  V30 13 2 13 14
M  V30 14 1 14 15
M  V30 15 1 15 16
M  V30 16 1 16 17
M  V30 17 1 17 18
M  V30 18 1 18 19
M  V30 19 1 19 20
M  V30 20 1 20 21
M  V30 21 1 21 22
M  V30 22 1 22 23
M  V30 23 1 23 24
M  V30 24 1 23 25
M  V30 25 1 25 26
M  V30 26 2 15 27
M  V30 27 1 27 28
M  V30 28 1 28 29
M  V30 29 1 27 30
M  V30 30 2 30 31
M  V30 31 2 5 32
M  V30 32 1 32 33
M  V30 33 1 32 34
M  V30 34 2 34 35
M  V30 35 1 35 36
M  V30 36 1 35 3
M  V30 37 1 31 7
M  V30 38 1 31 13
M  V30 39 1 26 20
M  V30 40 1 1 37
M  V30 41 1 1 38
M  V30 42 1 1 39
M  V30 43 1 4 40
M  V30 44 1 6 41
M  V30 45 1 11 42
M  V30 46 1 14 43
M  V30 47 1 17 44
M  V30 48 1 17 45
M  V30 49 1 18 46
M  V30 50 1 18 47
M  V30 51 1 19 48
M  V30 52 1 19 49
M  V30 53 1 21 50
M  V30 54 1 21 51
M  V30 55 1 22 52
M  V30 56 1 22 53
M  V30 57 1 24 54
M  V30 58 1 24 55
M  V30 59 1 24 56
M  V30 60 1 25 57
M  V30 61 1 25 58
M  V30 62 1 26 59
M  V30 63 1 26 60
M  V30 64 1 29 61
M  V30 65 1 29 62
M  V30 66 1 29 63
M  V30 67 1 30 64
M  V30 68 1 34 65
M  V30 END BOND
M  V30 END CTAB
M  END
>  <Dataset>  (55) 
ChEMBL_Kinases

>  <Ligand_Instance>  (55) 
nan

>  <PDB_ID>  (55) 
nan

>  <Standardized_SMILES>  (55) 
COc1cc(Nc2c(C#N)cnc3cc(OCCCN4CCN(C)CC4)c(OC)cc23)c(Cl)cc1Cl

>  <Name>  (55) 
BOSUTINIB

>  <Pocket>  (55) 
nan

>  <ATP_Site>  (55) 
nan

>  <Peripheral>  (55) 
nan

>  <Num_H_Atoms_ProtBoundConf>  (55) 
nan

>  <Num_Resolved_Atoms>  (55) 
nan

>  <Num_Not_Resolved_Atoms>  (55) 
nan

$$$$
CHEMBL10
     RDKit          3D

  0  0  0  0  0  0  0  0  0  0999 V3000
M  V30 BEGIN CTAB
M  V30 COUNTS 43 46 0 0 0
M  V30 BEGIN ATOM
M  V30 1 C 1.263561 -7.592003 2.839458 0
M  V30 2 S 2.714494 -6.567608 2.601638 0 CHG=1 VAL=3
M  V30 3 O 3.565522 -7.265922 1.333447 0 CHG=-1 VAL=1
M  V30 4 C 2.159015 -4.988556 2.035181 0
M  V30 5 C 1.862946 -4.080224 3.035164 0
M  V30 6 C 1.420456 -2.812614 2.702863 0
M  V30 7 C 1.292616 -2.507703 1.360539 0
M  V30 8 C 0.826984 -1.176134 0.974947 0
M  V30 9 N 0.651051 -0.709165 -0.271865 0
M  V30 10 C 0.205980 0.581489 -0.224945 0
M  V30 11 C -0.130015 1.518285 -1.280047 0
M  V30 12 C -1.148244 1.153163 -2.123186 0
M  V30 13 C -1.564394 1.960505 -3.170582 0
M  V30 14 C -0.946427 3.192048 -3.400803 0
M  V30 15 F -1.292501 4.046869 -4.406162 0
M  V30 16 C 0.072689 3.513786 -2.524660 0
M  V30 17 C 0.503082 2.728424 -1.478042 0
M  V30 18 C 0.101479 0.930126 1.118939 0
M  V30 19 C -0.313068 2.159665 1.789283 0
M  V30 20 C -1.621376 2.601796 1.571473 0
M  V30 21 C -2.054093 3.761605 2.189957 0
M  V30 22 N -1.232329 4.483176 3.007698 0
M  V30 23 C 0.018595 4.061333 3.216469 0
M  V30 24 C 0.501394 2.916048 2.627685 0
M  V30 25 N 0.487567 -0.165226 1.795137 0
M  V30 26 C 1.592021 -3.425066 0.374346 0
M  V30 27 C 2.037159 -4.701584 0.679794 0
M  V30 28 H 1.443258 -8.386100 3.585306 0
M  V30 29 H 0.463008 -6.888395 3.210869 0
M  V30 30 H 0.912363 -7.949362 1.853965 0
M  V30 31 H 1.965134 -4.324267 4.084757 0
M  V30 32 H 1.189174 -2.103733 3.484748 0
M  V30 33 H -1.677228 0.202635 -2.002889 0
M  V30 34 H -2.367801 1.707900 -3.861971 0
M  V30 35 H 0.567500 4.451129 -2.673767 0
M  V30 36 H 1.300988 3.009022 -0.812888 0
M  V30 37 H -2.296284 2.037746 0.919239 0
M  V30 38 H -3.075127 4.135892 2.040004 0
M  V30 39 H 0.751835 4.575771 3.858022 0
M  V30 40 H 1.499521 2.481507 2.727781 0
M  V30 41 H 0.537528 -0.273842 2.841873 0
M  V30 42 H 1.497554 -3.203361 -0.700594 0
M  V30 43 H 2.289381 -5.468435 -0.039387 0
M  V30 END ATOM
M  V30 BEGIN BOND
M  V30 1 1 1 2
M  V30 2 1 2 3
M  V30 3 1 2 4
M  V30 4 2 4 5
M  V30 5 1 5 6
M  V30 6 2 6 7
M  V30 7 1 7 8
M  V30 8 2 8 9
M  V30 9 1 9 10
M  V30 10 1 10 11
M  V30 11 2 11 12
M  V30 12 1 12 13
M  V30 13 2 13 14
M  V30 14 1 14 15
M  V30 15 1 14 16
M  V30 16 2 16 17
M  V30 17 2 10 18
M  V30 18 1 18 19
M  V30 19 2 19 20
M  V30 20 1 20 21
M  V30 21 2 21 22
M  V30 22 1 22 23
M  V30 23 2 23 24
M  V30 24 1 18 25
M  V30 25 1 7 26
M  V30 26 2 26 27
M  V30 27 1 27 4
M  V30 28 1 25 8
M  V30 29 1 17 11
M  V30 30 1 24 19
M  V30 31 1 1 28
M  V30 32 1 1 29
M  V30 33 1 1 30
M  V30 34 1 5 31
M  V30 35 1 6 32
M  V30 36 1 12 33
M  V30 37 1 13 34
M  V30 38 1 16 35
M  V30 39 1 17 36
M  V30 40 1 20 37
M  V30 41 1 21 38
M  V30 42 1 23 39
M  V30 43 1 24 40
M  V30 44 1 25 41
M  V30 45 1 26 42
M  V30 46 1 27 43
M  V30 END BOND
M  V30 END CTAB
M  END
>  <Dataset>  (56) 
ChEMBL_Kinases

>  <Ligand_Instance>  (56) 
nan

>  <PDB_ID>  (56) 
nan

>  <Standardized_SMILES>  (56) 
C[S+]([O-])c1ccc(-c2nc(-c3ccc(F)cc3)c(-c3ccncc3)[nH]2)cc1

>  <Name>  (56) 
SB-203580

>  <Pocket>  (56) 
nan

>  <ATP_Site>  (56) 
nan

>  <Peripheral>  (56) 
nan

>  <Num_H_Atoms_ProtBoundConf>  (56) 
nan

>  <Num_Resolved_Atoms>  (56) 
nan

>  <Num_Not_Resolved_Atoms>  (56) 
nan

$$$$
CHEMBL24828
     RDKit          3D

  0  0  0  0  0  0  0  0  0  0999 V3000
M  V30 BEGIN CTAB
M  V30 COUNTS 54 57 0 0 0
M  V30 BEGIN ATOM
M  V30 1 C 3.108748 -0.719366 -2.192086 0
M  V30 2 O 2.288725 -1.596966 -1.448151 0
M  V30 3 C 1.628524 -1.079386 -0.340992 0
M  V30 4 C 1.846084 0.273177 -0.073005 0
M  V30 5 C 1.226715 0.888174 1.019423 0
M  V30 6 C 1.423360 2.223361 1.308009 0
M  V30 7 N 2.185968 2.924529 0.567892 0
M  V30 8 C 2.442964 4.318690 0.799395 0
M  V30 9 C 1.993455 5.265375 -0.108336 0
M  V30 10 C 2.247773 6.620633 0.123803 0
M  V30 11 C 2.944269 6.983249 1.257972 0
M  V30 12 Br 3.269439 8.842469 1.536123 0
M  V30 13 C 3.391259 6.040409 2.160856 0
M  V30 14 C 3.137607 4.706315 1.926726 0
M  V30 15 F 3.565769 3.755692 2.798773 0
M  V30 16 N 0.810074 2.780096 2.368236 0
M  V30 17 C 0.010857 2.002300 3.125588 0
M  V30 18 N -0.241369 0.682684 2.918524 0
M  V30 19 C 0.391613 0.178827 1.853662 0
M  V30 20 C 0.220905 -1.143954 1.535154 0
M  V30 21 C 0.784374 -1.828747 0.488272 0
M  V30 22 O 0.704647 -3.111605 0.058859 0
M  V30 23 C -0.018338 -4.173523 0.556539 0
M  V30 24 C -1.509518 -4.022213 0.539176 0
M  V30 25 C -2.060179 -5.327958 1.136125 0
M  V30 26 C -3.566046 -5.322504 0.977905 0
M  V30 27 N -3.817842 -5.392210 -0.442946 0
M  V30 28 C -5.123242 -5.852565 -0.798019 0
M  V30 29 C -3.455619 -4.147853 -1.051756 0
M  V30 30 C -1.999761 -3.852012 -0.883607 0
M  V30 31 H 3.895971 -0.223647 -1.567466 0
M  V30 32 H 3.590216 -1.214652 -3.046628 0
M  V30 33 H 2.443013 0.121525 -2.534352 0
M  V30 34 H 2.478648 0.928652 -0.655505 0
M  V30 35 H 1.452550 4.915675 -0.978974 0
M  V30 36 H 1.888318 7.361698 -0.599743 0
M  V30 37 H 3.941986 6.368761 3.051363 0
M  V30 38 H -0.443473 2.538741 3.962666 0
M  V30 39 H -0.871641 0.150758 3.549642 0
M  V30 40 H -0.413049 -1.739070 2.167381 0
M  V30 41 H 0.242311 -5.149777 0.082572 0
M  V30 42 H 0.329327 -4.318003 1.628176 0
M  V30 43 H -1.886646 -3.202041 1.161741 0
M  V30 44 H -1.608722 -6.197204 0.598875 0
M  V30 45 H -1.734474 -5.321733 2.185172 0
M  V30 46 H -3.963885 -6.222910 1.506410 0
M  V30 47 H -3.941489 -4.391209 1.450533 0
M  V30 48 H -5.906310 -5.538222 -0.096156 0
M  V30 49 H -5.357865 -5.518138 -1.827285 0
M  V30 50 H -5.105652 -6.978126 -0.772707 0
M  V30 51 H -3.646601 -4.273728 -2.150395 0
M  V30 52 H -4.097763 -3.298234 -0.722235 0
M  V30 53 H -1.849689 -2.781953 -1.143957 0
M  V30 54 H -1.375337 -4.455732 -1.558545 0
M  V30 END ATOM
M  V30 BEGIN BOND
M  V30 1 1 1 2
M  V30 2 1 2 3
M  V30 3 2 3 4
M  V30 4 1 4 5
M  V30 5 1 5 6
M  V30 6 2 6 7
M  V30 7 1 7 8
M  V30 8 2 8 9
M  V30 9 1 9 10
M  V30 10 2 10 11
M  V30 11 1 11 12
M  V30 12 1 11 13
M  V30 13 2 13 14
M  V30 14 1 14 15
M  V30 15 1 6 16
M  V30 16 2 16 17
M  V30 17 1 17 18
M  V30 18 1 18 19
M  V30 19 1 19 20
M  V30 20 2 20 21
M  V30 21 1 21 22
M  V30 22 1 22 23
M  V30 23 1 23 24
M  V30 24 1 24 25
M  V30 25 1 25 26
M  V30 26 1 26 27
M  V30 27 1 27 28
M  V30 28 1 27 29
M  V30 29 1 29 30
M  V30 30 1 21 3
M  V30 31 1 30 24
M  V30 32 2 19 5
M  V30 33 1 14 8
M  V30 34 1 1 31
M  V30 35 1 1 32
M  V30 36 1 1 33
M  V30 37 1 4 34
M  V30 38 1 9 35
M  V30 39 1 10 36
M  V30 40 1 13 37
M  V30 41 1 17 38
M  V30 42 1 18 39
M  V30 43 1 20 40
M  V30 44 1 23 41
M  V30 45 1 23 42
M  V30 46 1 24 43
M  V30 47 1 25 44
M  V30 48 1 25 45
M  V30 49 1 26 46
M  V30 50 1 26 47
M  V30 51 1 28 48
M  V30 52 1 28 49
M  V30 53 1 28 50
M  V30 54 1 29 51
M  V30 55 1 29 52
M  V30 56 1 30 53
M  V30 57 1 30 54
M  V30 END BOND
M  V30 END CTAB
M  END
>  <Dataset>  (57) 
ChEMBL_Kinases

>  <Ligand_Instance>  (57) 
nan

>  <PDB_ID>  (57) 
nan

>  <Standardized_SMILES>  (57) 
COc1cc2/c(=N/c3ccc(Br)cc3F)nc[nH]c2cc1OCC1CCN(C)CC1

>  <Name>  (57) 
VANDETANIB

>  <Pocket>  (57) 
nan

>  <ATP_Site>  (57) 
nan

>  <Peripheral>  (57) 
nan

>  <Num_H_Atoms_ProtBoundConf>  (57) 
nan

>  <Num_Resolved_Atoms>  (57) 
nan

>  <Num_Not_Resolved_Atoms>  (57) 
nan

$$$$
CHEMBL2035187
     RDKit          3D

  0  0  0  0  0  0  0  0  0  0999 V3000
M  V30 BEGIN CTAB
M  V30 COUNTS 67 71 0 0 0
M  V30 BEGIN ATOM
M  V30 1 C 1.883459 1.489492 -6.810822 0
M  V30 2 N 0.844545 2.053560 -6.245679 0
M  V30 3 C 0.305032 1.545203 -5.040113 0
M  V30 4 N -0.710856 2.037431 -4.421573 0
M  V30 5 C -1.234766 1.536894 -3.237521 0
M  V30 6 C -0.489555 1.985958 -2.136874 0
M  V30 7 C -0.820903 1.644379 -0.841031 0
M  V30 8 C -1.889535 0.848439 -0.488278 0
M  V30 9 O -2.383388 0.402811 0.677608 0
M  V30 10 C -1.864082 0.703471 1.929172 0
M  V30 11 C -1.909736 2.142085 2.349158 0
M  V30 12 N -1.323077 2.334850 3.669821 0
M  V30 13 C -2.143250 1.724431 4.704940 0
M  V30 14 C -1.711205 2.449020 5.984541 0
M  V30 15 C -1.415457 3.828520 5.499757 0
M  V30 16 C -1.304683 3.751291 3.992075 0
M  V30 17 C -2.644562 0.390345 -1.593821 0
M  V30 18 C -2.293937 0.743847 -2.879448 0
M  V30 19 C -3.861191 -0.441618 -1.416070 0
M  V30 20 O -3.873354 -1.370268 -0.455810 0
M  V30 21 C -3.181532 -2.475236 -0.356450 0
M  V30 22 C -1.698539 -2.499057 -0.365091 0
M  V30 23 C -1.008789 -3.182690 -1.293832 0
M  V30 24 C 0.407649 -3.449791 -1.637073 0
M  V30 25 O 1.348431 -2.872749 -0.837823 0
M  V30 26 C 2.622733 -3.232553 -1.265390 0
M  V30 27 C 2.934105 -2.839802 -2.655731 0
M  V30 28 C 3.768619 -3.648218 -3.441498 0
M  V30 29 C 4.036345 -3.295468 -4.749857 0
M  V30 30 C 3.498913 -2.147474 -5.328926 0
M  V30 31 C 2.682973 -1.369316 -4.539209 0
M  V30 32 C 2.401357 -1.697906 -3.230273 0
M  V30 33 C 2.088275 -0.204643 -5.125210 0
M  V30 34 C 2.559030 0.306280 -6.250720 0
M  V30 35 N 0.960602 0.400892 -4.502396 0
M  V30 36 H 2.243647 1.945526 -7.747343 0
M  V30 37 H 0.402974 2.633020 -2.189848 0
M  V30 38 H -0.236126 1.972833 0.002376 0
M  V30 39 H -0.803187 0.328990 1.938242 0
M  V30 40 H -2.355699 0.125760 2.753901 0
M  V30 41 H -1.486444 2.857013 1.667622 0
M  V30 42 H -2.994354 2.475137 2.475834 0
M  V30 43 H -3.192428 1.960606 4.482397 0
M  V30 44 H -1.917947 0.651179 4.843893 0
M  V30 45 H -0.748553 1.950859 6.277938 0
M  V30 46 H -2.466578 2.389162 6.776435 0
M  V30 47 H -2.168904 4.588504 5.819063 0
M  V30 48 H -0.431878 4.149594 5.952215 0
M  V30 49 H -0.361910 4.256007 3.702774 0
M  V30 50 H -2.176975 4.294356 3.558963 0
M  V30 51 H -2.851970 0.408038 -3.736572 0
M  V30 52 H -4.025689 -0.972537 -2.408430 0
M  V30 53 H -4.762281 0.233704 -1.312344 0
M  V30 54 H -3.521624 -3.299542 -1.091974 0
M  V30 55 H -3.492708 -2.983568 0.634281 0
M  V30 56 H -1.077462 -1.987721 0.349562 0
M  V30 57 H -1.652090 -3.708903 -2.031648 0
M  V30 58 H 0.512975 -4.578827 -1.673250 0
M  V30 59 H 0.564789 -3.143300 -2.683884 0
M  V30 60 H 2.761116 -4.353103 -1.214118 0
M  V30 61 H 3.401166 -2.823731 -0.570937 0
M  V30 62 H 4.199105 -4.535905 -3.034908 0
M  V30 63 H 4.694043 -3.948228 -5.340190 0
M  V30 64 H 3.774204 -1.975515 -6.351606 0
M  V30 65 H 1.788890 -1.115731 -2.591971 0
M  V30 66 H 3.400937 -0.072635 -6.792257 0
M  V30 67 H 0.568166 0.020072 -3.622066 0
M  V30 END ATOM
M  V30 BEGIN BOND
M  V30 1 2 1 2
M  V30 2 1 2 3
M  V30 3 2 3 4
M  V30 4 1 4 5
M  V30 5 2 5 6
M  V30 6 1 6 7
M  V30 7 2 7 8
M  V30 8 1 8 9
M  V30 9 1 9 10
M  V30 10 1 10 11
M  V30 11 1 11 12
M  V30 12 1 12 13
M  V30 13 1 13 14
M  V30 14 1 14 15
M  V30 15 1 15 16
M  V30 16 1 8 17
M  V30 17 2 17 18
M  V30 18 1 17 19
M  V30 19 1 19 20
M  V30 20 1 20 21
M  V30 21 1 21 22
M  V30 22 2 22 23
M  V30 23 1 23 24
M  V30 24 1 24 25
M  V30 25 1 25 26
M  V30 26 1 26 27
M  V30 27 2 27 28
M  V30 28 1 28 29
M  V30 29 2 29 30
M  V30 30 1 30 31
M  V30 31 2 31 32
M  V30 32 1 31 33
M  V30 33 2 33 34
M  V30 34 1 33 35
M  V30 35 1 34 1
M  V30 36 1 35 3
M  V30 37 1 18 5
M  V30 38 1 32 27
M  V30 39 1 16 12
M  V30 40 1 1 36
M  V30 41 1 6 37
M  V30 42 1 7 38
M  V30 43 1 10 39
M  V30 44 1 10 40
M  V30 45 1 11 41
M  V30 46 1 11 42
M  V30 47 1 13 43
M  V30 48 1 13 44
M  V30 49 1 14 45
M  V30 50 1 14 46
M  V30 51 1 15 47
M  V30 52 1 15 48
M  V30 53 1 16 49
M  V30 54 1 16 50
M  V30 55 1 18 51
M  V30 56 1 19 52
M  V30 57 1 19 53
M  V30 58 1 21 54
M  V30 59 1 21 55
M  V30 60 1 22 56
M  V30 61 1 23 57
M  V30 62 1 24 58
M  V30 63 1 24 59
M  V30 64 1 26 60
M  V30 65 1 26 61
M  V30 66 1 28 62
M  V30 67 1 29 63
M  V30 68 1 30 64
M  V30 69 1 32 65
M  V30 70 1 34 66
M  V30 71 1 35 67
M  V30 END BOND
M  V30 END CTAB
M  END
>  <Dataset>  (58) 
ChEMBL_Kinases

>  <Ligand_Instance>  (58) 
nan

>  <PDB_ID>  (58) 
nan

>  <Standardized_SMILES>  (58) 
C1=N/C2=N/c3ccc(OCCN4CCCC4)c(c3)COC/C=C/COCc3cccc(c3)C(=C1)N2

>  <Name>  (58) 
PACRITINIB

>  <Pocket>  (58) 
nan

>  <ATP_Site>  (58) 
nan

>  <Peripheral>  (58) 
nan

>  <Num_H_Atoms_ProtBoundConf>  (58) 
nan

>  <Num_Resolved_Atoms>  (58) 
nan

>  <Num_Not_Resolved_Atoms>  (58) 
nan

$$$$
CHEMBL1614713
     RDKit          3D

  0  0  0  0  0  0  0  0  0  0999 V3000
M  V30 BEGIN CTAB
M  V30 COUNTS 53 57 0 0 0
M  V30 BEGIN ATOM
M  V30 1 C -0.999294 -0.778128 4.605948 0
M  V30 2 C -0.081359 -0.045066 3.856642 0
M  V30 3 C -0.326140 0.290973 2.540403 0
M  V30 4 O 0.688792 1.008819 1.977063 0
M  V30 5 C 0.732463 1.498005 0.648667 0
M  V30 6 C 2.052434 2.224708 0.522424 0
M  V30 7 N 3.111991 1.277448 0.779971 0
M  V30 8 C 4.421831 1.906731 0.730943 0
M  V30 9 C 5.379651 0.954526 1.413637 0
M  V30 10 C 5.286481 -0.419032 0.791022 0
M  V30 11 C 4.455222 -0.342575 -0.447970 0
M  V30 12 C 3.049877 0.112564 -0.078868 0
M  V30 13 C -1.515388 -0.116570 1.964470 0
M  V30 14 C -2.412830 -0.841379 2.720689 0
M  V30 15 C -3.666015 -1.263127 2.102268 0
M  V30 16 N -4.849421 -1.143704 2.716290 0
M  V30 17 N -5.843106 -1.594525 1.951965 0
M  V30 18 C -5.249363 -2.017515 0.800707 0
M  V30 19 C -5.767160 -2.576071 -0.348336 0
M  V30 20 C -4.948494 -2.930549 -1.403556 0
M  V30 21 C -3.585388 -2.724561 -1.312478 0
M  V30 22 C -2.646856 -3.068235 -2.375575 0
M  V30 23 N -3.056512 -3.619155 -3.549988 0
M  V30 24 N -1.988738 -3.814381 -4.303433 0
M  V30 25 C -0.907975 -3.394425 -3.621862 0
M  V30 26 N -1.305631 -2.925492 -2.414751 0
M  V30 27 C -3.030222 -2.160612 -0.161337 0
M  V30 28 C -3.877166 -1.824246 0.859543 0
M  V30 29 C -2.193550 -1.190702 4.037558 0
M  V30 30 H -0.805339 -1.040043 5.636712 0
M  V30 31 H 0.827412 0.225142 4.415968 0
M  V30 32 H 0.676795 0.696146 -0.097553 0
M  V30 33 H -0.123377 2.175210 0.446673 0
M  V30 34 H 2.097675 2.971999 1.346862 0
M  V30 35 H 2.157821 2.759082 -0.442165 0
M  V30 36 H 4.733496 2.235504 -0.259124 0
M  V30 37 H 4.338535 2.808775 1.380083 0
M  V30 38 H 6.404242 1.315326 1.357637 0
M  V30 39 H 5.082686 0.915694 2.489327 0
M  V30 40 H 6.299074 -0.833039 0.592560 0
M  V30 41 H 4.811233 -1.118959 1.500029 0
M  V30 42 H 4.408931 -1.302282 -0.998584 0
M  V30 43 H 4.877748 0.405176 -1.137037 0
M  V30 44 H 2.436625 0.264902 -0.992667 0
M  V30 45 H 2.594370 -0.712172 0.504815 0
M  V30 46 H -1.649345 0.169533 0.949724 0
M  V30 47 H -6.873525 -1.657615 2.098104 0
M  V30 48 H -6.834787 -2.745613 -0.438721 0
M  V30 49 H -5.282239 -3.368723 -2.326126 0
M  V30 50 H 0.118015 -3.401236 -3.923101 0
M  V30 51 H -0.768932 -2.517890 -1.611238 0
M  V30 52 H -1.976439 -1.986361 -0.056506 0
M  V30 53 H -2.892742 -1.756261 4.629878 0
M  V30 END ATOM
M  V30 BEGIN BOND
M  V30 1 2 1 2
M  V30 2 1 2 3
M  V30 3 1 3 4
M  V30 4 1 4 5
M  V30 5 1 5 6
M  V30 6 1 6 7
M  V30 7 1 7 8
M  V30 8 1 8 9
M  V30 9 1 9 10
M  V30 10 1 10 11
M  V30 11 1 11 12
M  V30 12 2 3 13
M  V30 13 1 13 14
M  V30 14 1 14 15
M  V30 15 2 15 16
M  V30 16 1 16 17
M  V30 17 1 17 18
M  V30 18 2 18 19
M  V30 19 1 19 20
M  V30 20 2 20 21
M  V30 21 1 21 22
M  V30 22 2 22 23
M  V30 23 1 23 24
M  V30 24 2 24 25
M  V30 25 1 25 26
M  V30 26 1 21 27
M  V30 27 2 27 28
M  V30 28 2 14 29
M  V30 29 1 29 1
M  V30 30 1 12 7
M  V30 31 1 28 15
M  V30 32 1 28 18
M  V30 33 1 26 22
M  V30 34 1 1 30
M  V30 35 1 2 31
M  V30 36 1 5 32
M  V30 37 1 5 33
M  V30 38 1 6 34
M  V30 39 1 6 35
M  V30 40 1 8 36
M  V30 41 1 8 37
M  V30 42 1 9 38
M  V30 43 1 9 39
M  V30 44 1 10 40
M  V30 45 1 10 41
M  V30 46 1 11 42
M  V30 47 1 11 43
M  V30 48 1 12 44
M  V30 49 1 12 45
M  V30 50 1 13 46
M  V30 51 1 17 47
M  V30 52 1 19 48
M  V30 53 1 20 49
M  V30 54 1 25 50
M  V30 55 1 26 51
M  V30 56 1 27 52
M  V30 57 1 29 53
M  V30 END BOND
M  V30 END CTAB
M  END
>  <Dataset>  (59) 
ChEMBL_Kinases

>  <Ligand_Instance>  (59) 
nan

>  <PDB_ID>  (59) 
nan

>  <Standardized_SMILES>  (59) 
c1cc(OCCN2CCCCC2)cc(-c2n[nH]c3ccc(-c4nnc[nH]4)cc23)c1

>  <Name>  (59) 
CC-401

>  <Pocket>  (59) 
nan

>  <ATP_Site>  (59) 
nan

>  <Peripheral>  (59) 
nan

>  <Num_H_Atoms_ProtBoundConf>  (59) 
nan

>  <Num_Resolved_Atoms>  (59) 
nan

>  <Num_Not_Resolved_Atoms>  (59) 
nan

$$$$
CHEMBL2140408
     RDKit          3D

  0  0  0  0  0  0  0  0  0  0999 V3000
M  V30 BEGIN CTAB
M  V30 COUNTS 58 63 0 0 0
M  V30 BEGIN ATOM
M  V30 1 C 7.681098 1.131219 4.717595 0
M  V30 2 C 6.920121 0.599496 3.565749 0
M  V30 3 C 7.423517 -0.726044 3.259418 0
M  V30 4 S 6.419733 -1.190882 1.878252 0
M  V30 5 C 5.444758 0.233438 1.738107 0
M  V30 6 C 4.387950 0.744849 0.902995 0
M  V30 7 N 3.765154 1.903099 1.135744 0
M  V30 8 N 2.783655 2.416770 0.429751 0
M  V30 9 C 2.258898 1.827634 -0.654672 0
M  V30 10 N 1.198766 2.190590 -1.531893 0
M  V30 11 C -0.001466 1.460368 -1.279553 0
M  V30 12 C -0.141737 0.614412 -0.180075 0
M  V30 13 C -1.336494 -0.081459 -0.034530 0
M  V30 14 C -2.415257 0.017913 -0.933615 0
M  V30 15 O -3.419901 -0.804485 -0.480672 0
M  V30 16 C -4.503459 -0.500221 0.276496 0
M  V30 17 N -4.717636 0.768377 0.695605 0
M  V30 18 C -5.788559 1.081225 1.452770 0
M  V30 19 C -6.664606 0.085333 1.794951 0
M  V30 20 C -6.458256 -1.238533 1.368274 0
M  V30 21 C -5.343262 -1.539534 0.584047 0
M  V30 22 C -5.242959 -2.937587 0.214437 0
M  V30 23 C -4.332842 -3.526501 -0.650977 0
M  V30 24 C -4.296658 -4.863824 -0.973020 0
M  V30 25 N -5.215984 -5.686615 -0.409400 0
M  V30 26 C -6.116731 -5.138722 0.439242 0
M  V30 27 N -7.042167 -6.040981 0.996451 0
M  V30 28 N -6.123044 -3.827538 0.730938 0
M  V30 29 C -2.233102 0.852562 -1.986344 0
M  V30 30 C -1.067021 1.555475 -2.161452 0
M  V30 31 C 2.882488 0.603437 -0.941723 0
M  V30 32 C 2.443616 -0.132493 -2.047680 0
M  V30 33 C 2.971338 -1.348722 -2.437380 0
M  V30 34 C 3.995372 -1.867153 -1.686679 0
M  V30 35 C 4.433226 -1.138975 -0.587930 0
M  V30 36 C 3.917973 0.070851 -0.188688 0
M  V30 37 C 5.933566 0.988120 2.749694 0
M  V30 38 H 7.493846 0.561953 5.646022 0
M  V30 39 H 8.775645 1.176336 4.509495 0
M  V30 40 H 7.412652 2.197561 4.944756 0
M  V30 41 H 8.228750 -1.431646 3.678054 0
M  V30 42 H 1.207964 2.891494 -2.290251 0
M  V30 43 H 0.684468 0.541449 0.506637 0
M  V30 44 H -1.288774 -0.702766 0.877899 0
M  V30 45 H -5.898706 2.119984 1.753021 0
M  V30 46 H -7.515088 0.346516 2.400518 0
M  V30 47 H -7.221868 -1.930106 1.705429 0
M  V30 48 H -3.602934 -2.914630 -1.109894 0
M  V30 49 H -3.544203 -5.242255 -1.663340 0
M  V30 50 H -8.018806 -6.394197 1.048534 0
M  V30 51 H -6.755145 -6.763749 1.723797 0
M  V30 52 H -3.114844 0.859147 -2.612869 0
M  V30 53 H -1.015668 2.196147 -3.029154 0
M  V30 54 H 1.639056 0.218012 -2.684542 0
M  V30 55 H 2.605149 -1.886549 -3.298514 0
M  V30 56 H 4.421805 -2.818646 -1.974616 0
M  V30 57 H 5.234270 -1.615897 -0.062931 0
M  V30 58 H 5.616952 1.999094 3.054985 0
M  V30 END ATOM
M  V30 BEGIN BOND
M  V30 1 1 1 2
M  V30 2 2 2 3
M  V30 3 1 3 4
M  V30 4 1 4 5
M  V30 5 1 5 6
M  V30 6 2 6 7
M  V30 7 1 7 8
M  V30 8 2 8 9
M  V30 9 1 9 10
M  V30 10 1 10 11
M  V30 11 2 11 12
M  V30 12 1 12 13
M  V30 13 2 13 14
M  V30 14 1 14 15
M  V30 15 1 15 16
M  V30 16 2 16 17
M  V30 17 1 17 18
M  V30 18 2 18 19
M  V30 19 1 19 20
M  V30 20 2 20 21
M  V30 21 1 21 22
M  V30 22 2 22 23
M  V30 23 1 23 24
M  V30 24 2 24 25
M  V30 25 1 25 26
M  V30 26 1 26 27
M  V30 27 2 26 28
M  V30 28 1 14 29
M  V30 29 2 29 30
M  V30 30 1 9 31
M  V30 31 2 31 32
M  V30 32 1 32 33
M  V30 33 2 33 34
M  V30 34 1 34 35
M  V30 35 2 35 36
M  V30 36 2 5 37
M  V30 37 1 37 2
M  V30 38 1 36 6
M  V30 39 1 30 11
M  V30 40 1 36 31
M  V30 41 1 21 16
M  V30 42 1 28 22
M  V30 43 1 1 38
M  V30 44 1 1 39
M  V30 45 1 1 40
M  V30 46 1 3 41
M  V30 47 1 10 42
M  V30 48 1 12 43
M  V30 49 1 13 44
M  V30 50 1 18 45
M  V30 51 1 19 46
M  V30 52 1 20 47
M  V30 53 1 23 48
M  V30 54 1 24 49
M  V30 55 1 27 50
M  V30 56 1 27 51
M  V30 57 1 29 52
M  V30 58 1 30 53
M  V30 59 1 32 54
M  V30 60 1 33 55
M  V30 61 1 34 56
M  V30 62 1 35 57
M  V30 63 1 37 58
M  V30 END BOND
M  V30 END CTAB
M  END
>  <Dataset>  (60) 
ChEMBL_Kinases

>  <Ligand_Instance>  (60) 
nan

>  <PDB_ID>  (60) 
nan

>  <Standardized_SMILES>  (60) 
Cc1csc(-c2nnc(Nc3ccc(Oc4ncccc4-c4ccnc(N)n4)cc3)c3ccccc23)c1

>  <Name>  (60) 
AMG-900

>  <Pocket>  (60) 
nan

>  <ATP_Site>  (60) 
nan

>  <Peripheral>  (60) 
nan

>  <Num_H_Atoms_ProtBoundConf>  (60) 
nan

>  <Num_Resolved_Atoms>  (60) 
nan

>  <Num_Not_Resolved_Atoms>  (60) 
nan

$$$$
CHEMBL571948
     RDKit          3D

  0  0  0  0  0  0  0  0  0  0999 V3000
M  V30 BEGIN CTAB
M  V30 COUNTS 37 39 0 0 0
M  V30 BEGIN ATOM
M  V30 1 C 0.475349 -5.403850 3.218118 0
M  V30 2 C 1.699900 -4.679544 2.740790 0 CFG=1
M  V30 3 N 2.591501 -5.536309 1.994984 0
M  V30 4 C 1.392960 -3.464298 1.958261 0
M  V30 5 C 2.449419 -2.831809 1.334548 0
M  V30 6 C 2.132957 -1.683742 0.599963 0
M  V30 7 C 0.855527 -1.172096 0.474808 0
M  V30 8 C 0.665035 0.034726 -0.322660 0
M  V30 9 O 1.671042 0.536491 -0.847224 0
M  V30 10 N -0.625320 0.608107 -0.488170 0
M  V30 11 C -0.953643 1.774627 -1.233362 0
M  V30 12 C -1.299019 1.741037 -2.586718 0
M  V30 13 C -1.605138 2.915650 -3.242092 0
M  V30 14 N -1.577944 4.113753 -2.595420 0
M  V30 15 C -1.239773 4.121952 -1.281452 0
M  V30 16 N -1.151928 5.194507 -0.456489 0
M  V30 17 C -0.780616 4.727879 0.771366 0
M  V30 18 C -0.629313 3.350811 0.735423 0
M  V30 19 C -0.922466 2.992581 -0.562285 0
M  V30 20 C -0.133819 -1.863901 1.127445 0
M  V30 21 C 0.100518 -2.998728 1.867522 0
M  V30 22 H -0.268507 -5.592474 2.439551 0
M  V30 23 H 0.038650 -4.915816 4.118780 0
M  V30 24 H 0.816298 -6.404881 3.588409 0
M  V30 25 H 2.262861 -4.362000 3.649870 0
M  V30 26 H 2.378139 -6.534602 2.229593 0
M  V30 27 H 3.568277 -5.273984 2.159381 0
M  V30 28 H 3.473742 -3.182513 1.393869 0
M  V30 29 H 2.984664 -1.206417 0.119570 0
M  V30 30 H -1.477935 0.197745 -0.053856 0
M  V30 31 H -1.307295 0.765695 -3.059460 0
M  V30 32 H -1.865080 2.841224 -4.282848 0
M  V30 33 H -1.326510 6.220345 -0.669446 0
M  V30 34 H -0.622211 5.348471 1.665509 0
M  V30 35 H -0.346589 2.671154 1.523779 0
M  V30 36 H -1.140281 -1.486446 1.046520 0
M  V30 37 H -0.685803 -3.519769 2.366393 0
M  V30 END ATOM
M  V30 BEGIN BOND
M  V30 1 1 1 2
M  V30 2 1 2 3
M  V30 3 1 2 4
M  V30 4 2 4 5
M  V30 5 1 5 6
M  V30 6 2 6 7
M  V30 7 1 7 8
M  V30 8 2 8 9
M  V30 9 1 8 10
M  V30 10 1 10 11
M  V30 11 2 11 12
M  V30 12 1 12 13
M  V30 13 2 13 14
M  V30 14 1 14 15
M  V30 15 1 15 16
M  V30 16 1 16 17
M  V30 17 2 17 18
M  V30 18 1 18 19
M  V30 19 1 7 20
M  V30 20 2 20 21
M  V30 21 1 21 4
M  V30 22 1 19 11
M  V30 23 2 19 15
M  V30 24 1 1 22
M  V30 25 1 1 23
M  V30 26 1 1 24
M  V30 27 1 2 25 CFG=1
M  V30 28 1 3 26
M  V30 29 1 3 27
M  V30 30 1 5 28
M  V30 31 1 6 29
M  V30 32 1 10 30
M  V30 33 1 12 31
M  V30 34 1 13 32
M  V30 35 1 16 33
M  V30 36 1 17 34
M  V30 37 1 18 35
M  V30 38 1 20 36
M  V30 39 1 21 37
M  V30 END BOND
M  V30 END CTAB
M  END
>  <Dataset>  (61) 
ChEMBL_Kinases

>  <Ligand_Instance>  (61) 
nan

>  <PDB_ID>  (61) 
nan

>  <Standardized_SMILES>  (61) 
C[C@@H](N)c1ccc(C(=O)Nc2ccnc3[nH]ccc23)cc1

>  <Name>  (61) 
Y-39983

>  <Pocket>  (61) 
nan

>  <ATP_Site>  (61) 
nan

>  <Peripheral>  (61) 
nan

>  <Num_H_Atoms_ProtBoundConf>  (61) 
nan

>  <Num_Resolved_Atoms>  (61) 
nan

>  <Num_Not_Resolved_Atoms>  (61) 
nan

$$$$
CHEMBL553
     RDKit          3D

  0  0  0  0  0  0  0  0  0  0999 V3000
M  V30 BEGIN CTAB
M  V30 COUNTS 52 54 0 0 0
M  V30 BEGIN ATOM
M  V30 1 C 2.250867 -5.200965 -1.641162 0
M  V30 2 C 1.876404 -4.218975 -2.199057 0
M  V30 3 C 1.403869 -3.033563 -2.858733 0
M  V30 4 C 0.728686 -3.044969 -4.060850 0
M  V30 5 C 0.285317 -1.868544 -4.669046 0
M  V30 6 C 0.515098 -0.645116 -4.073318 0
M  V30 7 C 1.192826 -0.645423 -2.868542 0
M  V30 8 N 1.468132 0.566712 -2.190559 0
M  V30 9 C 2.158937 0.781092 -0.954858 0
M  V30 10 N 3.487013 0.996406 -0.894535 0
M  V30 11 C 4.103575 1.194651 0.301839 0
M  V30 12 N 3.400502 1.180190 1.452935 0
M  V30 13 C 2.072308 0.962893 1.369374 0
M  V30 14 C 1.391058 0.954825 2.565298 0
M  V30 15 C 0.033619 0.747589 2.669689 0
M  V30 16 O -0.809593 0.702161 3.740779 0
M  V30 17 C -0.587976 0.841074 5.088973 0
M  V30 18 C 0.319533 -0.137104 5.749131 0
M  V30 19 O -0.122365 -1.457428 5.639304 0
M  V30 20 C 0.823024 -2.242292 6.300279 0
M  V30 21 C -0.634879 0.539957 1.456757 0
M  V30 22 O -2.004618 0.315500 1.373538 0
M  V30 23 C -2.631472 0.111914 0.122961 0
M  V30 24 C -4.091923 -0.098757 0.385291 0
M  V30 25 O -4.861157 -0.312826 -0.721421 0
M  V30 26 C -4.544863 -1.401466 -1.486806 0
M  V30 27 C 0.029087 0.544329 0.247582 0
M  V30 28 C 1.391079 0.755835 0.189988 0
M  V30 29 C 1.625936 -1.811793 -2.277057 0
M  V30 30 H 2.585420 -6.079477 -1.150117 0
M  V30 31 H 0.535490 -3.992420 -4.549170 0
M  V30 32 H -0.249001 -1.895788 -5.623283 0
M  V30 33 H 0.206545 0.302725 -4.476734 0
M  V30 34 H 1.171711 1.493515 -2.553414 0
M  V30 35 H 5.172560 1.370352 0.377895 0
M  V30 36 H 1.879860 1.115997 3.494464 0
M  V30 37 H -1.594216 0.742810 5.597776 0
M  V30 38 H -0.250312 1.861626 5.382089 0
M  V30 39 H 0.257421 0.080783 6.856532 0
M  V30 40 H 1.365386 -0.024955 5.482396 0
M  V30 41 H 0.485534 -3.291773 6.221565 0
M  V30 42 H 1.837989 -2.171393 5.876954 0
M  V30 43 H 0.847744 -2.013807 7.391322 0
M  V30 44 H -2.128243 -0.736371 -0.345118 0
M  V30 45 H -2.505982 1.055403 -0.474973 0
M  V30 46 H -4.488742 0.766279 0.928648 0
M  V30 47 H -4.161958 -0.990715 1.060024 0
M  V30 48 H -5.282374 -1.406357 -2.340232 0
M  V30 49 H -4.733667 -2.365645 -0.938542 0
M  V30 50 H -3.561211 -1.406072 -1.961076 0
M  V30 51 H -0.450664 0.388613 -0.704013 0
M  V30 52 H 2.157024 -1.775778 -1.327079 0
M  V30 END ATOM
M  V30 BEGIN BOND
M  V30 1 3 1 2
M  V30 2 1 2 3
M  V30 3 2 3 4
M  V30 4 1 4 5
M  V30 5 2 5 6
M  V30 6 1 6 7
M  V30 7 1 7 8
M  V30 8 1 8 9
M  V30 9 2 9 10
M  V30 10 1 10 11
M  V30 11 2 11 12
M  V30 12 1 12 13
M  V30 13 2 13 14
M  V30 14 1 14 15
M  V30 15 1 15 16
M  V30 16 1 16 17
M  V30 17 1 17 18
M  V30 18 1 18 19
M  V30 19 1 19 20
M  V30 20 2 15 21
M  V30 21 1 21 22
M  V30 22 1 22 23
M  V30 23 1 23 24
M  V30 24 1 24 25
M  V30 25 1 25 26
M  V30 26 1 21 27
M  V30 27 2 27 28
M  V30 28 2 7 29
M  V30 29 1 29 3
M  V30 30 1 28 9
M  V30 31 1 28 13
M  V30 32 1 1 30
M  V30 33 1 4 31
M  V30 34 1 5 32
M  V30 35 1 6 33
M  V30 36 1 8 34
M  V30 37 1 11 35
M  V30 38 1 14 36
M  V30 39 1 17 37
M  V30 40 1 17 38
M  V30 41 1 18 39
M  V30 42 1 18 40
M  V30 43 1 20 41
M  V30 44 1 20 42
M  V30 45 1 20 43
M  V30 46 1 23 44
M  V30 47 1 23 45
M  V30 48 1 24 46
M  V30 49 1 24 47
M  V30 50 1 26 48
M  V30 51 1 26 49
M  V30 52 1 26 50
M  V30 53 1 27 51
M  V30 54 1 29 52
M  V30 END BOND
M  V30 END CTAB
M  END
>  <Dataset>  (62) 
ChEMBL_Kinases

>  <Ligand_Instance>  (62) 
nan

>  <PDB_ID>  (62) 
nan

>  <Standardized_SMILES>  (62) 
C#Cc1cccc(Nc2ncnc3cc(OCCOC)c(OCCOC)cc23)c1

>  <Name>  (62) 
ERLOTINIB

>  <Pocket>  (62) 
nan

>  <ATP_Site>  (62) 
nan

>  <Peripheral>  (62) 
nan

>  <Num_H_Atoms_ProtBoundConf>  (62) 
nan

>  <Num_Resolved_Atoms>  (62) 
nan

>  <Num_Not_Resolved_Atoms>  (62) 
nan

$$$$
CHEMBL3137331
     RDKit          3D

  0  0  0  0  0  0  0  0  0  0999 V3000
M  V30 BEGIN CTAB
M  V30 COUNTS 56 58 0 0 0
M  V30 BEGIN ATOM
M  V30 1 C 3.489578 -3.667935 6.303240 0
M  V30 2 N 3.123754 -2.824162 5.181569 0
M  V30 3 C 3.794338 -2.784328 3.939033 0
M  V30 4 O 4.789773 -3.535088 3.780539 0
M  V30 5 C 3.401429 -1.927395 2.838373 0
M  V30 6 C 4.132241 -1.975776 1.674025 0
M  V30 7 C 3.811650 -1.175748 0.583184 0
M  V30 8 C 2.733016 -0.318686 0.686032 0
M  V30 9 N 2.317294 0.558783 -0.373948 0
M  V30 10 C 1.213943 1.448724 -0.357123 0
M  V30 11 N 1.525029 2.641041 0.180969 0
M  V30 12 C 0.641625 3.636631 0.296852 0
M  V30 13 C -0.651149 3.485344 -0.136922 0
M  V30 14 C -1.751026 4.481873 -0.078612 0
M  V30 15 F -2.802396 3.989940 0.698026 0
M  V30 16 F -1.283936 5.597195 0.600430 0
M  V30 17 F -2.186736 4.840500 -1.354799 0
M  V30 18 C -0.999220 2.273067 -0.693493 0
M  V30 19 N -2.215281 1.806102 -1.243152 0
M  V30 20 C -3.018235 0.802208 -1.861129 0
M  V30 21 C -3.268080 -0.418937 -1.088196 0
M  V30 22 N -4.372831 -0.395535 -0.311142 0
M  V30 23 C -4.743650 -1.381720 0.518616 0
M  V30 24 C -4.000277 -2.533797 0.645423 0
M  V30 25 N -2.892561 -2.585609 -0.119224 0
M  V30 26 C -2.556877 -1.575492 -0.938784 0
M  V30 27 N -1.382642 -1.848550 -1.679564 0
M  V30 28 C 0.079973 -1.712811 -1.688451 0
M  V30 29 S -1.994856 -2.678741 -3.082357 0
M  V30 30 C -2.795876 -4.176239 -2.532826 0
M  V30 31 O -2.942514 -1.844747 -3.886011 0
M  V30 32 O -0.906041 -3.104600 -4.015414 0
M  V30 33 N -0.051187 1.338112 -0.767660 0
M  V30 34 C 1.982214 -0.250334 1.842178 0
M  V30 35 C 2.332864 -1.065938 2.913524 0
M  V30 36 H 3.803029 -3.068598 7.191665 0
M  V30 37 H 2.585979 -4.265119 6.597323 0
M  V30 38 H 4.316836 -4.364440 6.027315 0
M  V30 39 H 2.290199 -2.209314 5.344671 0
M  V30 40 H 4.992348 -2.634649 1.539662 0
M  V30 41 H 4.373376 -1.189874 -0.356679 0
M  V30 42 H 2.910950 0.514597 -1.242428 0
M  V30 43 H 0.780657 4.621320 0.706729 0
M  V30 44 H -2.845291 2.664843 -1.126475 0
M  V30 45 H -4.003042 1.206329 -2.154221 0
M  V30 46 H -2.539219 0.568289 -2.859383 0
M  V30 47 H -5.654769 -1.269634 1.105546 0
M  V30 48 H -4.359824 -3.275979 1.328919 0
M  V30 49 H 0.480819 -2.736056 -1.878850 0
M  V30 50 H 0.423826 -0.995430 -2.429394 0
M  V30 51 H 0.404340 -1.463073 -0.634400 0
M  V30 52 H -2.102444 -4.652688 -1.799325 0
M  V30 53 H -3.744476 -3.966261 -2.024217 0
M  V30 54 H -2.909286 -4.840693 -3.410984 0
M  V30 55 H 1.130318 0.428092 1.922328 0
M  V30 56 H 1.735826 -0.994877 3.801835 0
M  V30 END ATOM
M  V30 BEGIN BOND
M  V30 1 1 1 2
M  V30 2 1 2 3
M  V30 3 2 3 4
M  V30 4 1 3 5
M  V30 5 2 5 6
M  V30 6 1 6 7
M  V30 7 2 7 8
M  V30 8 1 8 9
M  V30 9 1 9 10
M  V30 10 2 10 11
M  V30 11 1 11 12
M  V30 12 2 12 13
M  V30 13 1 13 14
M  V30 14 1 14 15
M  V30 15 1 14 16
M  V30 16 1 14 17
M  V30 17 1 13 18
M  V30 18 1 18 19
M  V30 19 1 19 20
M  V30 20 1 20 21
M  V30 21 2 21 22
M  V30 22 1 22 23
M  V30 23 2 23 24
M  V30 24 1 24 25
M  V30 25 2 25 26
M  V30 26 1 26 27
M  V30 27 1 27 28
M  V30 28 1 27 29
M  V30 29 1 29 30
M  V30 30 2 29 31
M  V30 31 2 29 32
M  V30 32 2 18 33
M  V30 33 1 8 34
M  V30 34 2 34 35
M  V30 35 1 35 5
M  V30 36 1 33 10
M  V30 37 1 26 21
M  V30 38 1 1 36
M  V30 39 1 1 37
M  V30 40 1 1 38
M  V30 41 1 2 39
M  V30 42 1 6 40
M  V30 43 1 7 41
M  V30 44 1 9 42
M  V30 45 1 12 43
M  V30 46 1 19 44
M  V30 47 1 20 45
M  V30 48 1 20 46
M  V30 49 1 23 47
M  V30 50 1 24 48
M  V30 51 1 28 49
M  V30 52 1 28 50
M  V30 53 1 28 51
M  V30 54 1 30 52
M  V30 55 1 30 53
M  V30 56 1 30 54
M  V30 57 1 34 55
M  V30 58 1 35 56
M  V30 END BOND
M  V30 END CTAB
M  END
>  <Dataset>  (63) 
ChEMBL_Kinases

>  <Ligand_Instance>  (63) 
nan

>  <PDB_ID>  (63) 
nan

>  <Standardized_SMILES>  (63) 
CNC(=O)c1ccc(Nc2ncc(C(F)(F)F)c(NCc3nccnc3N(C)S(C)(=O)=O)n2)cc1

>  <Name>  (63) 
DEFACTINIB

>  <Pocket>  (63) 
nan

>  <ATP_Site>  (63) 
nan

>  <Peripheral>  (63) 
nan

>  <Num_H_Atoms_ProtBoundConf>  (63) 
nan

>  <Num_Resolved_Atoms>  (63) 
nan

>  <Num_Not_Resolved_Atoms>  (63) 
nan

$$$$
CHEMBL2028663
     RDKit          3D

  0  0  0  0  0  0  0  0  0  0999 V3000
M  V30 BEGIN CTAB
M  V30 COUNTS 55 58 0 0 0
M  V30 BEGIN ATOM
M  V30 1 C 4.760634 -2.763910 1.261696 0
M  V30 2 C 4.749889 -1.348490 0.784962 0
M  V30 3 C 4.836032 -0.376641 1.939035 0
M  V30 4 C 5.885971 -1.161015 -0.196316 0
M  V30 5 C 3.488531 -0.986352 0.072572 0
M  V30 6 N 2.419056 -0.526362 0.397634 0
M  V30 7 C 1.428888 -0.289468 -0.442842 0
M  V30 8 C 0.188497 0.276121 0.139876 0
M  V30 9 C 0.220349 1.510797 0.751756 0
M  V30 10 C -0.935783 2.038287 1.297827 0
M  V30 11 C -2.069467 1.263181 1.184656 0
M  V30 12 C -2.151955 0.024791 0.583390 0
M  V30 13 N -3.357932 -0.714077 0.496672 0
M  V30 14 S -4.775718 -0.636644 1.489430 0
M  V30 15 O -5.863325 -1.494670 0.942252 0
M  V30 16 O -5.319538 0.785675 1.470643 0
M  V30 17 C -4.476179 -1.048470 3.144399 0
M  V30 18 C -4.575871 -2.409103 3.420919 0
M  V30 19 F -4.877406 -3.349685 2.475672 0
M  V30 20 C -4.382640 -2.946795 4.667190 0
M  V30 21 C -4.069877 -2.133637 5.739349 0
M  V30 22 C -3.967590 -0.781774 5.480886 0
M  V30 23 C -4.166427 -0.264727 4.219762 0
M  V30 24 F -4.081370 1.055650 3.933247 0
M  V30 25 C -0.965660 -0.469751 0.046232 0
M  V30 26 F -1.021733 -1.674123 -0.544784 0
M  V30 27 C 1.619311 -0.583628 -1.783658 0
M  V30 28 C 0.698114 -0.412251 -2.864686 0
M  V30 29 C 0.328635 -1.565919 -3.543108 0
M  V30 30 C -0.562516 -1.541991 -4.617311 0
M  V30 31 N -1.044699 -0.334408 -4.959604 0
M  V30 32 C -0.696893 0.791590 -4.313146 0
M  V30 33 N -1.181981 2.089033 -4.642258 0
M  V30 34 N 0.159804 0.727737 -3.288405 0
M  V30 35 S 3.328482 -1.226010 -1.742755 0
M  V30 36 H 5.825353 -3.069659 1.411458 0
M  V30 37 H 4.384266 -3.425353 0.442391 0
M  V30 38 H 4.148671 -2.948661 2.162105 0
M  V30 39 H 4.200547 0.523030 1.806511 0
M  V30 40 H 4.454845 -0.870648 2.860406 0
M  V30 41 H 5.876041 -0.103445 2.117756 0
M  V30 42 H 6.827735 -1.629422 0.154267 0
M  V30 43 H 5.593410 -1.710370 -1.127647 0
M  V30 44 H 5.999585 -0.108960 -0.517301 0
M  V30 45 H 1.136184 2.079211 0.813939 0
M  V30 46 H -0.935067 2.999110 1.780459 0
M  V30 47 H -2.952125 1.707641 1.613794 0
M  V30 48 H -3.387309 -1.406360 -0.287776 0
M  V30 49 H -4.456162 -4.000384 4.899933 0
M  V30 50 H -3.891597 -2.402754 6.761747 0
M  V30 51 H -3.728961 -0.045106 6.234036 0
M  V30 52 H 0.687154 -2.578277 -3.311656 0
M  V30 53 H -0.859921 -2.428689 -5.154346 0
M  V30 54 H -0.472433 2.496679 -5.316648 0
M  V30 55 H -2.072766 2.458519 -4.237363 0
M  V30 END ATOM
M  V30 BEGIN BOND
M  V30 1 1 1 2
M  V30 2 1 2 3
M  V30 3 1 2 4
M  V30 4 1 2 5
M  V30 5 2 5 6
M  V30 6 1 6 7
M  V30 7 1 7 8
M  V30 8 2 8 9
M  V30 9 1 9 10
M  V30 10 2 10 11
M  V30 11 1 11 12
M  V30 12 1 12 13
M  V30 13 1 13 14
M  V30 14 2 14 15
M  V30 15 2 14 16
M  V30 16 1 14 17
M  V30 17 2 17 18
M  V30 18 1 18 19
M  V30 19 1 18 20
M  V30 20 2 20 21
M  V30 21 1 21 22
M  V30 22 2 22 23
M  V30 23 1 23 24
M  V30 24 2 12 25
M  V30 25 1 25 26
M  V30 26 2 7 27
M  V30 27 1 27 28
M  V30 28 2 28 29
M  V30 29 1 29 30
M  V30 30 2 30 31
M  V30 31 1 31 32
M  V30 32 1 32 33
M  V30 33 2 32 34
M  V30 34 1 27 35
M  V30 35 1 35 5
M  V30 36 1 25 8
M  V30 37 1 34 28
M  V30 38 1 23 17
M  V30 39 1 1 36
M  V30 40 1 1 37
M  V30 41 1 1 38
M  V30 42 1 3 39
M  V30 43 1 3 40
M  V30 44 1 3 41
M  V30 45 1 4 42
M  V30 46 1 4 43
M  V30 47 1 4 44
M  V30 48 1 9 45
M  V30 49 1 10 46
M  V30 50 1 11 47
M  V30 51 1 13 48
M  V30 52 1 20 49
M  V30 53 1 21 50
M  V30 54 1 22 51
M  V30 55 1 29 52
M  V30 56 1 30 53
M  V30 57 1 33 54
M  V30 58 1 33 55
M  V30 END BOND
M  V30 END CTAB
M  END
>  <Dataset>  (64) 
ChEMBL_Kinases

>  <Ligand_Instance>  (64) 
nan

>  <PDB_ID>  (64) 
nan

>  <Standardized_SMILES>  (64) 
CC(C)(C)c1nc(-c2cccc(NS(=O)(=O)c3c(F)cccc3F)c2F)c(-c2ccnc(N)n2)s1

>  <Name>  (64) 
DABRAFENIB

>  <Pocket>  (64) 
nan

>  <ATP_Site>  (64) 
nan

>  <Peripheral>  (64) 
nan

>  <Num_H_Atoms_ProtBoundConf>  (64) 
nan

>  <Num_Resolved_Atoms>  (64) 
nan

>  <Num_Not_Resolved_Atoms>  (64) 
nan

$$$$
CHEMBL31965
     RDKit          3D

  0  0  0  0  0  0  0  0  0  0999 V3000
M  V30 BEGIN CTAB
M  V30 COUNTS 59 62 0 0 0
M  V30 BEGIN ATOM
M  V30 1 C 3.016559 -2.674978 5.187277 0
M  V30 2 C 1.958932 -3.286210 4.690348 0
M  V30 3 C 1.187434 -2.735967 3.609118 0
M  V30 4 O 0.226176 -3.432228 3.259417 0
M  V30 5 N 1.369146 -1.538263 2.906135 0
M  V30 6 C 0.687396 -0.906309 1.844200 0
M  V30 7 C 1.301498 0.328975 1.582926 0
M  V30 8 C 0.862183 1.180517 0.600162 0
M  V30 9 C 1.450154 2.395489 0.329934 0
M  V30 10 N 2.569083 2.808959 1.087281 0
M  V30 11 C 2.801664 3.518953 2.280629 0
M  V30 12 C 4.095747 3.736027 2.670355 0
M  V30 13 C 4.258125 4.434239 3.846009 0
M  V30 14 C 3.211804 4.904396 4.614707 0
M  V30 15 F 3.453881 5.584207 5.760516 0
M  V30 16 C 1.906889 4.658072 4.175828 0
M  V30 17 Cl 0.575672 5.263408 5.166629 0
M  V30 18 C 1.693792 3.954242 2.990280 0
M  V30 19 N 0.973111 3.175964 -0.637556 0
M  V30 20 C -0.084636 2.813158 -1.376915 0
M  V30 21 N -0.665576 1.629240 -1.120776 0
M  V30 22 C -0.220935 0.807866 -0.155826 0
M  V30 23 C -0.812212 -0.398200 0.106957 0
M  V30 24 C -0.404902 -1.277703 1.077516 0
M  V30 25 O -0.954043 -2.448321 1.360431 0
M  V30 26 C -1.940542 -3.278958 0.976243 0
M  V30 27 C -1.963015 -3.939748 -0.345066 0
M  V30 28 C -1.981460 -3.151295 -1.582897 0
M  V30 29 N -2.018993 -3.919060 -2.821557 0
M  V30 30 C -3.282185 -4.588240 -2.991329 0
M  V30 31 C -4.192697 -3.745482 -3.886288 0
M  V30 32 O -3.704661 -3.671962 -5.170871 0
M  V30 33 C -2.339179 -3.549755 -5.220567 0
M  V30 34 C -1.850061 -2.978982 -3.909062 0
M  V30 35 H 3.888726 -2.383422 5.750292 0
M  V30 36 H 3.733303 -1.869901 5.242206 0
M  V30 37 H 1.755692 -4.207958 5.176329 0
M  V30 38 H 2.230339 -1.144548 3.383116 0
M  V30 39 H 2.175074 0.754515 2.108776 0
M  V30 40 H 3.323010 2.420325 0.489010 0
M  V30 41 H 4.961415 3.395909 2.115121 0
M  V30 42 H 5.259478 4.633073 4.198365 0
M  V30 43 H 0.671794 3.775210 2.670020 0
M  V30 44 H -0.536456 3.389423 -2.184437 0
M  V30 45 H -1.660410 -0.609068 -0.513731 0
M  V30 46 H -2.955580 -2.740913 1.075047 0
M  V30 47 H -2.087463 -4.114241 1.735074 0
M  V30 48 H -2.893725 -4.586562 -0.349820 0
M  V30 49 H -1.129399 -4.710746 -0.340943 0
M  V30 50 H -0.986824 -2.608010 -1.652773 0
M  V30 51 H -2.756043 -2.390364 -1.661919 0
M  V30 52 H -3.056762 -5.528143 -3.577512 0
M  V30 53 H -3.812405 -4.861232 -2.084914 0
M  V30 54 H -4.425838 -2.771338 -3.443783 0
M  V30 55 H -5.163334 -4.304531 -3.930331 0
M  V30 56 H -1.836787 -4.552396 -5.316910 0
M  V30 57 H -1.959201 -2.913287 -6.027709 0
M  V30 58 H -2.463438 -2.076319 -3.706033 0
M  V30 59 H -0.790450 -2.682465 -4.047181 0
M  V30 END ATOM
M  V30 BEGIN BOND
M  V30 1 2 1 2
M  V30 2 1 2 3
M  V30 3 2 3 4
M  V30 4 1 3 5
M  V30 5 1 5 6
M  V30 6 2 6 7
M  V30 7 1 7 8
M  V30 8 2 8 9
M  V30 9 1 9 10
M  V30 10 1 10 11
M  V30 11 2 11 12
M  V30 12 1 12 13
M  V30 13 2 13 14
M  V30 14 1 14 15
M  V30 15 1 14 16
M  V30 16 1 16 17
M  V30 17 2 16 18
M  V30 18 1 9 19
M  V30 19 2 19 20
M  V30 20 1 20 21
M  V30 21 2 21 22
M  V30 22 1 22 23
M  V30 23 2 23 24
M  V30 24 1 24 25
M  V30 25 1 25 26
M  V30 26 1 26 27
M  V30 27 1 27 28
M  V30 28 1 28 29
M  V30 29 1 29 30
M  V30 30 1 30 31
M  V30 31 1 31 32
M  V30 32 1 32 33
M  V30 33 1 33 34
M  V30 34 1 24 6
M  V30 35 1 34 29
M  V30 36 1 22 8
M  V30 37 1 18 11
M  V30 38 1 1 35
M  V30 39 1 1 36
M  V30 40 1 2 37
M  V30 41 1 5 38
M  V30 42 1 7 39
M  V30 43 1 10 40
M  V30 44 1 12 41
M  V30 45 1 13 42
M  V30 46 1 18 43
M  V30 47 1 20 44
M  V30 48 1 23 45
M  V30 49 1 26 46
M  V30 50 1 26 47
M  V30 51 1 27 48
M  V30 52 1 27 49
M  V30 53 1 28 50
M  V30 54 1 28 51
M  V30 55 1 30 52
M  V30 56 1 30 53
M  V30 57 1 31 54
M  V30 58 1 31 55
M  V30 59 1 33 56
M  V30 60 1 33 57
M  V30 61 1 34 58
M  V30 62 1 34 59
M  V30 END BOND
M  V30 END CTAB
M  END
>  <Dataset>  (65) 
ChEMBL_Kinases

>  <Ligand_Instance>  (65) 
nan

>  <PDB_ID>  (65) 
nan

>  <Standardized_SMILES>  (65) 
C=CC(=O)Nc1cc2c(Nc3ccc(F)c(Cl)c3)ncnc2cc1OCCCN1CCOCC1

>  <Name>  (65) 
CANERTINIB

>  <Pocket>  (65) 
nan

>  <ATP_Site>  (65) 
nan

>  <Peripheral>  (65) 
nan

>  <Num_H_Atoms_ProtBoundConf>  (65) 
nan

>  <Num_Resolved_Atoms>  (65) 
nan

>  <Num_Not_Resolved_Atoms>  (65) 
nan

$$$$
CHEMBL14762
     RDKit          3D

  0  0  0  0  0  0  0  0  0  0999 V3000
M  V30 BEGIN CTAB
M  V30 COUNTS 52 54 0 0 0
M  V30 BEGIN ATOM
M  V30 1 C 2.175203 -3.793454 3.031371 0
M  V30 2 C 1.546581 -3.096773 1.874179 0
M  V30 3 C 2.480193 -2.398004 0.949559 0 CFG=2
M  V30 4 C 3.311320 -1.315388 1.565607 0
M  V30 5 O 4.258155 -0.831033 0.634659 0
M  V30 6 N 1.745762 -1.945514 -0.213616 0
M  V30 7 C 0.601432 -1.124967 -0.326577 0
M  V30 8 N 0.443365 0.227127 -0.372155 0
M  V30 9 C -0.796172 0.726187 -0.497007 0
M  V30 10 N -0.950569 2.130925 -0.546702 0
M  V30 11 C 0.036932 3.177676 -0.478742 0
M  V30 12 C 0.793280 3.193343 0.809686 0
M  V30 13 C 0.099352 3.966597 1.750061 0
M  V30 14 C 0.605790 4.137025 3.038242 0
M  V30 15 C 1.809322 3.519023 3.351038 0
M  V30 16 C 2.491348 2.751739 2.406551 0
M  V30 17 C 1.983454 2.591896 1.143357 0
M  V30 18 C -1.891652 -0.123179 -0.577471 0
M  V30 19 N -3.198173 0.171085 -0.704029 0
M  V30 20 C -3.872817 -0.989484 -0.739357 0
M  V30 21 N -2.987208 -1.994843 -0.635167 0
M  V30 22 C -3.214066 -3.440800 -0.626550 0
M  V30 23 C -4.674696 -3.716998 -0.944443 0
M  V30 24 C -2.366829 -4.116449 -1.688074 0
M  V30 25 C -1.732647 -1.485704 -0.531394 0
M  V30 26 N -0.466666 -1.941553 -0.405151 0
M  V30 27 H 2.192764 -4.904813 2.906129 0
M  V30 28 H 3.214589 -3.491033 3.260254 0
M  V30 29 H 1.579247 -3.613530 3.970876 0
M  V30 30 H 0.725732 -2.449393 2.249700 0
M  V30 31 H 1.034080 -3.891613 1.260843 0
M  V30 32 H 3.216255 -3.185940 0.604117 0
M  V30 33 H 3.860272 -1.615207 2.453556 0
M  V30 34 H 2.633490 -0.443942 1.785321 0
M  V30 35 H 4.473637 0.110474 0.766900 0
M  V30 36 H 2.033145 -2.221262 -1.178599 0
M  V30 37 H -1.952763 2.480081 -0.649475 0
M  V30 38 H 0.824533 2.974559 -1.265248 0
M  V30 39 H -0.391611 4.155472 -0.733427 0
M  V30 40 H -0.829178 4.485354 1.622012 0
M  V30 41 H 0.124400 4.718703 3.811949 0
M  V30 42 H 2.224772 3.641458 4.361542 0
M  V30 43 H 3.429341 2.262381 2.634435 0
M  V30 44 H 2.409245 2.042416 0.345177 0
M  V30 45 H -4.920234 -1.239180 -0.828859 0
M  V30 46 H -2.993399 -3.836882 0.363123 0
M  V30 47 H -5.043006 -3.048164 -1.745975 0
M  V30 48 H -5.294775 -3.573431 -0.035610 0
M  V30 49 H -4.806154 -4.764350 -1.339930 0
M  V30 50 H -1.340103 -4.305557 -1.326022 0
M  V30 51 H -2.892799 -5.037999 -2.011268 0
M  V30 52 H -2.377135 -3.423627 -2.565707 0
M  V30 END ATOM
M  V30 BEGIN BOND
M  V30 1 1 1 2
M  V30 2 1 2 3
M  V30 3 1 3 4
M  V30 4 1 4 5
M  V30 5 1 3 6
M  V30 6 1 6 7
M  V30 7 2 7 8
M  V30 8 1 8 9
M  V30 9 1 9 10
M  V30 10 1 10 11
M  V30 11 1 11 12
M  V30 12 2 12 13
M  V30 13 1 13 14
M  V30 14 2 14 15
M  V30 15 1 15 16
M  V30 16 2 16 17
M  V30 17 2 9 18
M  V30 18 1 18 19
M  V30 19 2 19 20
M  V30 20 1 20 21
M  V30 21 1 21 22
M  V30 22 1 22 23
M  V30 23 1 22 24
M  V30 24 1 21 25
M  V30 25 2 25 26
M  V30 26 1 26 7
M  V30 27 1 17 12
M  V30 28 1 25 18
M  V30 29 1 1 27
M  V30 30 1 1 28
M  V30 31 1 1 29
M  V30 32 1 2 30
M  V30 33 1 2 31
M  V30 34 1 3 32 CFG=3
M  V30 35 1 4 33
M  V30 36 1 4 34
M  V30 37 1 5 35
M  V30 38 1 6 36
M  V30 39 1 10 37
M  V30 40 1 11 38
M  V30 41 1 11 39
M  V30 42 1 13 40
M  V30 43 1 14 41
M  V30 44 1 15 42
M  V30 45 1 16 43
M  V30 46 1 17 44
M  V30 47 1 20 45
M  V30 48 1 22 46
M  V30 49 1 23 47
M  V30 50 1 23 48
M  V30 51 1 23 49
M  V30 52 1 24 50
M  V30 53 1 24 51
M  V30 54 1 24 52
M  V30 END BOND
M  V30 END CTAB
M  END
>  <Dataset>  (66) 
ChEMBL_Kinases

>  <Ligand_Instance>  (66) 
nan

>  <PDB_ID>  (66) 
nan

>  <Standardized_SMILES>  (66) 
CC[C@H](CO)Nc1nc(NCc2ccccc2)c2ncn(C(C)C)c2n1

>  <Name>  (66) 
SELICICLIB

>  <Pocket>  (66) 
nan

>  <ATP_Site>  (66) 
nan

>  <Peripheral>  (66) 
nan

>  <Num_H_Atoms_ProtBoundConf>  (66) 
nan

>  <Num_Resolved_Atoms>  (66) 
nan

>  <Num_Not_Resolved_Atoms>  (66) 
nan

$$$$
CHEMBL1738757
     RDKit          3D

  0  0  0  0  0  0  0  0  0  0999 V3000
M  V30 BEGIN CTAB
M  V30 COUNTS 69 73 0 0 0
M  V30 BEGIN ATOM
M  V30 1 C 3.280214 -4.211306 7.714851 0
M  V30 2 N 3.883711 -3.952668 6.412597 0
M  V30 3 C 3.965758 -2.674014 5.795822 0
M  V30 4 O 3.472022 -1.716104 6.447662 0
M  V30 5 C 4.592236 -2.556012 4.497194 0
M  V30 6 C 4.634860 -1.281193 3.960907 0
M  V30 7 C 5.224114 -1.124971 2.723450 0
M  V30 8 O 5.386994 0.058082 1.978347 0
M  V30 9 C 4.383353 0.449970 1.071029 0
M  V30 10 C 4.365057 0.061237 -0.257794 0
M  V30 11 C 3.307067 0.525778 -1.043762 0
M  V30 12 C 2.341620 1.335803 -0.481055 0
M  V30 13 N 1.344838 1.702195 -1.457798 0
M  V30 14 C 0.222977 0.802217 -1.553081 0
M  V30 15 O 0.296914 -0.185473 -0.745779 0
M  V30 16 N -0.905836 0.897429 -2.414602 0
M  V30 17 C -1.896168 -0.117854 -2.329764 0
M  V30 18 C -1.830252 -1.274361 -3.112258 0
M  V30 19 C -2.951137 -1.996178 -2.745047 0
M  V30 20 C -3.297642 -3.318599 -3.329173 0
M  V30 21 C -4.579504 -3.853102 -2.724555 0
M  V30 22 C -3.540239 -3.135019 -4.806874 0
M  V30 23 C -2.206149 -4.330703 -3.057772 0
M  V30 24 N -3.637742 -1.302869 -1.799507 0
M  V30 25 N -2.995427 -0.163374 -1.549276 0
M  V30 26 C -3.284587 0.910439 -0.654890 0
M  V30 27 C -2.702950 0.898570 0.618796 0
M  V30 28 C -2.942431 1.913366 1.539009 0
M  V30 29 C -3.791269 2.937757 1.120766 0
M  V30 30 N -4.058969 3.948219 1.972163 0
M  V30 31 C -4.874578 4.973835 1.629411 0
M  V30 32 C -5.454204 4.996603 0.375777 0
M  V30 33 C -5.211269 3.977380 -0.543104 0
M  V30 34 C -4.366288 2.952246 -0.134486 0
M  V30 35 C -4.123679 1.941760 -1.041591 0
M  V30 36 C 2.375473 1.713638 0.845842 0
M  V30 37 F 1.343776 2.513045 1.227725 0
M  V30 38 C 3.418504 1.259953 1.634917 0
M  V30 39 C 5.751042 -2.214255 2.051441 0
M  V30 40 C 5.671718 -3.464148 2.652546 0
M  V30 41 N 5.095608 -3.608121 3.859301 0
M  V30 42 H 3.810919 -5.020121 8.254357 0
M  V30 43 H 3.313456 -3.310210 8.332080 0
M  V30 44 H 2.259078 -4.592410 7.510699 0
M  V30 45 H 4.275841 -4.777289 5.917480 0
M  V30 46 H 4.261721 -0.358016 4.383103 0
M  V30 47 H 5.160021 -0.575084 -0.619485 0
M  V30 48 H 3.353851 0.186935 -2.064141 0
M  V30 49 H 1.276990 2.520832 -2.131526 0
M  V30 50 H -0.866804 1.748293 -3.038297 0
M  V30 51 H -1.076825 -1.532179 -3.830623 0
M  V30 52 H -4.926147 -3.128270 -1.935670 0
M  V30 53 H -5.408898 -3.923836 -3.466930 0
M  V30 54 H -4.418620 -4.818789 -2.203937 0
M  V30 55 H -2.617496 -3.078956 -5.399811 0
M  V30 56 H -4.217035 -3.917160 -5.222425 0
M  V30 57 H -4.070670 -2.167848 -4.939174 0
M  V30 58 H -1.225818 -4.036451 -3.453841 0
M  V30 59 H -2.119144 -4.390734 -1.938315 0
M  V30 60 H -2.567380 -5.308773 -3.396227 0
M  V30 61 H -2.049275 0.115810 0.949604 0
M  V30 62 H -2.489024 1.888676 2.509814 0
M  V30 63 H -5.108386 5.798500 2.290233 0
M  V30 64 H -6.123398 5.772982 0.001399 0
M  V30 65 H -5.650237 3.972733 -1.523823 0
M  V30 66 H -4.541198 1.905539 -2.019894 0
M  V30 67 H 3.390745 1.585494 2.653021 0
M  V30 68 H 6.236785 -2.245718 1.088023 0
M  V30 69 H 6.038248 -4.408925 2.251248 0
M  V30 END ATOM
M  V30 BEGIN BOND
M  V30 1 1 1 2
M  V30 2 1 2 3
M  V30 3 2 3 4
M  V30 4 1 3 5
M  V30 5 2 5 6
M  V30 6 1 6 7
M  V30 7 1 7 8
M  V30 8 1 8 9
M  V30 9 2 9 10
M  V30 10 1 10 11
M  V30 11 2 11 12
M  V30 12 1 12 13
M  V30 13 1 13 14
M  V30 14 2 14 15
M  V30 15 1 14 16
M  V30 16 1 16 17
M  V30 17 2 17 18
M  V30 18 1 18 19
M  V30 19 1 19 20
M  V30 20 1 20 21
M  V30 21 1 20 22
M  V30 22 1 20 23
M  V30 23 2 19 24
M  V30 24 1 24 25
M  V30 25 1 25 26
M  V30 26 2 26 27
M  V30 27 1 27 28
M  V30 28 2 28 29
M  V30 29 1 29 30
M  V30 30 2 30 31
M  V30 31 1 31 32
M  V30 32 2 32 33
M  V30 33 1 33 34
M  V30 34 2 34 35
M  V30 35 1 12 36
M  V30 36 1 36 37
M  V30 37 2 36 38
M  V30 38 2 7 39
M  V30 39 1 39 40
M  V30 40 2 40 41
M  V30 41 1 41 5
M  V30 42 1 38 9
M  V30 43 1 25 17
M  V30 44 1 35 26
M  V30 45 1 34 29
M  V30 46 1 1 42
M  V30 47 1 1 43
M  V30 48 1 1 44
M  V30 49 1 2 45
M  V30 50 1 6 46
M  V30 51 1 10 47
M  V30 52 1 11 48
M  V30 53 1 13 49
M  V30 54 1 16 50
M  V30 55 1 18 51
M  V30 56 1 21 52
M  V30 57 1 21 53
M  V30 58 1 21 54
M  V30 59 1 22 55
M  V30 60 1 22 56
M  V30 61 1 22 57
M  V30 62 1 23 58
M  V30 63 1 23 59
M  V30 64 1 23 60
M  V30 65 1 27 61
M  V30 66 1 28 62
M  V30 67 1 31 63
M  V30 68 1 32 64
M  V30 69 1 33 65
M  V30 70 1 35 66
M  V30 71 1 38 67
M  V30 72 1 39 68
M  V30 73 1 40 69
M  V30 END BOND
M  V30 END CTAB
M  END
>  <Dataset>  (67) 
ChEMBL_Kinases

>  <Ligand_Instance>  (67) 
nan

>  <PDB_ID>  (67) 
nan

>  <Standardized_SMILES>  (67) 
CNC(=O)c1cc(Oc2ccc(NC(=O)Nc3cc(C(C)(C)C)nn3-c3ccc4ncccc4c3)c(F)c2)ccn1

>  <Name>  (67) 
REBASTINIB

>  <Pocket>  (67) 
nan

>  <ATP_Site>  (67) 
nan

>  <Peripheral>  (67) 
nan

>  <Num_H_Atoms_ProtBoundConf>  (67) 
nan

>  <Num_Resolved_Atoms>  (67) 
nan

>  <Num_Not_Resolved_Atoms>  (67) 
nan

$$$$
CHEMBL502835
     RDKit          3D

  0  0  0  0  0  0  0  0  0  0999 V3000
M  V30 BEGIN CTAB
M  V30 COUNTS 73 77 0 0 0
M  V30 BEGIN ATOM
M  V30 1 C 7.270679 1.603158 5.033253 0
M  V30 2 O 6.426676 1.454796 3.903637 0
M  V30 3 C 5.734773 2.475339 3.298577 0
M  V30 4 O 5.890922 3.626215 3.822454 0
M  V30 5 C 4.880761 2.258926 2.136412 0
M  V30 6 C 4.698987 1.021981 1.549872 0
M  V30 7 C 3.870437 0.864170 0.436889 0
M  V30 8 C 3.229421 1.959992 -0.079748 0
M  V30 9 C 3.378585 3.212839 0.473014 0
M  V30 10 C 4.209079 3.341424 1.580455 0
M  V30 11 N 2.578291 4.139627 -0.245142 0
M  V30 12 C 1.896224 3.458946 -1.290600 0
M  V30 13 O 1.110298 3.945877 -2.120208 0
M  V30 14 C 2.311063 2.043858 -1.196961 0
M  V30 15 C 1.976846 1.079594 -2.029183 0
M  V30 16 N 1.038312 1.433806 -3.029408 0
M  V30 17 C -0.187728 0.758276 -2.777999 0
M  V30 18 C -0.769244 -0.220505 -3.557125 0
M  V30 19 C -1.959461 -0.816277 -3.198261 0
M  V30 20 C -2.635858 -0.471903 -2.046694 0
M  V30 21 N -3.864799 -0.999196 -1.564979 0
M  V30 22 C -5.152022 -0.437831 -1.854364 0
M  V30 23 C -3.575691 -2.137989 -0.781591 0
M  V30 24 O -2.434530 -1.757340 -1.202633 0
M  V30 25 C -3.370886 -3.310255 0.036693 0
M  V30 26 N -4.532635 -3.883066 0.619785 0
M  V30 27 C -4.293172 -5.091499 1.341591 0
M  V30 28 C -4.296891 -4.733600 2.831509 0
M  V30 29 N -5.682701 -4.473434 3.178111 0
M  V30 30 C -5.856603 -3.800116 4.425859 0
M  V30 31 C -6.377507 -3.778640 2.124273 0
M  V30 32 C -5.438077 -2.982043 1.244197 0
M  V30 33 C -2.079209 0.516789 -1.229349 0
M  V30 34 C -0.878781 1.093586 -1.624752 0
M  V30 35 C 2.556928 -0.237821 -2.090407 0
M  V30 36 C 2.055044 -1.513228 -1.939476 0
M  V30 37 C 2.869339 -2.603652 -2.154760 0
M  V30 38 C 4.187542 -2.490391 -2.520736 0
M  V30 39 C 4.711014 -1.230894 -2.677761 0
M  V30 40 C 3.913121 -0.100186 -2.467738 0
M  V30 41 H 7.650148 2.634920 5.050472 0
M  V30 42 H 8.114073 0.859225 4.950957 0
M  V30 43 H 6.688646 1.347313 5.936430 0
M  V30 44 H 5.265040 0.241397 2.055852 0
M  V30 45 H 3.846615 -0.150954 0.166249 0
M  V30 46 H 4.300970 4.341624 1.984242 0
M  V30 47 H 2.499286 5.159396 -0.044831 0
M  V30 48 H 1.283334 2.093768 -3.800520 0
M  V30 49 H -0.248313 -0.492915 -4.452497 0
M  V30 50 H -2.426346 -1.580018 -3.795191 0
M  V30 51 H -5.930130 -0.640342 -1.096360 0
M  V30 52 H -5.484417 -0.793737 -2.871548 0
M  V30 53 H -5.055449 0.686423 -1.851449 0
M  V30 54 H -2.633659 -3.129148 0.874087 0
M  V30 55 H -2.889385 -4.110977 -0.576680 0
M  V30 56 H -5.059523 -5.826415 1.097701 0
M  V30 57 H -3.307112 -5.501164 1.048527 0
M  V30 58 H -3.955591 -5.597796 3.392556 0
M  V30 59 H -3.672108 -3.830996 2.973888 0
M  V30 60 H -6.929300 -3.636566 4.609715 0
M  V30 61 H -5.499708 -4.430553 5.270461 0
M  V30 62 H -5.256864 -2.848726 4.445966 0
M  V30 63 H -6.856621 -4.565127 1.476140 0
M  V30 64 H -7.199053 -3.148687 2.523734 0
M  V30 65 H -4.837784 -2.326162 1.931996 0
M  V30 66 H -5.949455 -2.378703 0.505842 0
M  V30 67 H -2.560893 0.839659 -0.302203 0
M  V30 68 H -0.486973 1.856903 -0.956263 0
M  V30 69 H 1.024269 -1.464424 -1.652310 0
M  V30 70 H 2.371552 -3.556648 -2.008072 0
M  V30 71 H 4.785518 -3.387006 -2.677314 0
M  V30 72 H 5.752156 -1.198432 -2.966123 0
M  V30 73 H 4.489262 0.809910 -2.637032 0
M  V30 END ATOM
M  V30 BEGIN BOND
M  V30 1 1 1 2
M  V30 2 1 2 3
M  V30 3 2 3 4
M  V30 4 1 3 5
M  V30 5 2 5 6
M  V30 6 1 6 7
M  V30 7 2 7 8
M  V30 8 1 8 9
M  V30 9 2 9 10
M  V30 10 1 9 11
M  V30 11 1 11 12
M  V30 12 2 12 13
M  V30 13 1 12 14
M  V30 14 2 14 15
M  V30 15 1 15 16
M  V30 16 1 16 17
M  V30 17 2 17 18
M  V30 18 1 18 19
M  V30 19 2 19 20
M  V30 20 1 20 21
M  V30 21 1 21 22
M  V30 22 1 21 23
M  V30 23 2 23 24
M  V30 24 1 23 25
M  V30 25 1 25 26
M  V30 26 1 26 27
M  V30 27 1 27 28
M  V30 28 1 28 29
M  V30 29 1 29 30
M  V30 30 1 29 31
M  V30 31 1 31 32
M  V30 32 1 20 33
M  V30 33 2 33 34
M  V30 34 1 15 35
M  V30 35 2 35 36
M  V30 36 1 36 37
M  V30 37 2 37 38
M  V30 38 1 38 39
M  V30 39 2 39 40
M  V30 40 1 10 5
M  V30 41 1 34 17
M  V30 42 1 40 35
M  V30 43 1 14 8
M  V30 44 1 32 26
M  V30 45 1 1 41
M  V30 46 1 1 42
M  V30 47 1 1 43
M  V30 48 1 6 44
M  V30 49 1 7 45
M  V30 50 1 10 46
M  V30 51 1 11 47
M  V30 52 1 16 48
M  V30 53 1 18 49
M  V30 54 1 19 50
M  V30 55 1 22 51
M  V30 56 1 22 52
M  V30 57 1 22 53
M  V30 58 1 25 54
M  V30 59 1 25 55
M  V30 60 1 27 56
M  V30 61 1 27 57
M  V30 62 1 28 58
M  V30 63 1 28 59
M  V30 64 1 30 60
M  V30 65 1 30 61
M  V30 66 1 30 62
M  V30 67 1 31 63
M  V30 68 1 31 64
M  V30 69 1 32 65
M  V30 70 1 32 66
M  V30 71 1 33 67
M  V30 72 1 34 68
M  V30 73 1 36 69
M  V30 74 1 37 70
M  V30 75 1 38 71
M  V30 76 1 39 72
M  V30 77 1 40 73
M  V30 END BOND
M  V30 END CTAB
M  END
>  <Dataset>  (68) 
ChEMBL_Kinases

>  <Ligand_Instance>  (68) 
nan

>  <PDB_ID>  (68) 
nan

>  <Standardized_SMILES>  (68) 
COC(=O)c1ccc2c(c1)NC(=O)/C2=C(\Nc1ccc(N(C)C(=O)CN2CCN(C)CC2)cc1)c1ccccc1

>  <Name>  (68) 
NINTEDANIB

>  <Pocket>  (68) 
nan

>  <ATP_Site>  (68) 
nan

>  <Peripheral>  (68) 
nan

>  <Num_H_Atoms_ProtBoundConf>  (68) 
nan

>  <Num_Resolved_Atoms>  (68) 
nan

>  <Num_Not_Resolved_Atoms>  (68) 
nan

$$$$
CHEMBL3137336
     RDKit          3D

  0  0  0  0  0  0  0  0  0  0999 V3000
M  V30 BEGIN CTAB
M  V30 COUNTS 44 46 0 0 0
M  V30 BEGIN ATOM
M  V30 1 C -0.036993 -3.883561 0.862006 0
M  V30 2 N 0.830216 -4.668758 -0.012203 0
M  V30 3 N 0.687038 -5.983812 -0.098157 0
M  V30 4 C 1.588033 -6.479016 -0.954318 0
M  V30 5 C 2.275016 -5.366510 -1.369799 0
M  V30 6 Cl 3.539081 -5.703434 -2.514291 0
M  V30 7 C 1.820964 -4.212496 -0.794316 0
M  V30 8 C 2.291987 -2.865966 -0.985313 0
M  V30 9 C 1.751498 -1.776901 -0.347413 0
M  V30 10 C 2.386317 -0.579500 -0.701703 0
M  V30 11 C 2.205908 0.822061 -0.323234 0
M  V30 12 O 2.921081 1.746072 -0.789932 0
M  V30 13 N 1.159727 1.116990 0.622094 0
M  V30 14 C 0.982812 2.526502 0.998750 0 CFG=2
M  V30 15 C 1.051596 2.643035 2.501541 0
M  V30 16 N 0.898131 3.967520 3.005953 0
M  V30 17 C -0.450417 2.871300 0.588692 0
M  V30 18 C -1.451875 2.022888 1.275562 0
M  V30 19 C -2.068238 2.279305 2.482293 0
M  V30 20 C -2.993726 1.422436 3.039160 0
M  V30 21 C -3.352648 0.255544 2.411566 0
M  V30 22 F -4.265067 -0.558876 2.991279 0
M  V30 23 C -2.765801 -0.048406 1.202026 0
M  V30 24 F -3.136185 -1.192826 0.614680 0
M  V30 25 C -1.843457 0.827115 0.668873 0
M  V30 26 O 3.327671 -0.958416 -1.570663 0
M  V30 27 C 3.263297 -2.257564 -1.722546 0
M  V30 28 Cl 4.379632 -3.024319 -2.803559 0
M  V30 29 H 0.522660 -3.412793 1.704470 0
M  V30 30 H -0.716439 -4.622960 1.383065 0
M  V30 31 H -0.681309 -3.213277 0.289873 0
M  V30 32 H 1.593622 -7.542507 -1.128531 0
M  V30 33 H 0.967817 -1.586397 0.355552 0
M  V30 34 H 0.544934 0.383537 1.035217 0
M  V30 35 H 1.709572 3.162511 0.499453 0
M  V30 36 H 0.327178 1.928985 2.948079 0
M  V30 37 H 2.053947 2.268628 2.858802 0
M  V30 38 H 0.163160 4.540906 2.578805 0
M  V30 39 H 1.818467 4.415751 3.091500 0
M  V30 40 H -0.675766 3.928416 0.830815 0
M  V30 41 H -0.558079 2.771351 -0.513930 0
M  V30 42 H -1.785166 3.199419 2.974650 0
M  V30 43 H -3.436996 1.688130 3.989264 0
M  V30 44 H -1.445314 0.479075 -0.296525 0
M  V30 END ATOM
M  V30 BEGIN BOND
M  V30 1 1 1 2
M  V30 2 1 2 3
M  V30 3 2 3 4
M  V30 4 1 4 5
M  V30 5 1 5 6
M  V30 6 2 5 7
M  V30 7 1 7 8
M  V30 8 1 8 9
M  V30 9 2 9 10
M  V30 10 1 10 11
M  V30 11 2 11 12
M  V30 12 1 11 13
M  V30 13 1 13 14
M  V30 14 1 14 15
M  V30 15 1 15 16
M  V30 16 1 14 17
M  V30 17 1 17 18
M  V30 18 2 18 19
M  V30 19 1 19 20
M  V30 20 2 20 21
M  V30 21 1 21 22
M  V30 22 1 21 23
M  V30 23 1 23 24
M  V30 24 2 23 25
M  V30 25 1 10 26
M  V30 26 1 26 27
M  V30 27 1 27 28
M  V30 28 1 7 2
M  V30 29 2 27 8
M  V30 30 1 25 18
M  V30 31 1 1 29
M  V30 32 1 1 30
M  V30 33 1 1 31
M  V30 34 1 4 32
M  V30 35 1 9 33
M  V30 36 1 13 34
M  V30 37 1 14 35 CFG=3
M  V30 38 1 15 36
M  V30 39 1 15 37
M  V30 40 1 16 38
M  V30 41 1 16 39
M  V30 42 1 17 40
M  V30 43 1 17 41
M  V30 44 1 19 42
M  V30 45 1 20 43
M  V30 46 1 25 44
M  V30 END BOND
M  V30 END CTAB
M  END
>  <Dataset>  (69) 
ChEMBL_Kinases

>  <Ligand_Instance>  (69) 
nan

>  <PDB_ID>  (69) 
nan

>  <Standardized_SMILES>  (69) 
Cn1ncc(Cl)c1-c1cc(C(=O)N[C@H](CN)Cc2ccc(F)c(F)c2)oc1Cl

>  <Name>  (69) 
UPROSERTIB

>  <Pocket>  (69) 
nan

>  <ATP_Site>  (69) 
nan

>  <Peripheral>  (69) 
nan

>  <Num_H_Atoms_ProtBoundConf>  (69) 
nan

>  <Num_Resolved_Atoms>  (69) 
nan

>  <Num_Not_Resolved_Atoms>  (69) 
nan

$$$$
CHEMBL4445812
     RDKit          3D

  0  0  0  0  0  0  0  0  0  0999 V3000
M  V30 BEGIN CTAB
M  V30 COUNTS 42 45 0 0 0
M  V30 BEGIN ATOM
M  V30 1 O 0.588892 -3.729714 0.598643 0
M  V30 2 C 0.162823 -4.236856 1.686731 0
M  V30 3 N -0.165406 -3.282333 2.674976 0
M  V30 4 C 0.094676 -1.976001 2.121946 0
M  V30 5 C 1.384679 -1.545281 2.363235 0
M  V30 6 C 1.776647 -0.307037 1.890164 0
M  V30 7 C 0.853766 0.449069 1.192434 0
M  V30 8 C 1.274501 1.697618 0.724374 0
M  V30 9 C 0.359064 2.457732 0.027261 0
M  V30 10 C 0.821219 3.755299 -0.450462 0
M  V30 11 O 2.000833 4.102705 -0.206878 0
M  V30 12 N 0.024877 4.673506 -1.183763 0
M  V30 13 C 0.817235 5.864163 -1.492591 0
M  V30 14 N 1.489815 6.130722 -2.382924 0
M  V30 15 C 2.174368 7.271936 -2.554720 0
M  V30 16 C 2.042181 8.236099 -1.521553 0
M  V30 17 S 0.901193 7.381254 -0.351078 0
M  V30 18 C -0.926041 2.014646 -0.206199 0
M  V30 19 C -1.356042 0.772866 0.255260 0
M  V30 20 C -0.433501 0.014106 0.954203 0
M  V30 21 C -0.834018 -1.228618 1.426475 0
M  V30 22 C 0.056675 -5.699139 1.808816 0
M  V30 23 C 0.444778 -6.402813 0.687632 0
M  V30 24 C 0.362392 -7.797604 0.753391 0
M  V30 25 C -0.096582 -8.411335 1.918033 0
M  V30 26 Cl -0.160737 -10.158278 1.895501 0
M  V30 27 C -0.466251 -7.633576 2.997959 0
M  V30 28 Cl -1.017171 -8.520487 4.379133 0
M  V30 29 C -0.396494 -6.250990 2.964766 0
M  V30 30 H -0.523462 -3.678696 3.592702 0
M  V30 31 H 2.130971 -2.111761 2.905283 0
M  V30 32 H 2.797977 0.049100 2.073736 0
M  V30 33 H 2.289938 2.012206 0.926382 0
M  V30 34 H -0.949190 4.419672 -1.401180 0
M  V30 35 H 2.770738 7.355469 -3.473184 0
M  V30 36 H 2.612690 9.186901 -1.664976 0
M  V30 37 H -1.638783 2.612912 -0.752148 0
M  V30 38 H -2.355682 0.414632 0.080352 0
M  V30 39 H -1.819887 -1.656419 1.290739 0
M  V30 40 H 0.802264 -5.972967 -0.224871 0
M  V30 41 H 0.663174 -8.367244 -0.118246 0
M  V30 42 H -0.694231 -5.698014 3.826356 0
M  V30 END ATOM
M  V30 BEGIN BOND
M  V30 1 2 1 2
M  V30 2 1 2 3
M  V30 3 1 3 4
M  V30 4 2 4 5
M  V30 5 1 5 6
M  V30 6 2 6 7
M  V30 7 1 7 8
M  V30 8 2 8 9
M  V30 9 1 9 10
M  V30 10 2 10 11
M  V30 11 1 10 12
M  V30 12 1 12 13
M  V30 13 2 13 14
M  V30 14 1 14 15
M  V30 15 2 15 16
M  V30 16 1 16 17
M  V30 17 1 9 18
M  V30 18 2 18 19
M  V30 19 1 19 20
M  V30 20 2 20 21
M  V30 21 1 2 22
M  V30 22 2 22 23
M  V30 23 1 23 24
M  V30 24 2 24 25
M  V30 25 1 25 26
M  V30 26 1 25 27
M  V30 27 1 27 28
M  V30 28 2 27 29
M  V30 29 1 21 4
M  V30 30 1 29 22
M  V30 31 1 20 7
M  V30 32 1 17 13
M  V30 33 1 3 30
M  V30 34 1 5 31
M  V30 35 1 6 32
M  V30 36 1 8 33
M  V30 37 1 12 34
M  V30 38 1 15 35
M  V30 39 1 16 36
M  V30 40 1 18 37
M  V30 41 1 19 38
M  V30 42 1 21 39
M  V30 43 1 23 40
M  V30 44 1 24 41
M  V30 45 1 29 42
M  V30 END BOND
M  V30 END CTAB
M  END
>  <Dataset>  (70) 
ChEMBL_Kinases

>  <Ligand_Instance>  (70) 
nan

>  <PDB_ID>  (70) 
nan

>  <Standardized_SMILES>  (70) 
O=C(Nc1ccc2cc(C(=O)Nc3nccs3)ccc2c1)c1ccc(Cl)c(Cl)c1

>  <Name>  (70) 
nan

>  <Pocket>  (70) 
nan

>  <ATP_Site>  (70) 
nan

>  <Peripheral>  (70) 
nan

>  <Num_H_Atoms_ProtBoundConf>  (70) 
nan

>  <Num_Resolved_Atoms>  (70) 
nan

>  <Num_Not_Resolved_Atoms>  (70) 
nan

$$$$
CHEMBL1287853
     RDKit          3D

  0  0  0  0  0  0  0  0  0  0999 V3000
M  V30 BEGIN CTAB
M  V30 COUNTS 73 76 0 0 0
M  V30 BEGIN ATOM
M  V30 1 C 2.670109 -3.800443 4.811923 0
M  V30 2 C 2.795712 -2.393248 4.405098 0
M  V30 3 C 2.925116 -1.290231 5.222581 0
M  V30 4 N 3.030483 -0.068078 4.724819 0
M  V30 5 C 3.017947 0.186967 3.385670 0
M  V30 6 N 3.104794 1.474071 2.761309 0
M  V30 7 C 1.840627 2.026610 2.422226 0
M  V30 8 C 0.681434 1.365630 2.765957 0
M  V30 9 C -0.568230 1.895431 2.416146 0
M  V30 10 C -0.592081 3.088128 1.724155 0
M  V30 11 O -1.701113 3.629370 1.371097 0
M  V30 12 C -2.825370 4.176564 1.014054 0
M  V30 13 C -3.747351 3.367910 0.097786 0
M  V30 14 N -3.113769 3.055631 -1.149322 0
M  V30 15 C -2.056085 2.125800 -1.030343 0
M  V30 16 C -2.155262 1.103798 -2.151980 0
M  V30 17 C -3.412524 1.437595 -2.881705 0
M  V30 18 C -4.070705 2.518790 -2.079282 0
M  V30 19 C 0.587608 3.757589 1.377478 0
M  V30 20 C 1.830400 3.218700 1.731976 0
M  V30 21 N 2.891738 -0.877145 2.538904 0
M  V30 22 C 2.783458 -2.134672 3.043126 0
M  V30 23 N 2.646225 -3.088168 1.975143 0
M  V30 24 C 1.304667 -3.223678 1.561709 0
M  V30 25 C 0.224442 -2.637176 2.184630 0
M  V30 26 C -1.102094 -2.716661 1.830874 0
M  V30 27 C -1.367058 -3.486866 0.704975 0
M  V30 28 C -0.351922 -4.116937 0.008708 0
M  V30 29 S -0.830440 -5.051685 -1.388924 0
M  V30 30 O 0.102360 -6.221547 -1.496318 0
M  V30 31 O -2.194820 -5.651240 -1.094229 0
M  V30 32 N -0.971269 -4.142898 -2.793553 0
M  V30 33 C 0.163573 -3.477711 -3.306624 0
M  V30 34 C 0.812009 -2.467583 -2.419335 0
M  V30 35 C -0.331470 -2.730383 -4.560608 0
M  V30 36 C 1.238522 -4.404776 -3.837479 0
M  V30 37 C 0.946331 -3.969807 0.452346 0
M  V30 38 H 3.026113 -4.468617 4.026933 0
M  V30 39 H 3.355480 -3.977560 5.690901 0
M  V30 40 H 1.622977 -3.999315 5.140763 0
M  V30 41 H 2.936594 -1.485183 6.284041 0
M  V30 42 H 4.000057 1.964759 2.572329 0
M  V30 43 H 0.667698 0.415244 3.316375 0
M  V30 44 H -1.486051 1.374818 2.685837 0
M  V30 45 H -2.644935 5.140783 0.441077 0
M  V30 46 H -3.459688 4.431491 1.920411 0
M  V30 47 H -4.014305 2.459837 0.686711 0
M  V30 48 H -4.679676 3.964967 -0.037928 0
M  V30 49 H -2.213176 1.559579 -0.076029 0
M  V30 50 H -1.065981 2.627364 -1.067661 0
M  V30 51 H -2.240190 0.054601 -1.752494 0
M  V30 52 H -1.250579 1.123115 -2.814763 0
M  V30 53 H -4.116862 0.562804 -2.913516 0
M  V30 54 H -3.247791 1.702185 -3.948217 0
M  V30 55 H -4.904472 2.092986 -1.448897 0
M  V30 56 H -4.516687 3.314468 -2.725279 0
M  V30 57 H 0.574692 4.690873 0.837551 0
M  V30 58 H 2.747576 3.732383 1.464811 0
M  V30 59 H 3.358702 -3.657070 1.494936 0
M  V30 60 H 0.416722 -2.026551 3.074329 0
M  V30 61 H -1.874703 -2.214362 2.391792 0
M  V30 62 H -2.407376 -3.565425 0.404029 0
M  V30 63 H -1.543521 -4.533230 -3.543326 0
M  V30 64 H 1.049198 -1.560008 -3.011489 0
M  V30 65 H 0.148286 -2.104268 -1.607223 0
M  V30 66 H 1.786463 -2.859683 -2.075299 0
M  V30 67 H -1.377272 -2.387282 -4.440541 0
M  V30 68 H -0.268058 -3.335917 -5.463510 0
M  V30 69 H 0.281589 -1.821622 -4.734037 0
M  V30 70 H 0.976628 -4.783776 -4.857586 0
M  V30 71 H 1.560549 -5.173173 -3.134946 0
M  V30 72 H 2.137511 -3.750569 -4.020958 0
M  V30 73 H 1.699233 -4.491920 -0.138987 0
M  V30 END ATOM
M  V30 BEGIN BOND
M  V30 1 1 1 2
M  V30 2 2 2 3
M  V30 3 1 3 4
M  V30 4 2 4 5
M  V30 5 1 5 6
M  V30 6 1 6 7
M  V30 7 2 7 8
M  V30 8 1 8 9
M  V30 9 2 9 10
M  V30 10 1 10 11
M  V30 11 1 11 12
M  V30 12 1 12 13
M  V30 13 1 13 14
M  V30 14 1 14 15
M  V30 15 1 15 16
M  V30 16 1 16 17
M  V30 17 1 17 18
M  V30 18 1 10 19
M  V30 19 2 19 20
M  V30 20 1 5 21
M  V30 21 2 21 22
M  V30 22 1 22 23
M  V30 23 1 23 24
M  V30 24 2 24 25
M  V30 25 1 25 26
M  V30 26 2 26 27
M  V30 27 1 27 28
M  V30 28 1 28 29
M  V30 29 2 29 30
M  V30 30 2 29 31
M  V30 31 1 29 32
M  V30 32 1 32 33
M  V30 33 1 33 34
M  V30 34 1 33 35
M  V30 35 1 33 36
M  V30 36 2 28 37
M  V30 37 1 22 2
M  V30 38 1 37 24
M  V30 39 1 20 7
M  V30 40 1 18 14
M  V30 41 1 1 38
M  V30 42 1 1 39
M  V30 43 1 1 40
M  V30 44 1 3 41
M  V30 45 1 6 42
M  V30 46 1 8 43
M  V30 47 1 9 44
M  V30 48 1 12 45
M  V30 49 1 12 46
M  V30 50 1 13 47
M  V30 51 1 13 48
M  V30 52 1 15 49
M  V30 53 1 15 50
M  V30 54 1 16 51
M  V30 55 1 16 52
M  V30 56 1 17 53
M  V30 57 1 17 54
M  V30 58 1 18 55
M  V30 59 1 18 56
M  V30 60 1 19 57
M  V30 61 1 20 58
M  V30 62 1 23 59
M  V30 63 1 25 60
M  V30 64 1 26 61
M  V30 65 1 27 62
M  V30 66 1 32 63
M  V30 67 1 34 64
M  V30 68 1 34 65
M  V30 69 1 34 66
M  V30 70 1 35 67
M  V30 71 1 35 68
M  V30 72 1 35 69
M  V30 73 1 36 70
M  V30 74 1 36 71
M  V30 75 1 36 72
M  V30 76 1 37 73
M  V30 END BOND
M  V30 END CTAB
M  END
>  <Dataset>  (71) 
ChEMBL_Kinases

>  <Ligand_Instance>  (71) 
nan

>  <PDB_ID>  (71) 
nan

>  <Standardized_SMILES>  (71) 
Cc1cnc(Nc2ccc(OCCN3CCCC3)cc2)nc1Nc1cccc(S(=O)(=O)NC(C)(C)C)c1

>  <Name>  (71) 
FEDRATINIB

>  <Pocket>  (71) 
nan

>  <ATP_Site>  (71) 
nan

>  <Peripheral>  (71) 
nan

>  <Num_H_Atoms_ProtBoundConf>  (71) 
nan

>  <Num_Resolved_Atoms>  (71) 
nan

>  <Num_Not_Resolved_Atoms>  (71) 
nan

$$$$
CHEMBL3991933
     RDKit          3D

  0  0  0  0  0  0  0  0  0  0999 V3000
M  V30 BEGIN CTAB
M  V30 COUNTS 39 42 0 0 0
M  V30 BEGIN ATOM
M  V30 1 C -2.488015 -5.937465 3.325670 0
M  V30 2 C -1.807452 -4.629457 3.133517 0
M  V30 3 N -1.503630 -4.082072 1.919330 0
M  V30 4 C -0.898106 -2.905175 2.153881 0
M  V30 5 C -0.374391 -1.921256 1.342379 0
M  V30 6 C 0.229034 -0.742041 1.799285 0
M  V30 7 C 0.714225 0.203377 0.806139 0
M  V30 8 N -0.143259 0.543412 -0.179872 0
M  V30 9 N 0.485203 1.395789 -0.970884 0
M  V30 10 C -0.102096 2.011462 -2.171202 0
M  V30 11 C -0.089609 0.954566 -3.255930 0
M  V30 12 C -1.531164 2.447480 -1.879601 0
M  V30 13 C 1.739116 1.660849 -0.577498 0
M  V30 14 N 2.791659 2.385804 -0.945771 0
M  V30 15 C 3.948870 2.359243 -0.220526 0
M  V30 16 N 4.066864 1.591487 0.902761 0
M  V30 17 C 3.017034 0.848478 1.297793 0
M  V30 18 N 3.168209 0.046298 2.459761 0
M  V30 19 C 1.863494 0.890301 0.555577 0
M  V30 20 C 0.261801 -0.632431 3.172032 0
M  V30 21 C -0.245838 -1.584705 4.027133 0
M  V30 22 C -0.828253 -2.726038 3.518752 0
M  V30 23 O -1.387442 -3.787917 4.074051 0
M  V30 24 H -3.588536 -5.853416 3.118243 0
M  V30 25 H -2.113135 -6.665886 2.557105 0
M  V30 26 H -2.272612 -6.389664 4.294984 0
M  V30 27 H -0.458654 -2.118665 0.277965 0
M  V30 28 H 0.443613 2.932945 -2.454137 0
M  V30 29 H 0.354547 0.003493 -2.909899 0
M  V30 30 H 0.437901 1.349343 -4.136999 0
M  V30 31 H -1.128164 0.706757 -3.588244 0
M  V30 32 H -2.172176 2.225555 -2.749905 0
M  V30 33 H -1.972916 1.920234 -1.024903 0
M  V30 34 H -1.580566 3.531335 -1.661657 0
M  V30 35 H 4.821436 2.937673 -0.494515 0
M  V30 36 H 3.403600 0.516174 3.363675 0
M  V30 37 H 3.004057 -0.966469 2.190250 0
M  V30 38 H 0.698053 0.254151 3.582588 0
M  V30 39 H -0.175738 -1.414354 5.094782 0
M  V30 END ATOM
M  V30 BEGIN BOND
M  V30 1 1 1 2
M  V30 2 2 2 3
M  V30 3 1 3 4
M  V30 4 2 4 5
M  V30 5 1 5 6
M  V30 6 1 6 7
M  V30 7 2 7 8
M  V30 8 1 8 9
M  V30 9 1 9 10
M  V30 10 1 10 11
M  V30 11 1 10 12
M  V30 12 1 9 13
M  V30 13 2 13 14
M  V30 14 1 14 15
M  V30 15 2 15 16
M  V30 16 1 16 17
M  V30 17 1 17 18
M  V30 18 2 17 19
M  V30 19 2 6 20
M  V30 20 1 20 21
M  V30 21 2 21 22
M  V30 22 1 22 23
M  V30 23 1 23 2
M  V30 24 1 22 4
M  V30 25 1 19 7
M  V30 26 1 19 13
M  V30 27 1 1 24
M  V30 28 1 1 25
M  V30 29 1 1 26
M  V30 30 1 5 27
M  V30 31 1 10 28
M  V30 32 1 11 29
M  V30 33 1 11 30
M  V30 34 1 11 31
M  V30 35 1 12 32
M  V30 36 1 12 33
M  V30 37 1 12 34
M  V30 38 1 15 35
M  V30 39 1 18 36
M  V30 40 1 18 37
M  V30 41 1 20 38
M  V30 42 1 21 39
M  V30 END BOND
M  V30 END CTAB
M  END
>  <Dataset>  (72) 
ChEMBL_Kinases

>  <Ligand_Instance>  (72) 
nan

>  <PDB_ID>  (72) 
nan

>  <Standardized_SMILES>  (72) 
Cc1nc2cc(-c3nn(C(C)C)c4ncnc(N)c34)ccc2o1

>  <Name>  (72) 
nan

>  <Pocket>  (72) 
nan

>  <ATP_Site>  (72) 
nan

>  <Peripheral>  (72) 
nan

>  <Num_H_Atoms_ProtBoundConf>  (72) 
nan

>  <Num_Resolved_Atoms>  (72) 
nan

>  <Num_Not_Resolved_Atoms>  (72) 
nan

$$$$
CHEMBL939
     RDKit          3D

  0  0  0  0  0  0  0  0  0  0999 V3000
M  V30 BEGIN CTAB
M  V30 COUNTS 55 58 0 0 0
M  V30 BEGIN ATOM
M  V30 1 C -0.200954 0.065252 6.322085 0
M  V30 2 O -0.402239 -0.484119 5.032798 0
M  V30 3 C 0.600374 -0.336831 4.082461 0
M  V30 4 C 1.755714 0.331190 4.406218 0
M  V30 5 C 2.756758 0.481208 3.465804 0
M  V30 6 N 3.877185 1.136412 3.800697 0
M  V30 7 C 4.864304 1.290916 2.892014 0
M  V30 8 N 4.776081 0.808344 1.638454 0
M  V30 9 C 3.655039 0.141847 1.272246 0
M  V30 10 N 3.399507 -0.427323 0.000711 0
M  V30 11 C 2.763556 0.395890 -0.958395 0
M  V30 12 C 2.417678 1.691895 -0.644469 0
M  V30 13 C 1.797225 2.560998 -1.515246 0
M  V30 14 C 1.527485 2.038460 -2.780693 0
M  V30 15 F 0.918256 2.862361 -3.664793 0
M  V30 16 C 1.846133 0.749795 -3.163177 0
M  V30 17 Cl 1.452025 0.208492 -4.793259 0
M  V30 18 C 2.474030 -0.085097 -2.237985 0
M  V30 19 C 2.631105 -0.028138 2.187153 0
M  V30 20 C 1.455910 -0.697845 1.885722 0
M  V30 21 C 0.439583 -0.861483 2.808224 0
M  V30 22 O -0.735992 -1.515670 2.551495 0
M  V30 23 C -1.077194 -2.113013 1.316728 0
M  V30 24 C -2.433334 -2.754446 1.342958 0
M  V30 25 C -2.762590 -3.389061 -0.014119 0
M  V30 26 N -2.753984 -2.389233 -1.045306 0
M  V30 27 C -3.059442 -2.934096 -2.353342 0
M  V30 28 C -2.658299 -1.892532 -3.376693 0
M  V30 29 O -3.127449 -0.658901 -2.944632 0
M  V30 30 C -4.192235 -0.778204 -2.067282 0
M  V30 31 C -3.717081 -1.352519 -0.746180 0
M  V30 32 H -1.028170 -0.262663 7.005330 0
M  V30 33 H -0.265065 1.180727 6.225654 0
M  V30 34 H 0.745321 -0.251407 6.758076 0
M  V30 35 H 1.895634 0.747909 5.401618 0
M  V30 36 H 5.758171 1.826945 3.197075 0
M  V30 37 H 3.655128 -1.406424 -0.252107 0
M  V30 38 H 2.637575 2.074380 0.344251 0
M  V30 39 H 1.542177 3.559148 -1.241902 0
M  V30 40 H 2.728383 -1.096669 -2.526505 0
M  V30 41 H 1.334649 -1.106434 0.887966 0
M  V30 42 H -0.323956 -2.890034 1.066705 0
M  V30 43 H -1.043188 -1.347400 0.515853 0
M  V30 44 H -2.479092 -3.543089 2.121725 0
M  V30 45 H -3.190224 -1.968568 1.578286 0
M  V30 46 H -1.960690 -4.135024 -0.224297 0
M  V30 47 H -3.758277 -3.871275 0.061932 0
M  V30 48 H -4.120329 -3.225979 -2.480785 0
M  V30 49 H -2.465821 -3.867079 -2.551160 0
M  V30 50 H -3.031805 -2.137818 -4.390455 0
M  V30 51 H -1.529959 -1.849825 -3.403946 0
M  V30 52 H -4.627967 0.246079 -1.930743 0
M  V30 53 H -5.023047 -1.397662 -2.424515 0
M  V30 54 H -3.226413 -0.560657 -0.173935 0
M  V30 55 H -4.565106 -1.722666 -0.157069 0
M  V30 END ATOM
M  V30 BEGIN BOND
M  V30 1 1 1 2
M  V30 2 1 2 3
M  V30 3 2 3 4
M  V30 4 1 4 5
M  V30 5 2 5 6
M  V30 6 1 6 7
M  V30 7 2 7 8
M  V30 8 1 8 9
M  V30 9 1 9 10
M  V30 10 1 10 11
M  V30 11 2 11 12
M  V30 12 1 12 13
M  V30 13 2 13 14
M  V30 14 1 14 15
M  V30 15 1 14 16
M  V30 16 1 16 17
M  V30 17 2 16 18
M  V30 18 2 9 19
M  V30 19 1 19 20
M  V30 20 2 20 21
M  V30 21 1 21 22
M  V30 22 1 22 23
M  V30 23 1 23 24
M  V30 24 1 24 25
M  V30 25 1 25 26
M  V30 26 1 26 27
M  V30 27 1 27 28
M  V30 28 1 28 29
M  V30 29 1 29 30
M  V30 30 1 30 31
M  V30 31 1 21 3
M  V30 32 1 31 26
M  V30 33 1 19 5
M  V30 34 1 18 11
M  V30 35 1 1 32
M  V30 36 1 1 33
M  V30 37 1 1 34
M  V30 38 1 4 35
M  V30 39 1 7 36
M  V30 40 1 10 37
M  V30 41 1 12 38
M  V30 42 1 13 39
M  V30 43 1 18 40
M  V30 44 1 20 41
M  V30 45 1 23 42
M  V30 46 1 23 43
M  V30 47 1 24 44
M  V30 48 1 24 45
M  V30 49 1 25 46
M  V30 50 1 25 47
M  V30 51 1 27 48
M  V30 52 1 27 49
M  V30 53 1 28 50
M  V30 54 1 28 51
M  V30 55 1 30 52
M  V30 56 1 30 53
M  V30 57 1 31 54
M  V30 58 1 31 55
M  V30 END BOND
M  V30 END CTAB
M  END
>  <Dataset>  (73) 
ChEMBL_Kinases

>  <Ligand_Instance>  (73) 
nan

>  <PDB_ID>  (73) 
nan

>  <Standardized_SMILES>  (73) 
COc1cc2ncnc(Nc3ccc(F)c(Cl)c3)c2cc1OCCCN1CCOCC1

>  <Name>  (73) 
GEFITINIB

>  <Pocket>  (73) 
nan

>  <ATP_Site>  (73) 
nan

>  <Peripheral>  (73) 
nan

>  <Num_H_Atoms_ProtBoundConf>  (73) 
nan

>  <Num_Resolved_Atoms>  (73) 
nan

>  <Num_Not_Resolved_Atoms>  (73) 
nan

$$$$
CHEMBL274654
     RDKit          3D

  0  0  0  0  0  0  0  0  0  0999 V3000
M  V30 BEGIN CTAB
M  V30 COUNTS 41 43 0 0 0
M  V30 BEGIN ATOM
M  V30 1 C 0.832174 -4.006012 2.885835 0
M  V30 2 C 0.511841 -2.729512 2.177544 0
M  V30 3 N 1.338451 -1.839909 1.616950 0
M  V30 4 C 0.666704 -0.843301 1.039796 0
M  V30 5 C 1.305199 0.306704 0.405801 0
M  V30 6 C 1.410065 0.625959 -0.871993 0
M  V30 7 C 0.885686 -0.153856 -1.967304 0
M  V30 8 O 0.262449 -1.252049 -1.788124 0
M  V30 9 N 1.186448 0.521772 -3.157930 0
M  V30 10 C 1.891166 1.695531 -2.766934 0
M  V30 11 C 2.397588 2.678015 -3.584087 0
M  V30 12 C 3.073058 3.798122 -3.089808 0
M  V30 13 C 3.208843 3.862648 -1.693441 0
M  V30 14 C 2.710636 2.895537 -0.868584 0
M  V30 15 C 2.058835 1.818729 -1.406761 0
M  V30 16 C -0.678978 -1.168171 1.276105 0
M  V30 17 C -1.791260 -0.266533 0.800091 0
M  V30 18 C -0.808877 -2.347618 1.990852 0
M  V30 19 C -2.093615 -2.865788 2.451640 0
M  V30 20 C -2.535437 -2.384611 3.775117 0
M  V30 21 C -1.709248 -2.609855 4.948364 0
M  V30 22 O -2.294795 -1.967794 5.911515 0
M  V30 23 O -0.950496 -2.809898 6.051292 0
M  V30 24 H 0.050858 -4.315157 3.568361 0
M  V30 25 H 1.804933 -3.991550 3.364194 0
M  V30 26 H 0.862610 -4.814226 2.064329 0
M  V30 27 H 2.382969 -1.883125 1.617038 0
M  V30 28 H 1.754904 1.011206 1.134358 0
M  V30 29 H 0.925560 0.150131 -4.080704 0
M  V30 30 H 2.305077 2.659146 -4.636784 0
M  V30 31 H 3.492570 4.614740 -3.629640 0
M  V30 32 H 3.707587 4.699307 -1.229748 0
M  V30 33 H 2.834717 2.977459 0.192788 0
M  V30 34 H -2.088364 0.466482 1.614193 0
M  V30 35 H -1.388147 0.395661 -0.026021 0
M  V30 36 H -2.651478 -0.791882 0.428238 0
M  V30 37 H -2.052518 -3.997830 2.502818 0
M  V30 38 H -2.902437 -2.645234 1.729268 0
M  V30 39 H -3.537276 -2.867007 4.009311 0
M  V30 40 H -2.841493 -1.287524 3.680407 0
M  V30 41 H 0.016327 -2.434760 6.116743 0
M  V30 END ATOM
M  V30 BEGIN BOND
M  V30 1 1 1 2
M  V30 2 1 2 3
M  V30 3 1 3 4
M  V30 4 1 4 5
M  V30 5 2 5 6
M  V30 6 1 6 7
M  V30 7 2 7 8
M  V30 8 1 7 9
M  V30 9 1 9 10
M  V30 10 2 10 11
M  V30 11 1 11 12
M  V30 12 2 12 13
M  V30 13 1 13 14
M  V30 14 2 14 15
M  V30 15 2 4 16
M  V30 16 1 16 17
M  V30 17 1 16 18
M  V30 18 1 18 19
M  V30 19 1 19 20
M  V30 20 1 20 21
M  V30 21 2 21 22
M  V30 22 1 21 23
M  V30 23 2 18 2
M  V30 24 1 15 6
M  V30 25 1 15 10
M  V30 26 1 1 24
M  V30 27 1 1 25
M  V30 28 1 1 26
M  V30 29 1 3 27
M  V30 30 1 5 28
M  V30 31 1 9 29
M  V30 32 1 11 30
M  V30 33 1 12 31
M  V30 34 1 13 32
M  V30 35 1 14 33
M  V30 36 1 17 34
M  V30 37 1 17 35
M  V30 38 1 17 36
M  V30 39 1 19 37
M  V30 40 1 19 38
M  V30 41 1 20 39
M  V30 42 1 20 40
M  V30 43 1 23 41
M  V30 END BOND
M  V30 END CTAB
M  END
>  <Dataset>  (74) 
ChEMBL_Kinases

>  <Ligand_Instance>  (74) 
nan

>  <PDB_ID>  (74) 
nan

>  <Standardized_SMILES>  (74) 
Cc1[nH]c(/C=C2\C(=O)Nc3ccccc32)c(C)c1CCC(=O)O

>  <Name>  (74) 
ORANTINIB

>  <Pocket>  (74) 
nan

>  <ATP_Site>  (74) 
nan

>  <Peripheral>  (74) 
nan

>  <Num_H_Atoms_ProtBoundConf>  (74) 
nan

>  <Num_Resolved_Atoms>  (74) 
nan

>  <Num_Not_Resolved_Atoms>  (74) 
nan

$$$$
CHEMBL3545328
     RDKit          3D

  0  0  0  0  0  0  0  0  0  0999 V3000
M  V30 BEGIN CTAB
M  V30 COUNTS 61 65 0 0 0
M  V30 BEGIN ATOM
M  V30 1 O 2.475804 -4.728565 -4.290739 0
M  V30 2 C 1.369367 -4.936799 -3.736612 0
M  V30 3 N 0.895986 -4.113440 -2.712903 0
M  V30 4 C 1.511316 -2.980858 -2.145643 0
M  V30 5 C 0.829512 -2.336696 -1.136891 0
M  V30 6 C 1.355090 -1.217123 -0.521354 0
M  V30 7 C 2.574688 -0.678046 -0.867932 0
M  V30 8 C 3.104033 0.501009 -0.200099 0
M  V30 9 C 4.322790 1.027164 -0.553080 0
M  V30 10 C 4.808803 2.142018 0.092006 0
M  V30 11 N 4.079589 2.706171 1.066551 0
M  V30 12 C 2.878545 2.217295 1.440036 0
M  V30 13 N 2.193459 2.885404 2.484970 0
M  V30 14 C 0.936146 2.617920 3.057890 0
M  V30 15 C 0.434284 3.329058 4.132783 0
M  V30 16 C -0.794213 3.068618 4.687111 0
M  V30 17 C -1.618209 2.058936 4.192457 0
M  V30 18 N -2.898881 1.788441 4.777629 0
M  V30 19 C -3.701462 0.758653 4.121526 0
M  V30 20 C -5.006956 0.642035 4.873376 0
M  V30 21 O -5.440575 1.899143 5.297343 0
M  V30 22 C -4.645244 2.205924 6.407706 0
M  V30 23 C -3.246438 2.577543 5.968534 0
M  V30 24 C -1.140277 1.335738 3.120652 0
M  V30 25 C 0.090374 1.632961 2.602991 0
M  V30 26 N 2.466739 1.147313 0.784427 0
M  V30 27 C 3.268380 -1.309474 -1.873853 0
M  V30 28 C 2.725518 -2.427993 -2.476982 0
M  V30 29 C 0.757229 -6.133420 -4.361988 0
M  V30 30 C 0.423553 -5.728037 -5.792574 0
M  V30 31 C -0.874526 -4.955049 -5.629632 0
M  V30 32 C -1.514487 -5.625460 -4.444991 0
M  V30 33 N -0.529752 -6.482129 -3.827037 0
M  V30 34 H -0.033353 -4.452769 -2.386168 0
M  V30 35 H -0.152021 -2.718045 -0.812927 0
M  V30 36 H 0.751007 -0.779354 0.258903 0
M  V30 37 H 4.956307 0.641550 -1.308578 0
M  V30 38 H 5.768346 2.624986 -0.126859 0
M  V30 39 H 2.676304 3.724463 2.927842 0
M  V30 40 H 1.044819 4.137750 4.561733 0
M  V30 41 H -1.107379 3.673640 5.524645 0
M  V30 42 H -3.105338 -0.190746 4.218635 0
M  V30 43 H -3.873639 1.000342 3.043299 0
M  V30 44 H -5.746465 0.198823 4.153677 0
M  V30 45 H -4.897577 -0.035589 5.756214 0
M  V30 46 H -5.091105 2.971704 7.065853 0
M  V30 47 H -4.624076 1.253310 7.012019 0
M  V30 48 H -2.542116 2.194773 6.763884 0
M  V30 49 H -3.131853 3.657672 5.809533 0
M  V30 50 H -1.785736 0.554392 2.742201 0
M  V30 51 H 0.352530 1.007388 1.776257 0
M  V30 52 H 4.217000 -0.977441 -2.219102 0
M  V30 53 H 3.293037 -2.895133 -3.257289 0
M  V30 54 H 1.465375 -6.995800 -4.354208 0
M  V30 55 H 0.359641 -6.567046 -6.484588 0
M  V30 56 H 1.259568 -5.058774 -6.135150 0
M  V30 57 H -0.690625 -3.880931 -5.423922 0
M  V30 58 H -1.478419 -5.014631 -6.543559 0
M  V30 59 H -1.944208 -4.872819 -3.764224 0
M  V30 60 H -2.365990 -6.260008 -4.828201 0
M  V30 61 H -0.692038 -7.490579 -4.070171 0
M  V30 END ATOM
M  V30 BEGIN BOND
M  V30 1 2 1 2
M  V30 2 1 2 3
M  V30 3 1 3 4
M  V30 4 2 4 5
M  V30 5 1 5 6
M  V30 6 2 6 7
M  V30 7 1 7 8
M  V30 8 2 8 9
M  V30 9 1 9 10
M  V30 10 2 10 11
M  V30 11 1 11 12
M  V30 12 1 12 13
M  V30 13 1 13 14
M  V30 14 2 14 15
M  V30 15 1 15 16
M  V30 16 2 16 17
M  V30 17 1 17 18
M  V30 18 1 18 19
M  V30 19 1 19 20
M  V30 20 1 20 21
M  V30 21 1 21 22
M  V30 22 1 22 23
M  V30 23 1 17 24
M  V30 24 2 24 25
M  V30 25 2 12 26
M  V30 26 1 7 27
M  V30 27 2 27 28
M  V30 28 1 2 29
M  V30 29 1 29 30
M  V30 30 1 30 31
M  V30 31 1 31 32
M  V30 32 1 32 33
M  V30 33 1 28 4
M  V30 34 1 33 29
M  V30 35 1 26 8
M  V30 36 1 25 14
M  V30 37 1 23 18
M  V30 38 1 3 34
M  V30 39 1 5 35
M  V30 40 1 6 36
M  V30 41 1 9 37
M  V30 42 1 10 38
M  V30 43 1 13 39
M  V30 44 1 15 40
M  V30 45 1 16 41
M  V30 46 1 19 42
M  V30 47 1 19 43
M  V30 48 1 20 44
M  V30 49 1 20 45
M  V30 50 1 22 46
M  V30 51 1 22 47
M  V30 52 1 23 48
M  V30 53 1 23 49
M  V30 54 1 24 50
M  V30 55 1 25 51
M  V30 56 1 27 52
M  V30 57 1 28 53
M  V30 58 1 29 54
M  V30 59 1 30 55
M  V30 60 1 30 56
M  V30 61 1 31 57
M  V30 62 1 31 58
M  V30 63 1 32 59
M  V30 64 1 32 60
M  V30 65 1 33 61
M  V30 END BOND
M  V30 END CTAB
M  END
>  <Dataset>  (75) 
ChEMBL_Kinases

>  <Ligand_Instance>  (75) 
nan

>  <PDB_ID>  (75) 
nan

>  <Standardized_SMILES>  (75) 
O=C(Nc1ccc(-c2ccnc(Nc3ccc(N4CCOCC4)cc3)n2)cc1)C1CCCN1

>  <Name>  (75) 
XL-019

>  <Pocket>  (75) 
nan

>  <ATP_Site>  (75) 
nan

>  <Peripheral>  (75) 
nan

>  <Num_H_Atoms_ProtBoundConf>  (75) 
nan

>  <Num_Resolved_Atoms>  (75) 
nan

>  <Num_Not_Resolved_Atoms>  (75) 
nan

$$$$
CHEMBL475251
     RDKit          3D

  0  0  0  0  0  0  0  0  0  0999 V3000
M  V30 BEGIN CTAB
M  V30 COUNTS 57 60 0 0 0
M  V30 BEGIN ATOM
M  V30 1 C 4.689006 -3.241638 1.143637 0
M  V30 2 O 4.118893 -2.758460 -0.043321 0
M  V30 3 C 3.410035 -1.565189 -0.045203 0
M  V30 4 C 3.199185 -0.763516 1.062210 0
M  V30 5 C 2.484400 0.403507 0.992016 0
M  V30 6 N 2.228585 1.230389 2.117526 0
M  V30 7 C 1.393148 2.373001 1.970821 0
M  V30 8 N 1.658255 3.711657 1.950995 0
M  V30 9 C 0.622648 4.584669 1.782788 0
M  V30 10 C -0.680540 4.154844 1.633938 0
M  V30 11 F -1.664947 5.085436 1.467997 0
M  V30 12 C -0.944915 2.784556 1.655265 0
M  V30 13 N -2.301676 2.320950 1.532434 0
M  V30 14 C -2.611043 0.941810 1.313735 0
M  V30 15 C -1.651061 0.246741 0.568317 0
M  V30 16 C -1.683034 -1.094791 0.250641 0
M  V30 17 C -2.778023 -1.799116 0.722229 0
M  V30 18 C -3.714422 -1.100043 1.452828 0
M  V30 19 N -3.629046 0.206787 1.731093 0
M  V30 20 N -4.839932 -1.820042 1.948655 0
M  V30 21 C -4.868695 -3.224897 1.622758 0
M  V30 22 O -5.819207 -3.989560 1.978764 0
M  V30 23 C -3.850484 -3.999950 0.856517 0
M  V30 24 C -3.181160 -5.046245 1.718207 0
M  V30 25 C -4.473886 -4.601667 -0.388736 0
M  V30 26 O -2.808753 -3.151042 0.399158 0
M  V30 27 N 0.126774 2.002261 1.823540 0
M  V30 28 C 1.991748 0.727931 -0.254343 0
M  V30 29 C 2.177794 -0.046276 -1.400405 0
M  V30 30 O 1.607666 0.434928 -2.571896 0
M  V30 31 C 0.882975 1.634633 -2.640844 0
M  V30 32 C 2.888472 -1.194443 -1.291410 0
M  V30 33 O 3.041267 -1.913820 -2.439183 0
M  V30 34 C 4.055880 -1.832021 -3.384320 0
M  V30 35 H 5.335393 -2.482378 1.643692 0
M  V30 36 H 5.320115 -4.148327 0.934401 0
M  V30 37 H 3.922917 -3.595630 1.866058 0
M  V30 38 H 3.606742 -1.065835 1.998357 0
M  V30 39 H 2.697607 0.934716 3.023213 0
M  V30 40 H 0.934811 5.618388 1.779122 0
M  V30 41 H -3.072233 3.020945 1.608658 0
M  V30 42 H -0.792956 0.758014 0.159693 0
M  V30 43 H -0.910531 -1.578403 -0.324629 0
M  V30 44 H -5.631651 -1.448404 2.506505 0
M  V30 45 H -3.909075 -5.882660 1.788234 0
M  V30 46 H -2.231318 -5.350339 1.253823 0
M  V30 47 H -3.050896 -4.606250 2.732783 0
M  V30 48 H -4.534666 -3.807541 -1.178671 0
M  V30 49 H -3.767881 -5.389896 -0.770261 0
M  V30 50 H -5.452672 -5.056018 -0.207676 0
M  V30 51 H 1.418846 1.668462 -0.284559 0
M  V30 52 H -0.148522 1.449847 -2.273636 0
M  V30 53 H 1.375851 2.483327 -2.137207 0
M  V30 54 H 0.832294 1.900228 -3.723663 0
M  V30 55 H 4.565779 -0.869912 -3.437909 0
M  V30 56 H 4.811605 -2.602045 -3.111842 0
M  V30 57 H 3.666548 -2.165423 -4.389802 0
M  V30 END ATOM
M  V30 BEGIN BOND
M  V30 1 1 1 2
M  V30 2 1 2 3
M  V30 3 2 3 4
M  V30 4 1 4 5
M  V30 5 1 5 6
M  V30 6 1 6 7
M  V30 7 2 7 8
M  V30 8 1 8 9
M  V30 9 2 9 10
M  V30 10 1 10 11
M  V30 11 1 10 12
M  V30 12 1 12 13
M  V30 13 1 13 14
M  V30 14 2 14 15
M  V30 15 1 15 16
M  V30 16 2 16 17
M  V30 17 1 17 18
M  V30 18 2 18 19
M  V30 19 1 18 20
M  V30 20 1 20 21
M  V30 21 2 21 22
M  V30 22 1 21 23
M  V30 23 1 23 24
M  V30 24 1 23 25
M  V30 25 1 23 26
M  V30 26 2 12 27
M  V30 27 2 5 28
M  V30 28 1 28 29
M  V30 29 1 29 30
M  V30 30 1 30 31
M  V30 31 2 29 32
M  V30 32 1 32 33
M  V30 33 1 33 34
M  V30 34 1 32 3
M  V30 35 1 27 7
M  V30 36 1 19 14
M  V30 37 1 26 17
M  V30 38 1 1 35
M  V30 39 1 1 36
M  V30 40 1 1 37
M  V30 41 1 4 38
M  V30 42 1 6 39
M  V30 43 1 9 40
M  V30 44 1 13 41
M  V30 45 1 15 42
M  V30 46 1 16 43
M  V30 47 1 20 44
M  V30 48 1 24 45
M  V30 49 1 24 46
M  V30 50 1 24 47
M  V30 51 1 25 48
M  V30 52 1 25 49
M  V30 53 1 25 50
M  V30 54 1 28 51
M  V30 55 1 31 52
M  V30 56 1 31 53
M  V30 57 1 31 54
M  V30 58 1 34 55
M  V30 59 1 34 56
M  V30 60 1 34 57
M  V30 END BOND
M  V30 END CTAB
M  END
>  <Dataset>  (76) 
ChEMBL_Kinases

>  <Ligand_Instance>  (76) 
nan

>  <PDB_ID>  (76) 
nan

>  <Standardized_SMILES>  (76) 
COc1cc(Nc2ncc(F)c(Nc3ccc4c(n3)NC(=O)C(C)(C)O4)n2)cc(OC)c1OC

>  <Name>  (76) 
R-406

>  <Pocket>  (76) 
nan

>  <ATP_Site>  (76) 
nan

>  <Peripheral>  (76) 
nan

>  <Num_H_Atoms_ProtBoundConf>  (76) 
nan

>  <Num_Resolved_Atoms>  (76) 
nan

>  <Num_Not_Resolved_Atoms>  (76) 
nan

$$$$
CHEMBL4462318
     RDKit          3D

  0  0  0  0  0  0  0  0  0  0999 V3000
M  V30 BEGIN CTAB
M  V30 COUNTS 74 78 0 0 0
M  V30 BEGIN ATOM
M  V30 1 C -2.546693 -2.811540 0.103352 0
M  V30 2 O -1.683643 -2.320327 1.081356 0
M  V30 3 C -0.298178 -2.379844 0.993170 0
M  V30 4 C 0.229625 -2.964775 -0.146384 0
M  V30 5 C 1.585742 -3.072047 -0.331284 0
M  V30 6 C 2.095554 -3.662309 -1.463557 0
M  V30 7 O 1.318704 -4.165862 -2.472145 0
M  V30 8 C 0.457780 -3.428134 -3.274715 0
M  V30 9 C 0.160295 -2.080953 -3.346107 0
M  V30 10 C -0.752687 -1.615032 -4.253528 0
M  V30 11 C -1.424608 -2.429474 -5.137600 0
M  V30 12 N -2.341165 -1.773611 -5.994944 0
M  V30 13 S -3.450937 -0.551088 -5.545385 0
M  V30 14 O -4.172198 -0.127533 -6.815732 0
M  V30 15 O -2.738794 0.688080 -5.059940 0
M  V30 16 C -4.615844 -1.050404 -4.366750 0
M  V30 17 C -4.286573 -0.857100 -3.031649 0
M  V30 18 F -3.116982 -0.297003 -2.571543 0
M  V30 19 C -5.104297 -1.203249 -1.976910 0
M  V30 20 C -6.340798 -1.782775 -2.223510 0
M  V30 21 C -6.695958 -1.987557 -3.549752 0
M  V30 22 C -5.860863 -1.633129 -4.576979 0
M  V30 23 F -6.165353 -1.814136 -5.903042 0
M  V30 24 C -1.134143 -3.791401 -5.076965 0
M  V30 25 C -0.215242 -4.271007 -4.166400 0
M  V30 26 F -0.067224 -5.613806 -4.256813 0
M  V30 27 C 3.480287 -3.763154 -1.609420 0
M  V30 28 C 4.268957 -3.255534 -0.593251 0
M  V30 29 N 3.743352 -2.674170 0.518700 0
M  V30 30 C 2.418218 -2.581420 0.651618 0
M  V30 31 C 1.866821 -2.004998 1.774915 0
M  V30 32 C 0.514985 -1.872786 2.006809 0
M  V30 33 O -0.152258 -1.333557 3.052484 0
M  V30 34 C 0.258298 -0.736775 4.215053 0
M  V30 35 C 1.075783 0.500646 4.122494 0
M  V30 36 C 1.449483 1.039483 5.510973 0
M  V30 37 N 2.211421 2.207375 5.346006 0
M  V30 38 C 3.503786 2.139699 4.804475 0
M  V30 39 C 3.565483 2.846775 3.477942 0
M  V30 40 N 2.639974 3.935243 3.409717 0
M  V30 41 C 1.505138 3.719401 2.566383 0
M  V30 42 C 2.293723 4.500607 4.701989 0
M  V30 43 C 1.630435 3.465935 5.588527 0
M  V30 44 H -2.376712 -3.901951 -0.115701 0
M  V30 45 H -2.508865 -2.295287 -0.857852 0
M  V30 46 H -3.596824 -2.754769 0.463232 0
M  V30 47 H -0.447064 -3.350784 -0.892754 0
M  V30 48 H 0.737259 -1.531689 -2.614627 0
M  V30 49 H -0.889386 -0.545459 -4.202850 0
M  V30 50 H -2.244989 -2.149763 -6.976149 0
M  V30 51 H -4.892830 -1.072197 -0.937387 0
M  V30 52 H -7.010378 -2.068464 -1.450186 0
M  V30 53 H -7.638002 -2.433043 -3.859404 0
M  V30 54 H -1.684595 -4.390440 -5.789206 0
M  V30 55 H 4.002376 -4.199248 -2.439201 0
M  V30 56 H 5.348156 -3.291525 -0.621699 0
M  V30 57 H 2.503580 -1.619856 2.557028 0
M  V30 58 H -0.654795 -0.582458 4.855909 0
M  V30 59 H 0.863334 -1.486384 4.805454 0
M  V30 60 H 1.933247 0.486783 3.463105 0
M  V30 61 H 0.389479 1.296515 3.702914 0
M  V30 62 H 2.026950 0.236913 6.042878 0
M  V30 63 H 0.562077 1.212246 6.123596 0
M  V30 64 H 4.202056 2.652992 5.519718 0
M  V30 65 H 3.791195 1.065157 4.722800 0
M  V30 66 H 4.611933 3.240135 3.335298 0
M  V30 67 H 3.372532 2.183911 2.609330 0
M  V30 68 H 1.567225 2.688963 2.146326 0
M  V30 69 H 0.519236 3.845677 3.066160 0
M  V30 70 H 1.514605 4.407994 1.700200 0
M  V30 71 H 1.580366 5.327334 4.486668 0
M  V30 72 H 3.232111 4.862702 5.159792 0
M  V30 73 H 1.769316 3.763348 6.650320 0
M  V30 74 H 0.544214 3.450687 5.356095 0
M  V30 END ATOM
M  V30 BEGIN BOND
M  V30 1 1 1 2
M  V30 2 1 2 3
M  V30 3 2 3 4
M  V30 4 1 4 5
M  V30 5 2 5 6
M  V30 6 1 6 7
M  V30 7 1 7 8
M  V30 8 2 8 9
M  V30 9 1 9 10
M  V30 10 2 10 11
M  V30 11 1 11 12
M  V30 12 1 12 13
M  V30 13 2 13 14
M  V30 14 2 13 15
M  V30 15 1 13 16
M  V30 16 2 16 17
M  V30 17 1 17 18
M  V30 18 1 17 19
M  V30 19 2 19 20
M  V30 20 1 20 21
M  V30 21 2 21 22
M  V30 22 1 22 23
M  V30 23 1 11 24
M  V30 24 2 24 25
M  V30 25 1 25 26
M  V30 26 1 6 27
M  V30 27 2 27 28
M  V30 28 1 28 29
M  V30 29 2 29 30
M  V30 30 1 30 31
M  V30 31 2 31 32
M  V30 32 1 32 33
M  V30 33 1 33 34
M  V30 34 1 34 35
M  V30 35 1 35 36
M  V30 36 1 36 37
M  V30 37 1 37 38
M  V30 38 1 38 39
M  V30 39 1 39 40
M  V30 40 1 40 41
M  V30 41 1 40 42
M  V30 42 1 42 43
M  V30 43 1 32 3
M  V30 44 1 43 37
M  V30 45 1 30 5
M  V30 46 1 25 8
M  V30 47 1 22 16
M  V30 48 1 1 44
M  V30 49 1 1 45
M  V30 50 1 1 46
M  V30 51 1 4 47
M  V30 52 1 9 48
M  V30 53 1 10 49
M  V30 54 1 12 50
M  V30 55 1 19 51
M  V30 56 1 20 52
M  V30 57 1 21 53
M  V30 58 1 24 54
M  V30 59 1 27 55
M  V30 60 1 28 56
M  V30 61 1 31 57
M  V30 62 1 34 58
M  V30 63 1 34 59
M  V30 64 1 35 60
M  V30 65 1 35 61
M  V30 66 1 36 62
M  V30 67 1 36 63
M  V30 68 1 38 64
M  V30 69 1 38 65
M  V30 70 1 39 66
M  V30 71 1 39 67
M  V30 72 1 41 68
M  V30 73 1 41 69
M  V30 74 1 41 70
M  V30 75 1 42 71
M  V30 76 1 42 72
M  V30 77 1 43 73
M  V30 78 1 43 74
M  V30 END BOND
M  V30 END CTAB
M  END
>  <Dataset>  (77) 
ChEMBL_Kinases

>  <Ligand_Instance>  (77) 
nan

>  <PDB_ID>  (77) 
nan

>  <Standardized_SMILES>  (77) 
COc1cc2c(Oc3ccc(NS(=O)(=O)c4c(F)cccc4F)cc3F)ccnc2cc1OCCCN1CCN(C)CC1

>  <Name>  (77) 
nan

>  <Pocket>  (77) 
nan

>  <ATP_Site>  (77) 
nan

>  <Peripheral>  (77) 
nan

>  <Num_H_Atoms_ProtBoundConf>  (77) 
nan

>  <Num_Resolved_Atoms>  (77) 
nan

>  <Num_Not_Resolved_Atoms>  (77) 
nan

$$$$
CHEMBL1171837
     RDKit          3D

  0  0  0  0  0  0  0  0  0  0999 V3000
M  V30 BEGIN CTAB
M  V30 COUNTS 66 70 0 0 0
M  V30 BEGIN ATOM
M  V30 1 C 4.824860 -2.637244 5.689628 0
M  V30 2 C 3.821307 -2.722073 4.597821 0
M  V30 3 C 3.811123 -3.820199 3.762747 0
M  V30 4 C 2.849862 -3.859842 2.748109 0
M  V30 5 C 1.918282 -2.869153 2.537296 0
M  V30 6 C 0.958523 -2.988652 1.459554 0
M  V30 7 O 1.090274 -4.016434 0.771610 0
M  V30 8 N -0.056317 -2.065341 1.160920 0
M  V30 9 C -1.017770 -2.124834 0.127437 0
M  V30 10 C -1.159050 -3.090072 -0.826635 0
M  V30 11 C -2.156519 -3.001076 -1.772471 0
M  V30 12 C -3.094863 -1.953855 -1.853824 0
M  V30 13 C -4.000202 -2.095998 -2.984972 0
M  V30 14 N -3.668496 -1.572187 -4.236039 0
M  V30 15 C -3.457184 -0.237474 -4.482228 0
M  V30 16 C -3.193884 0.181978 -5.896989 0
M  V30 17 N -2.513011 -0.823269 -6.678307 0
M  V30 18 C -2.411188 -0.373740 -8.042099 0
M  V30 19 C -3.348408 -2.027930 -6.571304 0
M  V30 20 C -3.127640 -2.526854 -5.168343 0
M  V30 21 C -2.926134 -0.998642 -0.877325 0
M  V30 22 C -3.887934 0.111857 -0.862701 0
M  V30 23 F -5.219458 -0.344885 -0.800151 0
M  V30 24 F -3.755802 0.679443 0.448925 0
M  V30 25 F -3.703498 1.133391 -1.710509 0
M  V30 26 C -1.925458 -1.099080 0.061237 0
M  V30 27 C 2.005439 -1.818331 3.415254 0
M  V30 28 C 2.915892 -1.691422 4.443571 0
M  V30 29 C 2.904488 -0.525083 5.304103 0
M  V30 30 C 2.900799 0.457588 6.004553 0
M  V30 31 C 2.918414 1.623598 6.848254 0
M  V30 32 C 2.729951 1.743725 8.209330 0
M  V30 33 N 2.844874 3.064919 8.532046 0
M  V30 34 C 3.100666 3.767037 7.399753 0
M  V30 35 C 3.297965 5.125320 7.205227 0
M  V30 36 C 3.548019 5.568140 5.901029 0
M  V30 37 C 3.582154 4.619631 4.890108 0
M  V30 38 N 3.379946 3.316690 5.162569 0
M  V30 39 N 3.142755 2.883425 6.388537 0
M  V30 40 H 5.423679 -1.716961 5.682626 0
M  V30 41 H 4.242699 -2.671313 6.652277 0
M  V30 42 H 5.516534 -3.522078 5.643007 0
M  V30 43 H 4.534232 -4.612169 3.911194 0
M  V30 44 H 2.901460 -4.740624 2.139276 0
M  V30 45 H -0.032227 -1.265192 1.827625 0
M  V30 46 H -0.474122 -3.920319 -0.824713 0
M  V30 47 H -2.158324 -3.832169 -2.474623 0
M  V30 48 H -5.030974 -1.670936 -2.723340 0
M  V30 49 H -4.220670 -3.202446 -3.119212 0
M  V30 50 H -2.588027 0.123527 -3.871900 0
M  V30 51 H -4.334855 0.353294 -4.151505 0
M  V30 52 H -4.127358 0.446064 -6.433619 0
M  V30 53 H -2.556942 1.095164 -5.909693 0
M  V30 54 H -2.870262 -1.130404 -8.736178 0
M  V30 55 H -2.799821 0.644495 -8.214132 0
M  V30 56 H -1.331682 -0.356584 -8.307135 0
M  V30 57 H -4.415106 -1.708427 -6.646407 0
M  V30 58 H -3.075202 -2.775754 -7.340195 0
M  V30 59 H -2.013541 -2.652743 -5.055611 0
M  V30 60 H -3.663020 -3.488326 -5.007366 0
M  V30 61 H -1.875343 -0.283047 0.794100 0
M  V30 62 H 1.308500 -0.998087 3.317434 0
M  V30 63 H 2.527444 0.897891 8.863970 0
M  V30 64 H 3.262428 5.844332 8.022142 0
M  V30 65 H 3.707546 6.632476 5.714596 0
M  V30 66 H 3.776959 4.942963 3.858895 0
M  V30 END ATOM
M  V30 BEGIN BOND
M  V30 1 1 1 2
M  V30 2 2 2 3
M  V30 3 1 3 4
M  V30 4 2 4 5
M  V30 5 1 5 6
M  V30 6 2 6 7
M  V30 7 1 6 8
M  V30 8 1 8 9
M  V30 9 2 9 10
M  V30 10 1 10 11
M  V30 11 2 11 12
M  V30 12 1 12 13
M  V30 13 1 13 14
M  V30 14 1 14 15
M  V30 15 1 15 16
M  V30 16 1 16 17
M  V30 17 1 17 18
M  V30 18 1 17 19
M  V30 19 1 19 20
M  V30 20 1 12 21
M  V30 21 1 21 22
M  V30 22 1 22 23
M  V30 23 1 22 24
M  V30 24 1 22 25
M  V30 25 2 21 26
M  V30 26 1 5 27
M  V30 27 2 27 28
M  V30 28 1 28 29
M  V30 29 3 29 30
M  V30 30 1 30 31
M  V30 31 2 31 32
M  V30 32 1 32 33
M  V30 33 2 33 34
M  V30 34 1 34 35
M  V30 35 2 35 36
M  V30 36 1 36 37
M  V30 37 2 37 38
M  V30 38 1 38 39
M  V30 39 1 28 2
M  V30 40 1 39 31
M  V30 41 1 26 9
M  V30 42 1 39 34
M  V30 43 1 20 14
M  V30 44 1 1 40
M  V30 45 1 1 41
M  V30 46 1 1 42
M  V30 47 1 3 43
M  V30 48 1 4 44
M  V30 49 1 8 45
M  V30 50 1 10 46
M  V30 51 1 11 47
M  V30 52 1 13 48
M  V30 53 1 13 49
M  V30 54 1 15 50
M  V30 55 1 15 51
M  V30 56 1 16 52
M  V30 57 1 16 53
M  V30 58 1 18 54
M  V30 59 1 18 55
M  V30 60 1 18 56
M  V30 61 1 19 57
M  V30 62 1 19 58
M  V30 63 1 20 59
M  V30 64 1 20 60
M  V30 65 1 26 61
M  V30 66 1 27 62
M  V30 67 1 32 63
M  V30 68 1 35 64
M  V30 69 1 36 65
M  V30 70 1 37 66
M  V30 END BOND
M  V30 END CTAB
M  END
>  <Dataset>  (78) 
ChEMBL_Kinases

>  <Ligand_Instance>  (78) 
nan

>  <PDB_ID>  (78) 
nan

>  <Standardized_SMILES>  (78) 
Cc1ccc(C(=O)Nc2ccc(CN3CCN(C)CC3)c(C(F)(F)F)c2)cc1C#Cc1cnc2cccnn12

>  <Name>  (78) 
PONATINIB

>  <Pocket>  (78) 
nan

>  <ATP_Site>  (78) 
nan

>  <Peripheral>  (78) 
nan

>  <Num_H_Atoms_ProtBoundConf>  (78) 
nan

>  <Num_Resolved_Atoms>  (78) 
nan

>  <Num_Not_Resolved_Atoms>  (78) 
nan

$$$$
CHEMBL1090479
     RDKit          3D

  0  0  0  0  0  0  0  0  0  0999 V3000
M  V30 BEGIN CTAB
M  V30 COUNTS 71 75 0 0 0
M  V30 BEGIN ATOM
M  V30 1 C 2.188576 -0.062971 6.464215 0
M  V30 2 C 2.037402 -1.571419 6.396901 0
M  V30 3 N 1.669335 -1.954380 5.039457 0
M  V30 4 C 2.462607 -2.271720 3.987068 0
M  V30 5 C 1.701532 -2.574243 2.846101 0
M  V30 6 C 2.460609 -2.927826 1.681307 0
M  V30 7 C 3.100820 -4.168225 1.804650 0
M  V30 8 C 3.918994 -4.687787 0.807919 0
M  V30 9 N 4.106276 -3.978900 -0.315703 0
M  V30 10 C 3.502566 -2.790607 -0.453830 0
M  V30 11 N 3.496638 -1.870617 -1.434548 0
M  V30 12 C 2.721404 -0.811693 -1.101889 0
M  V30 13 C 2.524946 0.359014 -1.948100 0
M  V30 14 C 3.241725 0.439540 -3.118871 0
M  V30 15 C 3.137895 1.471832 -4.021461 0
M  V30 16 C 2.230718 2.488145 -3.689398 0
M  V30 17 C 1.525667 2.394587 -2.524819 0
M  V30 18 C 0.537781 3.520462 -2.262477 0
M  V30 19 N -0.711477 3.195449 -2.832937 0
M  V30 20 C -1.771877 4.107773 -2.616127 0
M  V30 21 C -1.156594 1.843954 -2.777348 0
M  V30 22 C 1.632608 1.356215 -1.618369 0
M  V30 23 C 2.169002 -1.011985 0.161381 0
M  V30 24 C 2.684146 -2.239045 0.507506 0
M  V30 25 C 0.419450 -2.415740 3.287650 0
M  V30 26 C -0.775356 -2.577746 2.522259 0
M  V30 27 C -1.685998 -1.514560 2.668989 0
M  V30 28 C -2.932096 -1.474754 2.018641 0
M  V30 29 C -3.274861 -2.521418 1.200417 0
M  V30 30 N -4.572688 -2.340713 0.642089 0
M  V30 31 C -4.587591 -1.517087 -0.524706 0
M  V30 32 O -3.605636 -0.979624 -1.058270 0
M  V30 33 N -5.820341 -1.220887 -1.217762 0
M  V30 34 C -5.683171 -0.321702 -2.377434 0
M  V30 35 C -7.041940 -1.810308 -0.740330 0
M  V30 36 C -2.396733 -3.565901 1.044521 0
M  V30 37 C -1.179248 -3.595672 1.687880 0
M  V30 38 N 0.429638 -2.048480 4.595396 0
M  V30 39 H 1.695874 0.373866 7.378532 0
M  V30 40 H 1.672996 0.389813 5.580099 0
M  V30 41 H 3.249597 0.235985 6.398979 0
M  V30 42 H 2.970328 -2.086676 6.702614 0
M  V30 43 H 1.170338 -1.830749 7.057789 0
M  V30 44 H 3.545444 -2.248709 4.174621 0
M  V30 45 H 3.030146 -4.836001 2.662026 0
M  V30 46 H 4.421651 -5.642735 0.883195 0
M  V30 47 H 4.050841 -2.021446 -2.322285 0
M  V30 48 H 3.967483 -0.327420 -3.439673 0
M  V30 49 H 3.701452 1.542512 -4.940288 0
M  V30 50 H 2.144218 3.304698 -4.389796 0
M  V30 51 H 0.454123 3.625597 -1.171045 0
M  V30 52 H 0.962483 4.487908 -2.617825 0
M  V30 53 H -2.783766 3.622687 -2.671521 0
M  V30 54 H -1.715396 4.894559 -3.422245 0
M  V30 55 H -1.664224 4.591908 -1.623101 0
M  V30 56 H -0.271213 1.182105 -3.020290 0
M  V30 57 H -1.599269 1.509084 -1.831899 0
M  V30 58 H -1.860729 1.601783 -3.639762 0
M  V30 59 H 1.055054 1.312010 -0.705971 0
M  V30 60 H 1.517834 -0.395339 0.735521 0
M  V30 61 H -1.448373 -0.661130 3.314159 0
M  V30 62 H -3.551108 -0.588549 2.212478 0
M  V30 63 H -5.439464 -2.758228 1.025664 0
M  V30 64 H -4.630064 -0.291624 -2.690066 0
M  V30 65 H -6.375561 -0.567080 -3.182227 0
M  V30 66 H -5.872075 0.712807 -1.948270 0
M  V30 67 H -7.386308 -1.291202 0.184137 0
M  V30 68 H -7.862132 -1.655307 -1.499703 0
M  V30 69 H -6.996634 -2.920116 -0.620343 0
M  V30 70 H -2.728717 -4.352318 0.387192 0
M  V30 71 H -0.492278 -4.393087 1.578937 0
M  V30 END ATOM
M  V30 BEGIN BOND
M  V30 1 1 1 2
M  V30 2 1 2 3
M  V30 3 1 3 4
M  V30 4 2 4 5
M  V30 5 1 5 6
M  V30 6 2 6 7
M  V30 7 1 7 8
M  V30 8 2 8 9
M  V30 9 1 9 10
M  V30 10 1 10 11
M  V30 11 1 11 12
M  V30 12 1 12 13
M  V30 13 2 13 14
M  V30 14 1 14 15
M  V30 15 2 15 16
M  V30 16 1 16 17
M  V30 17 1 17 18
M  V30 18 1 18 19
M  V30 19 1 19 20
M  V30 20 1 19 21
M  V30 21 2 17 22
M  V30 22 2 12 23
M  V30 23 1 23 24
M  V30 24 1 5 25
M  V30 25 1 25 26
M  V30 26 2 26 27
M  V30 27 1 27 28
M  V30 28 2 28 29
M  V30 29 1 29 30
M  V30 30 1 30 31
M  V30 31 2 31 32
M  V30 32 1 31 33
M  V30 33 1 33 34
M  V30 34 1 33 35
M  V30 35 1 29 36
M  V30 36 2 36 37
M  V30 37 2 25 38
M  V30 38 1 38 3
M  V30 39 1 24 6
M  V30 40 1 37 26
M  V30 41 2 24 10
M  V30 42 1 22 13
M  V30 43 1 1 39
M  V30 44 1 1 40
M  V30 45 1 1 41
M  V30 46 1 2 42
M  V30 47 1 2 43
M  V30 48 1 4 44
M  V30 49 1 7 45
M  V30 50 1 8 46
M  V30 51 1 11 47
M  V30 52 1 14 48
M  V30 53 1 15 49
M  V30 54 1 16 50
M  V30 55 1 18 51
M  V30 56 1 18 52
M  V30 57 1 20 53
M  V30 58 1 20 54
M  V30 59 1 20 55
M  V30 60 1 21 56
M  V30 61 1 21 57
M  V30 62 1 21 58
M  V30 63 1 22 59
M  V30 64 1 23 60
M  V30 65 1 27 61
M  V30 66 1 28 62
M  V30 67 1 30 63
M  V30 68 1 34 64
M  V30 69 1 34 65
M  V30 70 1 34 66
M  V30 71 1 35 67
M  V30 72 1 35 68
M  V30 73 1 35 69
M  V30 74 1 36 70
M  V30 75 1 37 71
M  V30 END BOND
M  V30 END CTAB
M  END
>  <Dataset>  (79) 
ChEMBL_Kinases

>  <Ligand_Instance>  (79) 
nan

>  <PDB_ID>  (79) 
nan

>  <Standardized_SMILES>  (79) 
CCn1cc(-c2ccnc3[nH]c(-c4cccc(CN(C)C)c4)cc23)c(-c2ccc(NC(=O)N(C)C)cc2)n1

>  <Name>  (79) 
GSK-1070916

>  <Pocket>  (79) 
nan

>  <ATP_Site>  (79) 
nan

>  <Peripheral>  (79) 
nan

>  <Num_H_Atoms_ProtBoundConf>  (79) 
nan

>  <Num_Resolved_Atoms>  (79) 
nan

>  <Num_Not_Resolved_Atoms>  (79) 
nan

$$$$
CHEMBL1802358
     RDKit          3D

  0  0  0  0  0  0  0  0  0  0999 V3000
M  V30 BEGIN CTAB
M  V30 COUNTS 36 39 0 0 0
M  V30 BEGIN ATOM
M  V30 1 O -1.712477 0.310803 5.140597 0
M  V30 2 C -1.068528 -0.261591 4.230095 0
M  V30 3 N -0.430614 -1.532343 4.226087 0
M  V30 4 C 0.153271 -1.684475 2.932192 0
M  V30 5 N 0.903295 -2.788149 2.451340 0
M  V30 6 C 1.306529 -3.083416 1.129148 0
M  V30 7 C 2.099947 -4.212931 0.891857 0
M  V30 8 C 2.527106 -4.561172 -0.353083 0
M  V30 9 C 2.200807 -3.817267 -1.460859 0
M  V30 10 C 1.425087 -2.705320 -1.263109 0
M  V30 11 C 1.007524 -2.377801 0.013594 0
M  V30 12 N -0.072351 -0.656636 2.194913 0
M  V30 13 C -0.834652 0.310078 2.904276 0
M  V30 14 C -1.260949 1.518561 2.495860 0
M  V30 15 C -0.957101 1.966393 1.140208 0
M  V30 16 C -0.547979 3.261216 0.831470 0
M  V30 17 C -0.303573 3.553581 -0.496617 0
M  V30 18 C -0.453694 2.612099 -1.492549 0
M  V30 19 C -0.866339 1.309921 -1.175583 0
M  V30 20 C -1.109847 1.021403 0.154036 0
M  V30 21 O -0.914735 0.624864 -2.408841 0
M  V30 22 C -0.056714 1.316301 -3.322817 0
M  V30 23 O -0.273328 2.652204 -2.891508 0
M  V30 24 H -0.401128 -2.211998 5.017150 0
M  V30 25 H 1.186845 -3.469808 3.215987 0
M  V30 26 H 2.407136 -4.864763 1.726199 0
M  V30 27 H 3.142973 -5.448734 -0.487975 0
M  V30 28 H 2.567897 -4.143360 -2.422814 0
M  V30 29 H 1.147431 -2.093564 -2.118642 0
M  V30 30 H 0.411122 -1.505642 0.081944 0
M  V30 31 H -1.816828 2.170384 3.121164 0
M  V30 32 H -0.442538 3.968764 1.641925 0
M  V30 33 H 0.014610 4.558498 -0.726426 0
M  V30 34 H -1.426641 0.002752 0.318784 0
M  V30 35 H 0.986937 0.974737 -3.066367 0
M  V30 36 H -0.324834 1.159541 -4.376652 0
M  V30 END ATOM
M  V30 BEGIN BOND
M  V30 1 2 1 2
M  V30 2 1 2 3
M  V30 3 1 3 4
M  V30 4 1 4 5
M  V30 5 1 5 6
M  V30 6 2 6 7
M  V30 7 1 7 8
M  V30 8 2 8 9
M  V30 9 1 9 10
M  V30 10 2 10 11
M  V30 11 2 4 12
M  V30 12 1 12 13
M  V30 13 2 13 14
M  V30 14 1 14 15
M  V30 15 2 15 16
M  V30 16 1 16 17
M  V30 17 2 17 18
M  V30 18 1 18 19
M  V30 19 2 19 20
M  V30 20 1 19 21
M  V30 21 1 21 22
M  V30 22 1 22 23
M  V30 23 1 13 2
M  V30 24 1 20 15
M  V30 25 1 11 6
M  V30 26 1 23 18
M  V30 27 1 3 24
M  V30 28 1 5 25
M  V30 29 1 7 26
M  V30 30 1 8 27
M  V30 31 1 9 28
M  V30 32 1 10 29
M  V30 33 1 11 30
M  V30 34 1 14 31
M  V30 35 1 16 32
M  V30 36 1 17 33
M  V30 37 1 20 34
M  V30 38 1 22 35
M  V30 39 1 22 36
M  V30 END BOND
M  V30 END CTAB
M  END
>  <Dataset>  (80) 
ChEMBL_Kinases

>  <Ligand_Instance>  (80) 
nan

>  <PDB_ID>  (80) 
nan

>  <Standardized_SMILES>  (80) 
O=C1NC(Nc2ccccc2)=N/C1=C\c1ccc2c(c1)OCO2

>  <Name>  (80) 
nan

>  <Pocket>  (80) 
nan

>  <ATP_Site>  (80) 
nan

>  <Peripheral>  (80) 
nan

>  <Num_H_Atoms_ProtBoundConf>  (80) 
nan

>  <Num_Resolved_Atoms>  (80) 
nan

>  <Num_Not_Resolved_Atoms>  (80) 
nan

$$$$
CHEMBL2105759
     RDKit          3D

  0  0  0  0  0  0  0  0  0  0999 V3000
M  V30 BEGIN CTAB
M  V30 COUNTS 43 46 0 0 0
M  V30 BEGIN ATOM
M  V30 1 C 0.199708 -5.183415 1.328017 0
M  V30 2 C 0.214952 -4.322446 0.059440 0
M  V30 3 S 1.704596 -3.416024 0.015751 0
M  V30 4 O 2.835633 -4.435358 -0.038645 0
M  V30 5 O 1.888712 -2.654899 1.297554 0
M  V30 6 N 1.890554 -2.399911 -1.333810 0
M  V30 7 C 0.942164 -1.348821 -1.519290 0
M  V30 8 C 1.933515 -0.310016 -1.082989 0
M  V30 9 C 2.036800 0.853584 -2.018050 0
M  V30 10 C 2.442142 0.512925 -3.360331 0
M  V30 11 N 2.755042 0.232317 -4.435004 0
M  V30 12 N 1.794889 0.164786 0.281152 0
M  V30 13 C 0.565781 0.286509 0.818667 0
M  V30 14 C 0.677260 0.757082 2.131471 0
M  V30 15 C -0.378531 1.044621 3.110468 0
M  V30 16 N -0.257449 0.630631 4.386543 0
M  V30 17 C -1.182176 0.857799 5.334030 0
M  V30 18 N -2.288323 1.541904 4.964758 0
M  V30 19 C -2.478937 1.986189 3.711760 0
M  V30 20 N -3.492818 2.678964 3.133724 0
M  V30 21 C -3.177371 2.870701 1.829443 0
M  V30 22 C -1.941537 2.298104 1.543439 0
M  V30 23 C -1.515361 1.748481 2.728110 0
M  V30 24 C 2.055596 0.904521 2.331427 0
M  V30 25 N 2.682738 0.535622 1.189836 0
M  V30 26 C 2.929897 -1.421407 -1.270993 0
M  V30 27 H 0.517773 -6.219062 1.125721 0
M  V30 28 H 0.906475 -4.771723 2.078300 0
M  V30 29 H -0.799265 -5.192916 1.779899 0
M  V30 30 H -0.702673 -3.715041 0.052939 0
M  V30 31 H 0.130027 -5.057826 -0.766892 0
M  V30 32 H 0.031195 -1.329631 -0.939770 0
M  V30 33 H 0.704593 -1.236269 -2.607225 0
M  V30 34 H 1.016786 1.319346 -2.082962 0
M  V30 35 H 2.677118 1.640730 -1.540549 0
M  V30 36 H -0.425713 0.098783 0.443957 0
M  V30 37 H -1.054727 0.512202 6.348616 0
M  V30 38 H -4.386045 3.028244 3.575753 0
M  V30 39 H -3.728624 3.378868 1.036003 0
M  V30 40 H -1.417158 2.278476 0.608260 0
M  V30 41 H 2.542816 1.250145 3.231860 0
M  V30 42 H 3.607932 -1.474805 -0.388045 0
M  V30 43 H 3.516981 -1.301346 -2.203554 0
M  V30 END ATOM
M  V30 BEGIN BOND
M  V30 1 1 1 2
M  V30 2 1 2 3
M  V30 3 2 3 4
M  V30 4 2 3 5
M  V30 5 1 3 6
M  V30 6 1 6 7
M  V30 7 1 7 8
M  V30 8 1 8 9
M  V30 9 1 9 10
M  V30 10 3 10 11
M  V30 11 1 8 12
M  V30 12 1 12 13
M  V30 13 2 13 14
M  V30 14 1 14 15
M  V30 15 2 15 16
M  V30 16 1 16 17
M  V30 17 2 17 18
M  V30 18 1 18 19
M  V30 19 1 19 20
M  V30 20 1 20 21
M  V30 21 2 21 22
M  V30 22 1 22 23
M  V30 23 1 14 24
M  V30 24 2 24 25
M  V30 25 1 8 26
M  V30 26 1 26 6
M  V30 27 1 25 12
M  V30 28 1 23 15
M  V30 29 2 23 19
M  V30 30 1 1 27
M  V30 31 1 1 28
M  V30 32 1 1 29
M  V30 33 1 2 30
M  V30 34 1 2 31
M  V30 35 1 7 32
M  V30 36 1 7 33
M  V30 37 1 9 34
M  V30 38 1 9 35
M  V30 39 1 13 36
M  V30 40 1 17 37
M  V30 41 1 20 38
M  V30 42 1 21 39
M  V30 43 1 22 40
M  V30 44 1 24 41
M  V30 45 1 26 42
M  V30 46 1 26 43
M  V30 END BOND
M  V30 END CTAB
M  END
>  <Dataset>  (81) 
ChEMBL_Kinases

>  <Ligand_Instance>  (81) 
nan

>  <PDB_ID>  (81) 
nan

>  <Standardized_SMILES>  (81) 
CCS(=O)(=O)N1CC(CC#N)(n2cc(-c3ncnc4[nH]ccc34)cn2)C1

>  <Name>  (81) 
BARICITINIB

>  <Pocket>  (81) 
nan

>  <ATP_Site>  (81) 
nan

>  <Peripheral>  (81) 
nan

>  <Num_H_Atoms_ProtBoundConf>  (81) 
nan

>  <Num_Resolved_Atoms>  (81) 
nan

>  <Num_Not_Resolved_Atoms>  (81) 
nan

$$$$
CHEMBL269538
     RDKit          3D

  0  0  0  0  0  0  0  0  0  0999 V3000
M  V30 BEGIN CTAB
M  V30 COUNTS 28 30 0 0 0
M  V30 BEGIN ATOM
M  V30 1 C -2.595197 -2.395513 4.007860 0
M  V30 2 O -1.526207 -1.519027 4.329742 0
M  V30 3 C -0.738747 -1.056600 3.280126 0
M  V30 4 C 0.281368 -0.204734 3.695798 0
M  V30 5 C 1.112976 0.298587 2.692390 0
M  V30 6 C 0.930953 -0.032344 1.361648 0
M  V30 7 C -0.102722 -0.882199 1.034115 0
M  V30 8 C -0.962368 -1.416395 1.973691 0
M  V30 9 N -0.112856 -1.080611 -0.304010 0
M  V30 10 C 0.917031 -0.351187 -0.801569 0
M  V30 11 C 1.326559 -0.222836 -2.134958 0
M  V30 12 C 0.594178 -0.945924 -3.216477 0
M  V30 13 N 2.392838 0.568250 -2.398043 0
M  V30 14 C 3.027168 1.202000 -1.408943 0
M  V30 15 C 2.680816 1.122986 -0.073807 0
M  V30 16 C 1.588836 0.313079 0.197376 0
M  V30 17 H -3.018081 -2.908911 4.884859 0
M  V30 18 H -2.139194 -3.209867 3.380297 0
M  V30 19 H -3.416507 -1.859658 3.485894 0
M  V30 20 H 0.450155 0.072394 4.720996 0
M  V30 21 H 1.942247 0.973077 2.903779 0
M  V30 22 H -1.775824 -2.084972 1.717476 0
M  V30 23 H -0.777155 -1.673905 -0.845475 0
M  V30 24 H -0.393729 -1.257917 -2.814399 0
M  V30 25 H 1.108480 -1.870604 -3.542908 0
M  V30 26 H 0.353405 -0.279185 -4.071495 0
M  V30 27 H 3.876846 1.823641 -1.679965 0
M  V30 28 H 3.180336 1.625388 0.728611 0
M  V30 END ATOM
M  V30 BEGIN BOND
M  V30 1 1 1 2
M  V30 2 1 2 3
M  V30 3 2 3 4
M  V30 4 1 4 5
M  V30 5 2 5 6
M  V30 6 1 6 7
M  V30 7 2 7 8
M  V30 8 1 7 9
M  V30 9 1 9 10
M  V30 10 2 10 11
M  V30 11 1 11 12
M  V30 12 1 11 13
M  V30 13 2 13 14
M  V30 14 1 14 15
M  V30 15 2 15 16
M  V30 16 1 8 3
M  V30 17 1 16 10
M  V30 18 1 16 6
M  V30 19 1 1 17
M  V30 20 1 1 18
M  V30 21 1 1 19
M  V30 22 1 4 20
M  V30 23 1 5 21
M  V30 24 1 8 22
M  V30 25 1 9 23
M  V30 26 1 12 24
M  V30 27 1 12 25
M  V30 28 1 12 26
M  V30 29 1 14 27
M  V30 30 1 15 28
M  V30 END BOND
M  V30 END CTAB
M  END
>  <Dataset>  (82) 
ChEMBL_Kinases

>  <Ligand_Instance>  (82) 
nan

>  <PDB_ID>  (82) 
nan

>  <Standardized_SMILES>  (82) 
COc1ccc2c(c1)[nH]c1c(C)nccc12

>  <Name>  (82) 
HARMINE

>  <Pocket>  (82) 
nan

>  <ATP_Site>  (82) 
nan

>  <Peripheral>  (82) 
nan

>  <Num_H_Atoms_ProtBoundConf>  (82) 
nan

>  <Num_Resolved_Atoms>  (82) 
nan

>  <Num_Not_Resolved_Atoms>  (82) 
nan

$$$$
CHEMBL1230607
     RDKit          3D

  0  0  0  0  0  0  0  0  0  0999 V3000
M  V30 BEGIN CTAB
M  V30 COUNTS 57 59 0 0 0
M  V30 BEGIN ATOM
M  V30 1 C 3.775232 -2.412697 5.000398 0
M  V30 2 C 3.238817 -2.547557 3.605291 0
M  V30 3 C 1.730333 -2.550669 3.694533 0
M  V30 4 C 3.722906 -1.396804 2.721120 0
M  V30 5 C 3.179049 -1.548011 1.336575 0
M  V30 6 O 2.442708 -2.547173 1.114262 0
M  V30 7 N 3.536395 -0.556288 0.390393 0
M  V30 8 C 2.985458 -0.751026 -0.925812 0
M  V30 9 N 3.513551 -1.428868 -1.961445 0
M  V30 10 N 2.661451 -1.343730 -2.970781 0
M  V30 11 C 1.590517 -0.618928 -2.597442 0
M  V30 12 C 1.763237 -0.219974 -1.286776 0
M  V30 13 C 0.563326 0.580683 -0.899242 0
M  V30 14 N -0.438816 -0.132322 -1.718278 0
M  V30 15 C -1.707976 -0.755202 -1.514742 0
M  V30 16 O -2.611932 -1.372477 -2.137497 0
M  V30 17 C -2.304745 -0.762774 -0.157797 0
M  V30 18 C -3.626062 -1.490305 -0.292508 0
M  V30 19 C -4.261873 -1.500389 1.082409 0
M  V30 20 N -4.678504 -0.159019 1.390004 0
M  V30 21 C -4.844294 0.115848 2.777859 0
M  V30 22 C -4.023410 0.850257 0.615741 0
M  V30 23 C -2.570227 0.599507 0.377735 0
M  V30 24 C 0.269697 -0.045744 -2.989469 0
M  V30 25 C -0.403214 -0.875521 -4.049738 0
M  V30 26 C 0.521799 1.363598 -3.406656 0
M  V30 27 H 3.760259 -3.405180 5.484586 0
M  V30 28 H 4.760241 -1.910957 5.038889 0
M  V30 29 H 3.073177 -1.787593 5.604710 0
M  V30 30 H 3.547678 -3.502864 3.155557 0
M  V30 31 H 1.299759 -3.517833 3.321855 0
M  V30 32 H 1.345814 -1.703289 3.082467 0
M  V30 33 H 1.347503 -2.417005 4.722936 0
M  V30 34 H 4.827421 -1.496667 2.678101 0
M  V30 35 H 3.497746 -0.428326 3.180690 0
M  V30 36 H 4.157092 0.245274 0.662412 0
M  V30 37 H 2.802708 -1.778100 -3.920462 0
M  V30 38 H 0.617892 1.633525 -1.244242 0
M  V30 39 H 0.343237 0.482717 0.183342 0
M  V30 40 H -1.637090 -1.326543 0.514934 0
M  V30 41 H -3.412836 -2.516004 -0.655057 0
M  V30 42 H -4.250666 -0.958163 -1.012813 0
M  V30 43 H -3.435331 -1.754383 1.803884 0
M  V30 44 H -5.033801 -2.266422 1.209511 0
M  V30 45 H -5.137292 -0.850137 3.263425 0
M  V30 46 H -3.910898 0.425358 3.248949 0
M  V30 47 H -5.671025 0.840936 2.912035 0
M  V30 48 H -4.116641 1.814942 1.162610 0
M  V30 49 H -4.555825 0.949023 -0.351978 0
M  V30 50 H -1.993903 0.744265 1.337763 0
M  V30 51 H -2.167032 1.384948 -0.293965 0
M  V30 52 H -0.036571 -0.612468 -5.041078 0
M  V30 53 H -1.488710 -0.576701 -4.033647 0
M  V30 54 H -0.317265 -1.949122 -3.798078 0
M  V30 55 H -0.232603 2.089436 -3.060805 0
M  V30 56 H 1.552431 1.726035 -3.137459 0
M  V30 57 H 0.503124 1.413132 -4.526121 0
M  V30 END ATOM
M  V30 BEGIN BOND
M  V30 1 1 1 2
M  V30 2 1 2 3
M  V30 3 1 2 4
M  V30 4 1 4 5
M  V30 5 2 5 6
M  V30 6 1 5 7
M  V30 7 1 7 8
M  V30 8 2 8 9
M  V30 9 1 9 10
M  V30 10 1 10 11
M  V30 11 2 11 12
M  V30 12 1 12 13
M  V30 13 1 13 14
M  V30 14 1 14 15
M  V30 15 2 15 16
M  V30 16 1 15 17
M  V30 17 1 17 18
M  V30 18 1 18 19
M  V30 19 1 19 20
M  V30 20 1 20 21
M  V30 21 1 20 22
M  V30 22 1 22 23
M  V30 23 1 14 24
M  V30 24 1 24 25
M  V30 25 1 24 26
M  V30 26 1 12 8
M  V30 27 1 23 17
M  V30 28 1 24 11
M  V30 29 1 1 27
M  V30 30 1 1 28
M  V30 31 1 1 29
M  V30 32 1 2 30
M  V30 33 1 3 31
M  V30 34 1 3 32
M  V30 35 1 3 33
M  V30 36 1 4 34
M  V30 37 1 4 35
M  V30 38 1 7 36
M  V30 39 1 10 37
M  V30 40 1 13 38
M  V30 41 1 13 39
M  V30 42 1 17 40
M  V30 43 1 18 41
M  V30 44 1 18 42
M  V30 45 1 19 43
M  V30 46 1 19 44
M  V30 47 1 21 45
M  V30 48 1 21 46
M  V30 49 1 21 47
M  V30 50 1 22 48
M  V30 51 1 22 49
M  V30 52 1 23 50
M  V30 53 1 23 51
M  V30 54 1 25 52
M  V30 55 1 25 53
M  V30 56 1 25 54
M  V30 57 1 26 55
M  V30 58 1 26 56
M  V30 59 1 26 57
M  V30 END BOND
M  V30 END CTAB
M  END
>  <Dataset>  (83) 
ChEMBL_Kinases

>  <Ligand_Instance>  (83) 
nan

>  <PDB_ID>  (83) 
nan

>  <Standardized_SMILES>  (83) 
CC(C)CC(=O)Nc1n[nH]c2c1CN(C(=O)C1CCN(C)CC1)C2(C)C

>  <Name>  (83) 
PHA-793887

>  <Pocket>  (83) 
nan

>  <ATP_Site>  (83) 
nan

>  <Peripheral>  (83) 
nan

>  <Num_H_Atoms_ProtBoundConf>  (83) 
nan

>  <Num_Resolved_Atoms>  (83) 
nan

>  <Num_Not_Resolved_Atoms>  (83) 
nan

$$$$
CHEMBL1789941
     RDKit          3D

  0  0  0  0  0  0  0  0  0  0999 V3000
M  V30 BEGIN CTAB
M  V30 COUNTS 41 44 0 0 0
M  V30 BEGIN ATOM
M  V30 1 N 2.600275 0.449893 -1.598361 0
M  V30 2 C 2.909769 -0.372218 -0.848549 0
M  V30 3 C 3.312833 -1.375900 0.085444 0
M  V30 4 C 2.233912 -2.033581 0.837078 0 CFG=2
M  V30 5 C 1.191756 -2.777689 0.124875 0
M  V30 6 C 1.729185 -3.941140 -0.705004 0
M  V30 7 C 0.689263 -4.193705 -1.773324 0
M  V30 8 C -0.467519 -3.301299 -1.377296 0
M  V30 9 C 0.323381 -2.083820 -0.847296 0
M  V30 10 N 1.641610 -1.115177 1.825254 0
M  V30 11 C 0.978092 -0.005214 1.438162 0
M  V30 12 C 0.535468 0.659995 2.564443 0
M  V30 13 C -0.216999 1.879140 2.854719 0
M  V30 14 N 0.148005 2.756858 3.801299 0
M  V30 15 C -0.572121 3.867127 4.037304 0
M  V30 16 N -1.695584 4.146578 3.330259 0
M  V30 17 C -2.132086 3.317724 2.361685 0
M  V30 18 N -3.176325 3.336661 1.526257 0
M  V30 19 C -3.152598 2.236883 0.731527 0
M  V30 20 C -2.022196 1.521212 1.121337 0
M  V30 21 C -1.371040 2.184910 2.142281 0
M  V30 22 C 0.967365 -0.107635 3.646895 0
M  V30 23 N 1.622593 -1.156845 3.166370 0
M  V30 24 H 3.889766 -2.161252 -0.457747 0
M  V30 25 H 4.044445 -0.986364 0.855815 0
M  V30 26 H 2.749506 -2.795809 1.505719 0
M  V30 27 H 0.512917 -3.279469 0.879598 0
M  V30 28 H 2.648480 -3.604959 -1.188485 0
M  V30 29 H 1.929336 -4.835154 -0.077822 0
M  V30 30 H 0.402446 -5.237078 -1.895758 0
M  V30 31 H 1.038232 -3.789426 -2.761894 0
M  V30 32 H -1.110023 -3.031360 -2.218461 0
M  V30 33 H -0.985624 -3.722964 -0.508129 0
M  V30 34 H -0.445918 -1.419003 -0.456101 0
M  V30 35 H 0.886238 -1.709030 -1.726558 0
M  V30 36 H 0.738364 0.439804 0.488554 0
M  V30 37 H -0.259409 4.562405 4.806301 0
M  V30 38 H -3.917888 4.089476 1.480244 0
M  V30 39 H -3.873532 1.974521 -0.049113 0
M  V30 40 H -1.683046 0.591374 0.708961 0
M  V30 41 H 0.911505 -0.074520 4.724601 0
M  V30 END ATOM
M  V30 BEGIN BOND
M  V30 1 3 1 2
M  V30 2 1 2 3
M  V30 3 1 3 4
M  V30 4 1 4 5
M  V30 5 1 5 6
M  V30 6 1 6 7
M  V30 7 1 7 8
M  V30 8 1 8 9
M  V30 9 1 4 10
M  V30 10 1 10 11
M  V30 11 2 11 12
M  V30 12 1 12 13
M  V30 13 2 13 14
M  V30 14 1 14 15
M  V30 15 2 15 16
M  V30 16 1 16 17
M  V30 17 1 17 18
M  V30 18 1 18 19
M  V30 19 2 19 20
M  V30 20 1 20 21
M  V30 21 1 12 22
M  V30 22 2 22 23
M  V30 23 1 9 5
M  V30 24 1 23 10
M  V30 25 1 21 13
M  V30 26 2 21 17
M  V30 27 1 3 24
M  V30 28 1 3 25
M  V30 29 1 4 26 CFG=1
M  V30 30 1 5 27
M  V30 31 1 6 28
M  V30 32 1 6 29
M  V30 33 1 7 30
M  V30 34 1 7 31
M  V30 35 1 8 32
M  V30 36 1 8 33
M  V30 37 1 9 34
M  V30 38 1 9 35
M  V30 39 1 11 36
M  V30 40 1 15 37
M  V30 41 1 18 38
M  V30 42 1 19 39
M  V30 43 1 20 40
M  V30 44 1 22 41
M  V30 END BOND
M  V30 END CTAB
M  END
>  <Dataset>  (84) 
ChEMBL_Kinases

>  <Ligand_Instance>  (84) 
nan

>  <PDB_ID>  (84) 
nan

>  <Standardized_SMILES>  (84) 
N#CC[C@H](C1CCCC1)n1cc(-c2ncnc3[nH]ccc23)cn1

>  <Name>  (84) 
RUXOLITINIB

>  <Pocket>  (84) 
nan

>  <ATP_Site>  (84) 
nan

>  <Peripheral>  (84) 
nan

>  <Num_H_Atoms_ProtBoundConf>  (84) 
nan

>  <Num_Resolved_Atoms>  (84) 
nan

>  <Num_Not_Resolved_Atoms>  (84) 
nan

$$$$
CHEMBL2325741
     RDKit          3D

  0  0  0  0  0  0  0  0  0  0999 V3000
M  V30 BEGIN CTAB
M  V30 COUNTS 55 58 0 0 0
M  V30 BEGIN ATOM
M  V30 1 N -1.317323 0.681889 -1.187219 0
M  V30 2 C -0.975441 -0.353027 -0.227779 0
M  V30 3 C 0.425258 -0.029693 0.218575 0
M  V30 4 O 0.796762 -0.881470 1.046997 0
M  V30 5 N 1.168161 1.080187 -0.255366 0
M  V30 6 C 2.478721 1.449401 0.111168 0 CFG=1
M  V30 7 C 3.513808 1.473045 -0.958870 0
M  V30 8 C 3.655310 0.077356 -1.581967 0
M  V30 9 O 4.033740 -0.847119 -0.609234 0
M  V30 10 C 2.446435 2.765057 0.801415 0
M  V30 11 C 3.183967 2.954839 1.975600 0
M  V30 12 C 3.143607 4.185099 2.606938 0
M  V30 13 C 2.408789 5.250113 2.140067 0
M  V30 14 Cl 2.449824 6.753999 3.043185 0
M  V30 15 C 1.677279 5.064088 0.976607 0
M  V30 16 C 1.709931 3.831774 0.333045 0
M  V30 17 C -1.948097 -0.300528 0.887936 0
M  V30 18 C -2.405117 -1.617095 1.442423 0
M  V30 19 N -2.623272 -2.597341 0.425630 0
M  V30 20 C -3.095877 -3.891509 0.675072 0
M  V30 21 N -4.285083 -4.241462 0.100865 0
M  V30 22 C -4.820089 -5.474973 0.290861 0
M  V30 23 N -4.252697 -6.442384 1.037332 0
M  V30 24 C -3.078844 -6.195962 1.645258 0
M  V30 25 N -2.207969 -6.841781 2.440031 0
M  V30 26 C -1.163054 -6.035675 2.735855 0
M  V30 27 C -1.332607 -4.827570 2.130797 0
M  V30 28 C -2.508618 -4.876558 1.440867 0
M  V30 29 C -2.357427 -2.298087 -0.981827 0
M  V30 30 C -0.982101 -1.644891 -0.996511 0
M  V30 31 H -2.077025 0.436605 -1.828942 0
M  V30 32 H -1.365468 1.610540 -0.742703 0
M  V30 33 H 0.673518 1.681749 -0.954715 0
M  V30 34 H 2.837357 0.686888 0.863765 0
M  V30 35 H 3.420774 2.248641 -1.715394 0
M  V30 36 H 4.492733 1.651510 -0.460515 0
M  V30 37 H 4.444116 0.088566 -2.348334 0
M  V30 38 H 2.677047 -0.299612 -1.966823 0
M  V30 39 H 4.635713 -0.369534 0.034801 0
M  V30 40 H 3.768511 2.123314 2.355756 0
M  V30 41 H 3.752054 4.238812 3.518244 0
M  V30 42 H 1.103826 5.908041 0.619221 0
M  V30 43 H 1.137615 3.687975 -0.576276 0
M  V30 44 H -2.806251 0.350213 0.626915 0
M  V30 45 H -1.437739 0.256787 1.728984 0
M  V30 46 H -3.426184 -1.410933 1.883450 0
M  V30 47 H -1.793808 -1.915230 2.291744 0
M  V30 48 H -5.768549 -5.708737 -0.185696 0
M  V30 49 H -4.677296 -7.377211 1.169368 0
M  V30 50 H -0.319807 -6.322503 3.364577 0
M  V30 51 H -0.655921 -4.014098 2.199985 0
M  V30 52 H -2.319268 -3.176645 -1.622599 0
M  V30 53 H -3.144207 -1.582403 -1.349130 0
M  V30 54 H -0.316825 -2.363795 -0.476591 0
M  V30 55 H -0.627812 -1.539596 -2.029597 0
M  V30 END ATOM
M  V30 BEGIN BOND
M  V30 1 1 1 2
M  V30 2 1 2 3
M  V30 3 2 3 4
M  V30 4 1 3 5
M  V30 5 1 5 6
M  V30 6 1 6 7
M  V30 7 1 7 8
M  V30 8 1 8 9
M  V30 9 1 6 10
M  V30 10 2 10 11
M  V30 11 1 11 12
M  V30 12 2 12 13
M  V30 13 1 13 14
M  V30 14 1 13 15
M  V30 15 2 15 16
M  V30 16 1 2 17
M  V30 17 1 17 18
M  V30 18 1 18 19
M  V30 19 1 19 20
M  V30 20 1 20 21
M  V30 21 2 21 22
M  V30 22 1 22 23
M  V30 23 1 23 24
M  V30 24 2 24 25
M  V30 25 1 25 26
M  V30 26 2 26 27
M  V30 27 1 27 28
M  V30 28 1 19 29
M  V30 29 1 29 30
M  V30 30 1 30 2
M  V30 31 1 16 10
M  V30 32 2 28 20
M  V30 33 1 28 24
M  V30 34 1 1 31
M  V30 35 1 1 32
M  V30 36 1 5 33
M  V30 37 1 6 34 CFG=1
M  V30 38 1 7 35
M  V30 39 1 7 36
M  V30 40 1 8 37
M  V30 41 1 8 38
M  V30 42 1 9 39
M  V30 43 1 11 40
M  V30 44 1 12 41
M  V30 45 1 15 42
M  V30 46 1 16 43
M  V30 47 1 17 44
M  V30 48 1 17 45
M  V30 49 1 18 46
M  V30 50 1 18 47
M  V30 51 1 22 48
M  V30 52 1 23 49
M  V30 53 1 26 50
M  V30 54 1 27 51
M  V30 55 1 29 52
M  V30 56 1 29 53
M  V30 57 1 30 54
M  V30 58 1 30 55
M  V30 END BOND
M  V30 END CTAB
M  END
>  <Dataset>  (85) 
ChEMBL_Kinases

>  <Ligand_Instance>  (85) 
nan

>  <PDB_ID>  (85) 
nan

>  <Standardized_SMILES>  (85) 
NC1(C(=O)N[C@@H](CCO)c2ccc(Cl)cc2)CCN(c2nc[nH]c3nccc2-3)CC1

>  <Name>  (85) 
CAPIVASERTIB

>  <Pocket>  (85) 
nan

>  <ATP_Site>  (85) 
nan

>  <Peripheral>  (85) 
nan

>  <Num_H_Atoms_ProtBoundConf>  (85) 
nan

>  <Num_Resolved_Atoms>  (85) 
nan

>  <Num_Not_Resolved_Atoms>  (85) 
nan

$$$$
CHEMBL4564337
     RDKit          3D

  0  0  0  0  0  0  0  0  0  0999 V3000
M  V30 BEGIN CTAB
M  V30 COUNTS 34 37 0 0 0
M  V30 BEGIN ATOM
M  V30 1 C -0.455320 -5.261704 2.246452 0
M  V30 2 O -1.655710 -5.152800 1.486755 0
M  V30 3 C -2.001664 -4.012164 0.806618 0
M  V30 4 C -1.234574 -2.880562 0.792680 0
M  V30 5 C -1.555368 -1.726928 0.122110 0
M  V30 6 C -0.912811 -0.519743 0.002639 0
M  V30 7 C 0.336671 -0.014244 0.536196 0
M  V30 8 C 1.317961 -0.529251 1.334536 0
M  V30 9 N 2.291349 0.409336 1.523624 0
M  V30 10 C 1.884262 1.504502 0.825812 0
M  V30 11 C 2.533753 2.804354 0.671839 0
M  V30 12 C 3.756561 3.094308 1.279215 0
M  V30 13 C 4.031123 4.390235 0.903705 0
M  V30 14 C 3.001518 4.874502 0.089359 0
M  V30 15 N 2.109207 3.873728 -0.025642 0
M  V30 16 O 0.749273 1.194526 0.279085 0
M  V30 17 C -1.783168 0.183729 -0.807849 0
M  V30 18 N -2.852912 -0.555782 -1.137066 0
M  V30 19 C -2.747013 -1.769436 -0.569447 0
M  V30 20 C -3.548122 -2.891917 -0.579548 0
M  V30 21 C -3.187720 -4.029375 0.107874 0
M  V30 22 Br -4.340812 -5.549919 0.053856 0
M  V30 23 H 0.413351 -4.798405 1.734757 0
M  V30 24 H -0.175600 -6.326770 2.391600 0
M  V30 25 H -0.591494 -4.746125 3.202295 0
M  V30 26 H -0.325724 -2.934641 1.356069 0
M  V30 27 H 1.358125 -1.501342 1.762738 0
M  V30 28 H 4.342325 2.432992 1.902962 0
M  V30 29 H 4.904164 4.983268 1.176813 0
M  V30 30 H 2.925030 5.854978 -0.363955 0
M  V30 31 H 1.220114 3.939789 -0.582411 0
M  V30 32 H -1.679464 1.203321 -1.170045 0
M  V30 33 H -3.653896 -0.265327 -1.734539 0
M  V30 34 H -4.475020 -2.820617 -1.160844 0
M  V30 END ATOM
M  V30 BEGIN BOND
M  V30 1 1 1 2
M  V30 2 1 2 3
M  V30 3 2 3 4
M  V30 4 1 4 5
M  V30 5 1 5 6
M  V30 6 1 6 7
M  V30 7 2 7 8
M  V30 8 1 8 9
M  V30 9 2 9 10
M  V30 10 1 10 11
M  V30 11 2 11 12
M  V30 12 1 12 13
M  V30 13 2 13 14
M  V30 14 1 14 15
M  V30 15 1 10 16
M  V30 16 2 6 17
M  V30 17 1 17 18
M  V30 18 1 18 19
M  V30 19 1 19 20
M  V30 20 2 20 21
M  V30 21 1 21 22
M  V30 22 1 21 3
M  V30 23 2 19 5
M  V30 24 1 16 7
M  V30 25 1 15 11
M  V30 26 1 1 23
M  V30 27 1 1 24
M  V30 28 1 1 25
M  V30 29 1 4 26
M  V30 30 1 8 27
M  V30 31 1 12 28
M  V30 32 1 13 29
M  V30 33 1 14 30
M  V30 34 1 15 31
M  V30 35 1 17 32
M  V30 36 1 18 33
M  V30 37 1 20 34
M  V30 END BOND
M  V30 END CTAB
M  END
>  <Dataset>  (86) 
ChEMBL_Kinases

>  <Ligand_Instance>  (86) 
nan

>  <PDB_ID>  (86) 
nan

>  <Standardized_SMILES>  (86) 
COc1cc2c(-c3cnc(-c4ccc[nH]4)o3)c[nH]c2cc1Br

>  <Name>  (86) 
nan

>  <Pocket>  (86) 
nan

>  <ATP_Site>  (86) 
nan

>  <Peripheral>  (86) 
nan

>  <Num_H_Atoms_ProtBoundConf>  (86) 
nan

>  <Num_Resolved_Atoms>  (86) 
nan

>  <Num_Not_Resolved_Atoms>  (86) 
nan

$$$$
CHEMBL103667
     RDKit          3D

  0  0  0  0  0  0  0  0  0  0999 V3000
M  V30 BEGIN CTAB
M  V30 COUNTS 76 80 0 0 0
M  V30 BEGIN ATOM
M  V30 1 C 4.972798 1.303741 3.426766 0
M  V30 2 C 3.812348 1.829191 2.661679 0
M  V30 3 C 4.046755 2.807340 1.724311 0
M  V30 4 C 2.945113 3.282447 1.021466 0
M  V30 5 C 1.656897 2.835703 1.209010 0
M  V30 6 N 0.656574 3.458915 0.375728 0
M  V30 7 N 0.076240 4.555406 0.868514 0
M  V30 8 C -0.823484 5.035292 0.009419 0
M  V30 9 C -1.735949 6.206951 0.048075 0
M  V30 10 C -3.044973 5.743093 0.699081 0
M  V30 11 C -2.084444 6.704220 -1.329136 0
M  V30 12 C -1.198211 7.321220 0.894829 0
M  V30 13 C -0.814486 4.201378 -1.084809 0
M  V30 14 C 0.116729 3.209939 -0.853817 0
M  V30 15 N 0.680075 2.054463 -1.462927 0
M  V30 16 C 0.165268 0.760968 -1.335894 0
M  V30 17 O -0.867234 0.738121 -0.623731 0
M  V30 18 N 0.671205 -0.436245 -1.899329 0
M  V30 19 C 0.165127 -1.749268 -1.789446 0
M  V30 20 C -0.989308 -2.045447 -1.115671 0
M  V30 21 C -1.497129 -3.315019 -0.988837 0
M  V30 22 C -0.847334 -4.393958 -1.553231 0
M  V30 23 O -1.169559 -5.689215 -1.551652 0
M  V30 24 C -2.086771 -6.536088 -1.093442 0
M  V30 25 C -2.209143 -6.794519 0.362133 0
M  V30 26 N -2.430941 -5.739786 1.283741 0
M  V30 27 C -3.144512 -6.367378 2.436311 0
M  V30 28 C -2.270756 -7.321901 3.179817 0
M  V30 29 O -1.192989 -6.626494 3.774743 0
M  V30 30 C -0.423127 -6.184825 2.703755 0
M  V30 31 C -1.206183 -5.208940 1.891310 0
M  V30 32 C 0.335987 -4.096759 -2.244735 0
M  V30 33 C 1.084862 -5.088109 -2.855977 0
M  V30 34 C 2.242588 -4.894717 -3.545143 0
M  V30 35 C 2.725286 -3.622238 -3.655889 0
M  V30 36 C 2.012085 -2.602194 -3.062653 0
M  V30 37 C 0.838448 -2.793932 -2.363367 0
M  V30 38 C 1.455859 1.853732 2.157063 0
M  V30 39 C 2.542035 1.374391 2.861049 0
M  V30 40 H 5.389760 0.386658 2.931496 0
M  V30 41 H 5.789710 2.044790 3.556039 0
M  V30 42 H 4.660636 0.963371 4.433856 0
M  V30 43 H 5.040022 3.202575 1.528408 0
M  V30 44 H 3.170334 4.055281 0.288593 0
M  V30 45 H -2.895738 4.846174 1.325298 0
M  V30 46 H -3.831297 5.553999 -0.052395 0
M  V30 47 H -3.432390 6.533294 1.381415 0
M  V30 48 H -3.156149 6.543918 -1.579453 0
M  V30 49 H -1.519320 6.149723 -2.127251 0
M  V30 50 H -1.831946 7.792468 -1.420161 0
M  V30 51 H -1.163701 6.949552 1.937715 0
M  V30 52 H -1.983300 8.120497 0.900909 0
M  V30 53 H -0.236096 7.725926 0.523761 0
M  V30 54 H -1.320218 4.121502 -2.032171 0
M  V30 55 H 1.539811 2.155006 -2.043620 0
M  V30 56 H 1.512344 -0.182851 -2.432537 0
M  V30 57 H -1.621572 -1.335582 -0.618939 0
M  V30 58 H -2.405299 -3.581983 -0.466884 0
M  V30 59 H -3.135830 -6.361442 -1.540903 0
M  V30 60 H -1.829279 -7.583417 -1.531833 0
M  V30 61 H -2.941306 -7.647913 0.555223 0
M  V30 62 H -1.233388 -7.290290 0.697610 0
M  V30 63 H -3.972097 -6.934979 1.976799 0
M  V30 64 H -3.542581 -5.605350 3.116760 0
M  V30 65 H -2.866872 -7.773935 3.982041 0
M  V30 66 H -1.864195 -8.072643 2.476027 0
M  V30 67 H 0.054023 -7.001283 2.154523 0
M  V30 68 H 0.465212 -5.581063 3.097523 0
M  V30 69 H -0.586402 -4.665842 1.205373 0
M  V30 70 H -1.597602 -4.440337 2.625901 0
M  V30 71 H 0.739096 -6.126564 -2.794992 0
M  V30 72 H 2.770000 -5.723825 -3.994722 0
M  V30 73 H 3.649492 -3.481324 -4.207928 0
M  V30 74 H 2.479891 -1.640976 -3.209714 0
M  V30 75 H 0.425975 1.535723 2.267338 0
M  V30 76 H 2.347128 0.601832 3.599234 0
M  V30 END ATOM
M  V30 BEGIN BOND
M  V30 1 1 1 2
M  V30 2 2 2 3
M  V30 3 1 3 4
M  V30 4 2 4 5
M  V30 5 1 5 6
M  V30 6 1 6 7
M  V30 7 2 7 8
M  V30 8 1 8 9
M  V30 9 1 9 10
M  V30 10 1 9 11
M  V30 11 1 9 12
M  V30 12 1 8 13
M  V30 13 2 13 14
M  V30 14 1 14 15
M  V30 15 1 15 16
M  V30 16 2 16 17
M  V30 17 1 16 18
M  V30 18 1 18 19
M  V30 19 2 19 20
M  V30 20 1 20 21
M  V30 21 2 21 22
M  V30 22 1 22 23
M  V30 23 1 23 24
M  V30 24 1 24 25
M  V30 25 1 25 26
M  V30 26 1 26 27
M  V30 27 1 27 28
M  V30 28 1 28 29
M  V30 29 1 29 30
M  V30 30 1 30 31
M  V30 31 1 22 32
M  V30 32 2 32 33
M  V30 33 1 33 34
M  V30 34 2 34 35
M  V30 35 1 35 36
M  V30 36 2 36 37
M  V30 37 1 5 38
M  V30 38 2 38 39
M  V30 39 1 39 2
M  V30 40 1 14 6
M  V30 41 1 37 19
M  V30 42 1 31 26
M  V30 43 1 37 32
M  V30 44 1 1 40
M  V30 45 1 1 41
M  V30 46 1 1 42
M  V30 47 1 3 43
M  V30 48 1 4 44
M  V30 49 1 10 45
M  V30 50 1 10 46
M  V30 51 1 10 47
M  V30 52 1 11 48
M  V30 53 1 11 49
M  V30 54 1 11 50
M  V30 55 1 12 51
M  V30 56 1 12 52
M  V30 57 1 12 53
M  V30 58 1 13 54
M  V30 59 1 15 55
M  V30 60 1 18 56
M  V30 61 1 20 57
M  V30 62 1 21 58
M  V30 63 1 24 59
M  V30 64 1 24 60
M  V30 65 1 25 61
M  V30 66 1 25 62
M  V30 67 1 27 63
M  V30 68 1 27 64
M  V30 69 1 28 65
M  V30 70 1 28 66
M  V30 71 1 30 67
M  V30 72 1 30 68
M  V30 73 1 31 69
M  V30 74 1 31 70
M  V30 75 1 33 71
M  V30 76 1 34 72
M  V30 77 1 35 73
M  V30 78 1 36 74
M  V30 79 1 38 75
M  V30 80 1 39 76
M  V30 END BOND
M  V30 END CTAB
M  END
>  <Dataset>  (87) 
ChEMBL_Kinases

>  <Ligand_Instance>  (87) 
nan

>  <PDB_ID>  (87) 
nan

>  <Standardized_SMILES>  (87) 
Cc1ccc(-n2nc(C(C)(C)C)cc2NC(=O)Nc2ccc(OCCN3CCOCC3)c3ccccc23)cc1

>  <Name>  (87) 
DORAMAPIMOD

>  <Pocket>  (87) 
nan

>  <ATP_Site>  (87) 
nan

>  <Peripheral>  (87) 
nan

>  <Num_H_Atoms_ProtBoundConf>  (87) 
nan

>  <Num_Resolved_Atoms>  (87) 
nan

>  <Num_Not_Resolved_Atoms>  (87) 
nan

$$$$
CHEMBL445813
     RDKit          3D

  0  0  0  0  0  0  0  0  0  0999 V3000
M  V30 BEGIN CTAB
M  V30 COUNTS 42 44 0 0 0
M  V30 BEGIN ATOM
M  V30 1 O 1.389057 -0.833700 1.232585 0
M  V30 2 C 1.067248 0.177934 0.528574 0
M  V30 3 N 1.527404 0.461225 -0.797917 0
M  V30 4 C 2.442427 -0.463923 -1.428024 0
M  V30 5 C 1.875783 -0.968449 -2.735986 0
M  V30 6 C 1.752039 0.181995 -3.682506 0
M  V30 7 N 3.005292 0.839491 -3.891650 0
M  V30 8 C 3.569498 1.349220 -2.678283 0
M  V30 9 C 3.769358 0.193059 -1.720794 0
M  V30 10 C 0.144526 1.124508 1.145582 0
M  V30 11 N -0.357916 2.265398 0.638074 0
M  V30 12 N -1.169620 2.862544 1.498528 0
M  V30 13 C -1.240023 2.130356 2.630445 0
M  V30 14 C -0.406936 1.028299 2.407037 0
M  V30 15 N -0.209290 0.006522 3.379396 0
M  V30 16 C -1.186641 -0.993677 3.175412 0
M  V30 17 O -1.883503 -0.589403 2.179961 0
M  V30 18 C -1.535007 -2.255153 3.791098 0
M  V30 19 C -2.624343 -2.865029 3.179636 0
M  V30 20 Cl -3.562502 -2.270160 1.800968 0
M  V30 21 C -3.048829 -4.095221 3.696386 0
M  V30 22 C -2.437108 -4.699720 4.760116 0
M  V30 23 C -1.375268 -4.095956 5.349081 0
M  V30 24 C -0.955354 -2.900108 4.853943 0
M  V30 25 Cl 0.396287 -2.146504 5.615018 0
M  V30 26 H 1.191168 1.325635 -1.272750 0
M  V30 27 H 2.657467 -1.301442 -0.729138 0
M  V30 28 H 2.609463 -1.675812 -3.191947 0
M  V30 29 H 0.903109 -1.458018 -2.557807 0
M  V30 30 H 1.039532 0.913875 -3.260883 0
M  V30 31 H 1.382990 -0.226180 -4.647575 0
M  V30 32 H 3.636107 0.244619 -4.460179 0
M  V30 33 H 4.545145 1.804842 -2.864555 0
M  V30 34 H 2.844074 2.085740 -2.267522 0
M  V30 35 H 4.343330 0.464463 -0.828457 0
M  V30 36 H 4.391254 -0.551320 -2.281839 0
M  V30 37 H -1.634165 3.761022 1.240163 0
M  V30 38 H -1.842902 2.420314 3.476630 0
M  V30 39 H 0.421445 -0.221101 4.175193 0
M  V30 40 H -3.889315 -4.612720 3.260320 0
M  V30 41 H -2.797846 -5.649881 5.126780 0
M  V30 42 H -0.882543 -4.560130 6.188597 0
M  V30 END ATOM
M  V30 BEGIN BOND
M  V30 1 2 1 2
M  V30 2 1 2 3
M  V30 3 1 3 4
M  V30 4 1 4 5
M  V30 5 1 5 6
M  V30 6 1 6 7
M  V30 7 1 7 8
M  V30 8 1 8 9
M  V30 9 1 2 10
M  V30 10 2 10 11
M  V30 11 1 11 12
M  V30 12 1 12 13
M  V30 13 2 13 14
M  V30 14 1 14 15
M  V30 15 1 15 16
M  V30 16 2 16 17
M  V30 17 1 16 18
M  V30 18 2 18 19
M  V30 19 1 19 20
M  V30 20 1 19 21
M  V30 21 2 21 22
M  V30 22 1 22 23
M  V30 23 2 23 24
M  V30 24 1 24 25
M  V30 25 1 9 4
M  V30 26 1 14 10
M  V30 27 1 24 18
M  V30 28 1 3 26
M  V30 29 1 4 27
M  V30 30 1 5 28
M  V30 31 1 5 29
M  V30 32 1 6 30
M  V30 33 1 6 31
M  V30 34 1 7 32
M  V30 35 1 8 33
M  V30 36 1 8 34
M  V30 37 1 9 35
M  V30 38 1 9 36
M  V30 39 1 12 37
M  V30 40 1 13 38
M  V30 41 1 15 39
M  V30 42 1 21 40
M  V30 43 1 22 41
M  V30 44 1 23 42
M  V30 END BOND
M  V30 END CTAB
M  END
>  <Dataset>  (88) 
ChEMBL_Kinases

>  <Ligand_Instance>  (88) 
nan

>  <PDB_ID>  (88) 
nan

>  <Standardized_SMILES>  (88) 
O=C(NC1CCNCC1)c1n[nH]cc1NC(=O)c1c(Cl)cccc1Cl

>  <Name>  (88) 
AT-7519

>  <Pocket>  (88) 
nan

>  <ATP_Site>  (88) 
nan

>  <Peripheral>  (88) 
nan

>  <Num_H_Atoms_ProtBoundConf>  (88) 
nan

>  <Num_Resolved_Atoms>  (88) 
nan

>  <Num_Not_Resolved_Atoms>  (88) 
nan

$$$$
CHEMBL2103840
     RDKit          3D

  0  0  0  0  0  0  0  0  0  0999 V3000
M  V30 BEGIN CTAB
M  V30 COUNTS 57 60 0 0 0
M  V30 BEGIN ATOM
M  V30 1 C 2.045621 -4.611178 1.379276 0
M  V30 2 C 2.599335 -3.648899 0.325774 0
M  V30 3 C 2.359831 -2.259672 0.789052 0
M  V30 4 C 3.277044 -1.407741 1.314899 0
M  V30 5 N 2.683102 -0.253771 1.611481 0
M  V30 6 N 1.409690 -0.317070 1.299252 0
M  V30 7 C 0.475195 0.632219 1.447719 0
M  V30 8 N 0.637682 1.936583 1.955602 0
M  V30 9 C 1.699147 2.790864 2.401100 0
M  V30 10 C 2.630279 3.221250 1.338720 0
M  V30 11 C 3.857475 2.795007 0.882081 0
M  V30 12 C 4.505593 3.378502 -0.166751 0
M  V30 13 C 3.935097 4.451656 -0.827655 0
M  V30 14 N 2.746434 4.885625 -0.405532 0 CHG=1 VAL=4
M  V30 15 O 2.246998 5.952777 -1.111971 0 CHG=-1 VAL=1
M  V30 16 C 2.089173 4.310373 0.641234 0
M  V30 17 C -0.796878 0.276474 1.033803 0
M  V30 18 C -1.065947 -0.960519 0.511436 0
M  V30 19 N -2.350124 -1.376670 0.077945 0
M  V30 20 C -3.592292 -0.635007 0.168786 0
M  V30 21 C -4.314354 -1.352665 1.316053 0
M  V30 22 C -4.459556 -2.807314 1.095377 0
M  V30 23 C -3.791834 -3.359152 -0.117245 0
M  V30 24 C -2.531908 -2.676287 -0.537906 0 CFG=1
M  V30 25 C -2.541502 -2.546281 -2.066481 0
M  V30 26 C -2.727825 -3.907866 -2.710055 0
M  V30 27 O -1.700771 -4.782769 -2.359855 0
M  V30 28 N -0.046274 -1.824617 0.413182 0
M  V30 29 C 1.199131 -1.541132 0.794503 0
M  V30 30 H 2.821776 -5.268282 1.791275 0
M  V30 31 H 1.326195 -5.255069 0.860038 0
M  V30 32 H 1.504158 -4.039266 2.164064 0
M  V30 33 H 2.116749 -3.780690 -0.651028 0
M  V30 34 H 3.685619 -3.850328 0.265384 0
M  V30 35 H 4.331474 -1.545686 1.501871 0
M  V30 36 H -0.250311 2.520999 2.066791 0
M  V30 37 H 2.351885 2.217981 3.133037 0
M  V30 38 H 1.377224 3.669290 2.978164 0
M  V30 39 H 4.222047 1.973560 1.462389 0
M  V30 40 H 5.461588 2.905869 -0.380903 0
M  V30 41 H 4.506252 4.860929 -1.647255 0
M  V30 42 H 1.126847 4.810814 0.834241 0
M  V30 43 H -1.646311 0.937851 1.093413 0
M  V30 44 H -4.198731 -0.780114 -0.758388 0
M  V30 45 H -3.489908 0.410794 0.451757 0
M  V30 46 H -5.279590 -0.849660 1.469127 0
M  V30 47 H -3.724445 -1.123894 2.251610 0
M  V30 48 H -5.541867 -3.055121 1.106935 0
M  V30 49 H -4.035645 -3.341516 1.984419 0
M  V30 50 H -3.570405 -4.442022 -0.014697 0
M  V30 51 H -4.541583 -3.286867 -0.939546 0
M  V30 52 H -1.638006 -3.280945 -0.285534 0
M  V30 53 H -1.691284 -1.998223 -2.461303 0
M  V30 54 H -3.463867 -1.954552 -2.341260 0
M  V30 55 H -2.648051 -3.746213 -3.805345 0
M  V30 56 H -3.677159 -4.365065 -2.436576 0
M  V30 57 H -1.850200 -5.221048 -1.495414 0
M  V30 END ATOM
M  V30 BEGIN BOND
M  V30 1 1 1 2
M  V30 2 1 2 3
M  V30 3 1 3 4
M  V30 4 2 4 5
M  V30 5 1 5 6
M  V30 6 1 6 7
M  V30 7 1 7 8
M  V30 8 1 8 9
M  V30 9 1 9 10
M  V30 10 2 10 11
M  V30 11 1 11 12
M  V30 12 2 12 13
M  V30 13 1 13 14
M  V30 14 1 14 15
M  V30 15 2 14 16
M  V30 16 2 7 17
M  V30 17 1 17 18
M  V30 18 1 18 19
M  V30 19 1 19 20
M  V30 20 1 20 21
M  V30 21 1 21 22
M  V30 22 1 22 23
M  V30 23 1 23 24
M  V30 24 1 24 25
M  V30 25 1 25 26
M  V30 26 1 26 27
M  V30 27 2 18 28
M  V30 28 1 28 29
M  V30 29 2 29 3
M  V30 30 1 29 6
M  V30 31 1 16 10
M  V30 32 1 24 19
M  V30 33 1 1 30
M  V30 34 1 1 31
M  V30 35 1 1 32
M  V30 36 1 2 33
M  V30 37 1 2 34
M  V30 38 1 4 35
M  V30 39 1 8 36
M  V30 40 1 9 37
M  V30 41 1 9 38
M  V30 42 1 11 39
M  V30 43 1 12 40
M  V30 44 1 13 41
M  V30 45 1 16 42
M  V30 46 1 17 43
M  V30 47 1 20 44
M  V30 48 1 20 45
M  V30 49 1 21 46
M  V30 50 1 21 47
M  V30 51 1 22 48
M  V30 52 1 22 49
M  V30 53 1 23 50
M  V30 54 1 23 51
M  V30 55 1 24 52 CFG=3
M  V30 56 1 25 53
M  V30 57 1 25 54
M  V30 58 1 26 55
M  V30 59 1 26 56
M  V30 60 1 27 57
M  V30 END BOND
M  V30 END CTAB
M  END
>  <Dataset>  (89) 
ChEMBL_Kinases

>  <Ligand_Instance>  (89) 
nan

>  <PDB_ID>  (89) 
nan

>  <Standardized_SMILES>  (89) 
CCc1cnn2c(NCc3ccc[n+]([O-])c3)cc(N3CCCC[C@H]3CCO)nc12

>  <Name>  (89) 
DINACICLIB

>  <Pocket>  (89) 
nan

>  <ATP_Site>  (89) 
nan

>  <Peripheral>  (89) 
nan

>  <Num_H_Atoms_ProtBoundConf>  (89) 
nan

>  <Num_Resolved_Atoms>  (89) 
nan

>  <Num_Not_Resolved_Atoms>  (89) 
nan

$$$$
CHEMBL3039513
     RDKit          3D

  0  0  0  0  0  0  0  0  0  0999 V3000
M  V30 BEGIN CTAB
M  V30 COUNTS 47 49 0 0 0
M  V30 BEGIN ATOM
M  V30 1 C -1.002193 -3.254162 -1.059758 0
M  V30 2 C -0.154818 -3.839732 0.030252 0
M  V30 3 C 0.421481 -2.760439 0.955089 0 CFG=1
M  V30 4 C 1.251072 -3.481960 2.003837 0
M  V30 5 N 1.218577 -1.905761 0.136149 0
M  V30 6 C 2.033722 -0.746839 0.234926 0
M  V30 7 C 3.400985 -0.885161 0.496319 0
M  V30 8 C 4.228810 0.227845 0.599551 0
M  V30 9 N 3.663583 1.437298 0.438507 0
M  V30 10 C 2.351872 1.593763 0.186644 0
M  V30 11 C 1.789078 2.928921 0.020251 0
M  V30 12 C 2.478765 4.114451 0.094393 0
M  V30 13 N 1.607873 5.143863 -0.115429 0
M  V30 14 C 0.385065 4.592519 -0.318199 0
M  V30 15 N -0.811924 5.156291 -0.567461 0
M  V30 16 C -1.929879 4.408089 -0.741631 0
M  V30 17 C -1.884827 3.014716 -0.669131 0
M  V30 18 C -0.652543 2.452181 -0.413342 0
M  V30 19 C 0.464743 3.215137 -0.239981 0
M  V30 20 N 1.565742 0.506210 0.090018 0
M  V30 21 C -0.665592 -2.064216 1.685434 0
M  V30 22 O -1.009474 -0.850658 1.710210 0
M  V30 23 N -1.477252 -2.913878 2.515115 0
M  V30 24 C -2.554442 -2.225658 3.239153 0
M  V30 25 C -3.267272 -3.322842 4.040711 0
M  V30 26 F -2.365914 -3.911278 4.906714 0
M  V30 27 F -4.310050 -2.819287 4.782027 0
M  V30 28 F -3.684362 -4.342270 3.182666 0
M  V30 29 H -1.520151 -2.361279 -0.659348 0
M  V30 30 H -0.354697 -3.033904 -1.928147 0
M  V30 31 H -1.770790 -3.990255 -1.333411 0
M  V30 32 H 0.690943 -4.448539 -0.345055 0
M  V30 33 H -0.768801 -4.524589 0.657514 0
M  V30 34 H 0.752750 -4.442839 2.223281 0
M  V30 35 H 1.298639 -2.913761 2.949940 0
M  V30 36 H 2.239687 -3.656714 1.554291 0
M  V30 37 H 1.355899 -2.027054 -0.887491 0
M  V30 38 H 3.839959 -1.879224 0.623913 0
M  V30 39 H 5.299535 0.083662 0.805898 0
M  V30 40 H 3.532319 4.280786 0.283299 0
M  V30 41 H 1.845463 6.161554 -0.117914 0
M  V30 42 H -2.910864 4.827327 -0.943943 0
M  V30 43 H -2.761792 2.388577 -0.803944 0
M  V30 44 H -0.612468 1.363935 -0.355807 0
M  V30 45 H -1.295374 -3.959170 2.585804 0
M  V30 46 H -2.096365 -1.557126 4.014390 0
M  V30 47 H -3.264629 -1.722801 2.575296 0
M  V30 END ATOM
M  V30 BEGIN BOND
M  V30 1 1 1 2
M  V30 2 1 2 3
M  V30 3 1 3 4
M  V30 4 1 3 5 CFG=3
M  V30 5 1 5 6
M  V30 6 2 6 7
M  V30 7 1 7 8
M  V30 8 2 8 9
M  V30 9 1 9 10
M  V30 10 1 10 11
M  V30 11 2 11 12
M  V30 12 1 12 13
M  V30 13 1 13 14
M  V30 14 2 14 15
M  V30 15 1 15 16
M  V30 16 2 16 17
M  V30 17 1 17 18
M  V30 18 2 18 19
M  V30 19 2 10 20
M  V30 20 1 3 21
M  V30 21 2 21 22
M  V30 22 1 21 23
M  V30 23 1 23 24
M  V30 24 1 24 25
M  V30 25 1 25 26
M  V30 26 1 25 27
M  V30 27 1 25 28
M  V30 28 1 20 6
M  V30 29 1 19 11
M  V30 30 1 19 14
M  V30 31 1 1 29
M  V30 32 1 1 30
M  V30 33 1 1 31
M  V30 34 1 2 32
M  V30 35 1 2 33
M  V30 36 1 4 34
M  V30 37 1 4 35
M  V30 38 1 4 36
M  V30 39 1 5 37
M  V30 40 1 7 38
M  V30 41 1 8 39
M  V30 42 1 12 40
M  V30 43 1 13 41
M  V30 44 1 16 42
M  V30 45 1 17 43
M  V30 46 1 18 44
M  V30 47 1 23 45
M  V30 48 1 24 46
M  V30 49 1 24 47
M  V30 END BOND
M  V30 END CTAB
M  END
>  <Dataset>  (90) 
ChEMBL_Kinases

>  <Ligand_Instance>  (90) 
nan

>  <PDB_ID>  (90) 
nan

>  <Standardized_SMILES>  (90) 
CC[C@@](C)(Nc1ccnc(-c2c[nH]c3ncccc23)n1)C(=O)NCC(F)(F)F

>  <Name>  (90) 
DECERNOTINIB

>  <Pocket>  (90) 
nan

>  <ATP_Site>  (90) 
nan

>  <Peripheral>  (90) 
nan

>  <Num_H_Atoms_ProtBoundConf>  (90) 
nan

>  <Num_Resolved_Atoms>  (90) 
nan

>  <Num_Not_Resolved_Atoms>  (90) 
nan

$$$$
CHEMBL4443828
     RDKit          3D

  0  0  0  0  0  0  0  0  0  0999 V3000
M  V30 BEGIN CTAB
M  V30 COUNTS 74 78 0 0 0
M  V30 BEGIN ATOM
M  V30 1 C -2.363934 -2.364730 0.743816 0
M  V30 2 O -1.632547 -1.979794 1.862732 0
M  V30 3 C -0.233642 -1.944144 1.891559 0
M  V30 4 C 0.357544 -2.334243 0.682924 0
M  V30 5 C 1.717323 -2.319819 0.646795 0
M  V30 6 C 2.322285 -2.710610 -0.530500 0
M  V30 7 O 1.728737 -3.107124 -1.689620 0
M  V30 8 C 0.894799 -2.379037 -2.508218 0
M  V30 9 C 0.395031 -1.099775 -2.490778 0
M  V30 10 C -0.444729 -0.620378 -3.470705 0
M  V30 11 C -0.808536 -1.454379 -4.525278 0
M  V30 12 N -1.673439 -0.913633 -5.513959 0
M  V30 13 S -3.108083 0.019458 -5.253298 0
M  V30 14 O -3.657520 0.380589 -6.603647 0
M  V30 15 O -2.752674 1.335065 -4.579228 0
M  V30 16 C -4.324771 -0.849323 -4.379263 0
M  V30 17 C -4.138280 -2.144818 -3.954529 0
M  V30 18 C -5.176407 -2.752812 -3.261950 0
M  V30 19 F -5.047528 -4.042973 -2.813487 0
M  V30 20 C -6.349269 -2.054019 -3.021615 0
M  V30 21 C -6.533982 -0.750657 -3.450424 0
M  V30 22 C -5.497868 -0.140117 -4.142813 0
M  V30 23 F -5.684270 1.142238 -4.563080 0
M  V30 24 C -0.330619 -2.748071 -4.584915 0
M  V30 25 C 0.521938 -3.202906 -3.569928 0
M  V30 26 F 0.877609 -4.506572 -3.818106 0
M  V30 27 C 3.712151 -2.719840 -0.597333 0
M  V30 28 C 4.488209 -2.347684 0.481747 0
M  V30 29 N 3.856262 -1.979024 1.589660 0
M  V30 30 C 2.522014 -1.957757 1.691643 0
M  V30 31 C 1.854779 -1.594078 2.824408 0
M  V30 32 C 0.498923 -1.553346 3.025470 0
M  V30 33 O -0.295515 -1.236559 4.022556 0
M  V30 34 C -0.416368 -0.796672 5.270150 0
M  V30 35 C -0.072285 0.563185 5.733344 0
M  V30 36 C 1.276167 1.122655 5.542680 0
M  V30 37 N 1.600763 1.321233 4.171034 0
M  V30 38 C 0.829110 2.368218 3.540587 0
M  V30 39 C 0.942087 2.106512 2.059153 0
M  V30 40 N 2.299808 2.220274 1.650851 0
M  V30 41 C 2.410098 1.588703 0.347068 0
M  V30 42 C 3.291407 1.681878 2.503981 0
M  V30 43 C 3.006473 1.544917 3.943965 0
M  V30 44 H -2.335939 -3.475766 0.563360 0
M  V30 45 H -2.096711 -1.881907 -0.202972 0
M  V30 46 H -3.451686 -2.106636 0.898421 0
M  V30 47 H -0.209429 -2.637894 -0.173960 0
M  V30 48 H 0.776228 -0.581053 -1.599924 0
M  V30 49 H -0.763956 0.403162 -3.334246 0
M  V30 50 H -1.316706 -1.163571 -6.481504 0
M  V30 51 H -3.204461 -2.678746 -4.154840 0
M  V30 52 H -7.170579 -2.510200 -2.484594 0
M  V30 53 H -7.446760 -0.193788 -3.268438 0
M  V30 54 H -0.673045 -3.302556 -5.436879 0
M  V30 55 H 4.280364 -3.014366 -1.484437 0
M  V30 56 H 5.585638 -2.346103 0.456101 0
M  V30 57 H 2.402963 -1.296481 3.717808 0
M  V30 58 H 0.127805 -1.495792 6.017130 0
M  V30 59 H -1.510615 -0.991280 5.629094 0
M  V30 60 H -0.876818 1.240495 5.272763 0
M  V30 61 H -0.369693 0.682238 6.848248 0
M  V30 62 H 2.062171 0.456327 5.993889 0
M  V30 63 H 1.397254 2.091265 6.108423 0
M  V30 64 H 1.432375 3.309471 3.716382 0
M  V30 65 H -0.176162 2.474039 3.908216 0
M  V30 66 H 0.627729 1.060611 1.877937 0
M  V30 67 H 0.344788 2.829729 1.462210 0
M  V30 68 H 1.654768 0.773209 0.260798 0
M  V30 69 H 2.093733 2.353737 -0.393411 0
M  V30 70 H 3.412152 1.160809 0.147445 0
M  V30 71 H 4.181502 2.386512 2.426429 0
M  V30 72 H 3.728630 0.725985 2.090437 0
M  V30 73 H 3.559261 0.681291 4.358388 0
M  V30 74 H 3.310163 2.442021 4.549743 0
M  V30 END ATOM
M  V30 BEGIN BOND
M  V30 1 1 1 2
M  V30 2 1 2 3
M  V30 3 2 3 4
M  V30 4 1 4 5
M  V30 5 2 5 6
M  V30 6 1 6 7
M  V30 7 1 7 8
M  V30 8 2 8 9
M  V30 9 1 9 10
M  V30 10 2 10 11
M  V30 11 1 11 12
M  V30 12 1 12 13
M  V30 13 2 13 14
M  V30 14 2 13 15
M  V30 15 1 13 16
M  V30 16 2 16 17
M  V30 17 1 17 18
M  V30 18 1 18 19
M  V30 19 2 18 20
M  V30 20 1 20 21
M  V30 21 2 21 22
M  V30 22 1 22 23
M  V30 23 1 11 24
M  V30 24 2 24 25
M  V30 25 1 25 26
M  V30 26 1 6 27
M  V30 27 2 27 28
M  V30 28 1 28 29
M  V30 29 2 29 30
M  V30 30 1 30 31
M  V30 31 2 31 32
M  V30 32 1 32 33
M  V30 33 1 33 34
M  V30 34 1 34 35
M  V30 35 1 35 36
M  V30 36 1 36 37
M  V30 37 1 37 38
M  V30 38 1 38 39
M  V30 39 1 39 40
M  V30 40 1 40 41
M  V30 41 1 40 42
M  V30 42 1 42 43
M  V30 43 1 32 3
M  V30 44 1 43 37
M  V30 45 1 30 5
M  V30 46 1 25 8
M  V30 47 1 22 16
M  V30 48 1 1 44
M  V30 49 1 1 45
M  V30 50 1 1 46
M  V30 51 1 4 47
M  V30 52 1 9 48
M  V30 53 1 10 49
M  V30 54 1 12 50
M  V30 55 1 17 51
M  V30 56 1 20 52
M  V30 57 1 21 53
M  V30 58 1 24 54
M  V30 59 1 27 55
M  V30 60 1 28 56
M  V30 61 1 31 57
M  V30 62 1 34 58
M  V30 63 1 34 59
M  V30 64 1 35 60
M  V30 65 1 35 61
M  V30 66 1 36 62
M  V30 67 1 36 63
M  V30 68 1 38 64
M  V30 69 1 38 65
M  V30 70 1 39 66
M  V30 71 1 39 67
M  V30 72 1 41 68
M  V30 73 1 41 69
M  V30 74 1 41 70
M  V30 75 1 42 71
M  V30 76 1 42 72
M  V30 77 1 43 73
M  V30 78 1 43 74
M  V30 END BOND
M  V30 END CTAB
M  END
>  <Dataset>  (91) 
ChEMBL_Kinases

>  <Ligand_Instance>  (91) 
nan

>  <PDB_ID>  (91) 
nan

>  <Standardized_SMILES>  (91) 
COc1cc2c(Oc3ccc(NS(=O)(=O)c4cc(F)ccc4F)cc3F)ccnc2cc1OCCCN1CCN(C)CC1

>  <Name>  (91) 
nan

>  <Pocket>  (91) 
nan

>  <ATP_Site>  (91) 
nan

>  <Peripheral>  (91) 
nan

>  <Num_H_Atoms_ProtBoundConf>  (91) 
nan

>  <Num_Resolved_Atoms>  (91) 
nan

>  <Num_Not_Resolved_Atoms>  (91) 
nan

$$$$
CHEMBL2386889
     RDKit          3D

  0  0  0  0  0  0  0  0  0  0999 V3000
M  V30 BEGIN CTAB
M  V30 COUNTS 41 44 0 0 0
M  V30 BEGIN ATOM
M  V30 1 C -1.323723 -4.456906 2.964308 0
M  V30 2 N -0.026220 -3.803331 2.810878 0
M  V30 3 C 0.366770 -3.105848 1.719294 0
M  V30 4 C 1.665855 -2.640038 1.960234 0
M  V30 5 C 2.320650 -1.849085 0.918000 0
M  V30 6 C 3.627261 -2.047544 0.520050 0
M  V30 7 N 3.838557 -1.120563 -0.452025 0
M  V30 8 N 2.744428 -0.407823 -0.636077 0
M  V30 9 C 2.423969 0.611126 -1.456794 0
M  V30 10 N 3.406407 1.109623 -2.369015 0
M  V30 11 C 1.180689 1.213269 -1.469303 0
M  V30 12 Br 0.785605 2.664346 -2.665545 0
M  V30 13 C 0.204498 0.769740 -0.611887 0
M  V30 14 C -1.154300 1.351404 -0.553343 0 CFG=2
M  V30 15 C -1.222007 2.504686 0.456687 0
M  V30 16 C -0.525392 2.031368 1.700563 0
M  V30 17 C -1.210441 0.791629 2.220646 0
M  V30 18 N -1.445985 -0.211755 1.230360 0
M  V30 19 C -2.102962 0.301816 0.041486 0
M  V30 20 N 0.548766 -0.262405 0.210647 0
M  V30 21 C 1.764363 -0.815496 0.189148 0
M  V30 22 C 2.005982 -3.092467 3.225068 0
M  V30 23 N 0.946937 -3.794647 3.703269 0
M  V30 24 H -2.040356 -3.810545 3.512800 0
M  V30 25 H -1.238128 -5.465279 3.404127 0
M  V30 26 H -1.783698 -4.615255 1.945677 0
M  V30 27 H -0.276315 -2.974498 0.842773 0
M  V30 28 H 4.389691 -2.746043 0.839337 0
M  V30 29 H 4.167203 1.850739 -2.405409 0
M  V30 30 H 3.290524 0.529267 -3.245567 0
M  V30 31 H -1.574089 1.621920 -1.531651 0
M  V30 32 H -0.767291 3.431323 0.069503 0
M  V30 33 H -2.303949 2.622741 0.700560 0
M  V30 34 H -0.592942 2.799102 2.510198 0
M  V30 35 H 0.540521 1.907355 1.490091 0
M  V30 36 H -2.105137 1.076699 2.788180 0
M  V30 37 H -0.503519 0.334593 2.971127 0
M  V30 38 H -2.151518 -0.881490 1.658999 0
M  V30 39 H -3.002666 0.852391 0.379167 0
M  V30 40 H -2.299157 -0.529413 -0.644955 0
M  V30 41 H 2.983956 -2.840754 3.613475 0
M  V30 END ATOM
M  V30 BEGIN BOND
M  V30 1 1 1 2
M  V30 2 1 2 3
M  V30 3 2 3 4
M  V30 4 1 4 5
M  V30 5 1 5 6
M  V30 6 2 6 7
M  V30 7 1 7 8
M  V30 8 1 8 9
M  V30 9 1 9 10
M  V30 10 2 9 11
M  V30 11 1 11 12
M  V30 12 1 11 13
M  V30 13 1 13 14
M  V30 14 1 14 15
M  V30 15 1 15 16
M  V30 16 1 16 17
M  V30 17 1 17 18
M  V30 18 1 18 19
M  V30 19 2 13 20
M  V30 20 1 20 21
M  V30 21 1 4 22
M  V30 22 2 22 23
M  V30 23 1 23 2
M  V30 24 2 21 5
M  V30 25 1 21 8
M  V30 26 1 19 14
M  V30 27 1 1 24
M  V30 28 1 1 25
M  V30 29 1 1 26
M  V30 30 1 3 27
M  V30 31 1 6 28
M  V30 32 1 10 29
M  V30 33 1 10 30
M  V30 34 1 14 31 CFG=3
M  V30 35 1 15 32
M  V30 36 1 15 33
M  V30 37 1 16 34
M  V30 38 1 16 35
M  V30 39 1 17 36
M  V30 40 1 17 37
M  V30 41 1 18 38
M  V30 42 1 19 39
M  V30 43 1 19 40
M  V30 44 1 22 41
M  V30 END BOND
M  V30 END CTAB
M  END
>  <Dataset>  (92) 
ChEMBL_Kinases

>  <Ligand_Instance>  (92) 
nan

>  <PDB_ID>  (92) 
nan

>  <Standardized_SMILES>  (92) 
Cn1cc(-c2cnn3c(N)c(Br)c([C@@H]4CCCNC4)nc23)cn1

>  <Name>  (92) 
SCH-900776

>  <Pocket>  (92) 
nan

>  <ATP_Site>  (92) 
nan

>  <Peripheral>  (92) 
nan

>  <Num_H_Atoms_ProtBoundConf>  (92) 
nan

>  <Num_Resolved_Atoms>  (92) 
nan

>  <Num_Not_Resolved_Atoms>  (92) 
nan

$$$$
CHEMBL565612
     RDKit          3D

  0  0  0  0  0  0  0  0  0  0999 V3000
M  V30 BEGIN CTAB
M  V30 COUNTS 55 60 0 0 0
M  V30 BEGIN ATOM
M  V30 1 C 3.787974 -1.320904 4.325257 0
M  V30 2 N 3.272385 -0.947360 3.049866 0
M  V30 3 C 2.038378 -0.252255 3.031793 0
M  V30 4 C 0.838310 -0.993615 2.563031 0
M  V30 5 N 1.061683 -2.042317 1.620195 0
M  V30 6 C 0.304679 -2.276090 0.440970 0
M  V30 7 N -0.830086 -1.564085 0.266859 0
M  V30 8 C -1.618025 -1.739460 -0.842769 0
M  V30 9 C -2.788876 -0.887311 -0.813044 0
M  V30 10 C -2.729954 0.441730 -0.603695 0
M  V30 11 C -1.457932 1.151590 -0.390574 0
M  V30 12 C -0.345827 0.958464 -1.206240 0
M  V30 13 N 0.660999 1.734514 -0.765420 0
M  V30 14 C 0.231127 2.409113 0.294882 0
M  V30 15 C 0.882217 3.331668 1.112845 0
M  V30 16 C 0.183582 3.894296 2.183827 0
M  V30 17 C -1.147131 3.534196 2.429200 0
M  V30 18 C -1.791499 2.619730 1.618998 0
M  V30 19 C -1.094998 2.079272 0.573802 0
M  V30 20 C -4.079097 1.004815 -0.614713 0
M  V30 21 O -4.309323 2.225547 -0.448427 0
M  V30 22 N -5.004834 -0.035380 -0.838974 0
M  V30 23 C -4.207001 -1.199633 -0.959405 0
M  V30 24 O -4.751417 -2.323807 -1.166378 0
M  V30 25 C -1.195493 -2.665964 -1.760194 0
M  V30 26 C -2.009453 -2.794662 -2.858267 0
M  V30 27 C -1.670630 -3.693894 -3.841651 0
M  V30 28 C -0.493920 -4.432900 -3.656033 0
M  V30 29 C 0.331670 -4.308033 -2.554428 0
M  V30 30 C -0.049464 -3.397607 -1.600035 0
M  V30 31 N 0.697537 -3.182288 -0.472087 0
M  V30 32 C 2.174809 -2.824266 2.104842 0
M  V30 33 C 3.399369 -1.956686 2.050341 0
M  V30 34 H 4.118201 -0.430387 4.914546 0
M  V30 35 H 4.735192 -1.889733 4.143975 0
M  V30 36 H 3.141554 -2.010983 4.907448 0
M  V30 37 H 2.200516 0.699246 2.474963 0
M  V30 38 H 1.825995 0.083238 4.088004 0
M  V30 39 H 0.205558 -1.308913 3.423536 0
M  V30 40 H 0.199762 -0.230349 2.019779 0
M  V30 41 H -0.283654 0.286886 -2.066717 0
M  V30 42 H 1.606304 1.754517 -1.230371 0
M  V30 43 H 1.902271 3.624170 0.942897 0
M  V30 44 H 0.658888 4.614668 2.839895 0
M  V30 45 H -1.699740 3.972167 3.272589 0
M  V30 46 H -2.832033 2.336803 1.820958 0
M  V30 47 H -6.029877 0.052012 -0.903202 0
M  V30 48 H -2.903242 -2.214176 -3.012089 0
M  V30 49 H -2.234945 -3.897765 -4.766745 0
M  V30 50 H -0.214427 -5.143701 -4.419785 0
M  V30 51 H 1.231543 -4.893055 -2.442864 0
M  V30 52 H 1.978810 -3.211214 3.129014 0
M  V30 53 H 2.329397 -3.681162 1.425315 0
M  V30 54 H 4.319759 -2.542428 2.205002 0
M  V30 55 H 3.399488 -1.457188 1.066726 0
M  V30 END ATOM
M  V30 BEGIN BOND
M  V30 1 1 1 2
M  V30 2 1 2 3
M  V30 3 1 3 4
M  V30 4 1 4 5
M  V30 5 1 5 6
M  V30 6 2 6 7
M  V30 7 1 7 8
M  V30 8 1 8 9
M  V30 9 2 9 10
M  V30 10 1 10 11
M  V30 11 2 11 12
M  V30 12 1 12 13
M  V30 13 1 13 14
M  V30 14 2 14 15
M  V30 15 1 15 16
M  V30 16 2 16 17
M  V30 17 1 17 18
M  V30 18 2 18 19
M  V30 19 1 10 20
M  V30 20 2 20 21
M  V30 21 1 20 22
M  V30 22 1 22 23
M  V30 23 2 23 24
M  V30 24 2 8 25
M  V30 25 1 25 26
M  V30 26 2 26 27
M  V30 27 1 27 28
M  V30 28 2 28 29
M  V30 29 1 29 30
M  V30 30 2 30 31
M  V30 31 1 5 32
M  V30 32 1 32 33
M  V30 33 1 33 2
M  V30 34 1 31 6
M  V30 35 1 23 9
M  V30 36 1 30 25
M  V30 37 1 19 11
M  V30 38 1 19 14
M  V30 39 1 1 34
M  V30 40 1 1 35
M  V30 41 1 1 36
M  V30 42 1 3 37
M  V30 43 1 3 38
M  V30 44 1 4 39
M  V30 45 1 4 40
M  V30 46 1 12 41
M  V30 47 1 13 42
M  V30 48 1 15 43
M  V30 49 1 16 44
M  V30 50 1 17 45
M  V30 51 1 18 46
M  V30 52 1 22 47
M  V30 53 1 26 48
M  V30 54 1 27 49
M  V30 55 1 28 50
M  V30 56 1 29 51
M  V30 57 1 32 52
M  V30 58 1 32 53
M  V30 59 1 33 54
M  V30 60 1 33 55
M  V30 END BOND
M  V30 END CTAB
M  END
>  <Dataset>  (93) 
ChEMBL_Kinases

>  <Ligand_Instance>  (93) 
nan

>  <PDB_ID>  (93) 
nan

>  <Standardized_SMILES>  (93) 
CN1CCN(c2nc(C3=C(c4c[nH]c5ccccc45)C(=O)NC3=O)c3ccccc3n2)CC1

>  <Name>  (93) 
SOTRASTAURIN

>  <Pocket>  (93) 
nan

>  <ATP_Site>  (93) 
nan

>  <Peripheral>  (93) 
nan

>  <Num_H_Atoms_ProtBoundConf>  (93) 
nan

>  <Num_Resolved_Atoms>  (93) 
nan

>  <Num_Not_Resolved_Atoms>  (93) 
nan

$$$$
CHEMBL601719
     RDKit          3D

  0  0  0  0  0  0  0  0  0  0999 V3000
M  V30 BEGIN CTAB
M  V30 COUNTS 52 55 0 0 0
M  V30 BEGIN ATOM
M  V30 1 C 0.472827 -5.336869 2.208427 0
M  V30 2 C -0.286704 -4.415936 1.293203 0 CFG=1
M  V30 3 O 0.334563 -4.254447 0.056046 0
M  V30 4 C 0.812345 -3.106379 -0.506913 0
M  V30 5 C 0.813791 -1.829510 -0.024643 0
M  V30 6 C 1.352670 -0.797773 -0.759753 0
M  V30 7 C 1.344049 0.559976 -0.225037 0
M  V30 8 C 2.298293 1.522393 -0.485439 0
M  V30 9 N 1.898435 2.621298 0.209350 0
M  V30 10 N 0.763530 2.329951 0.851741 0
M  V30 11 C 0.168496 3.380547 1.658068 0
M  V30 12 C 1.218776 4.111276 2.436430 0
M  V30 13 C 1.865325 5.233981 1.694380 0
M  V30 14 N 1.091080 5.822699 0.650982 0
M  V30 15 C -0.314854 5.723510 0.903528 0
M  V30 16 C -0.686118 4.267036 0.802063 0
M  V30 17 C 0.373994 1.063388 0.617391 0
M  V30 18 C 1.906145 -1.025845 -2.004206 0
M  V30 19 N 1.900133 -2.290439 -2.472239 0
M  V30 20 C 1.377536 -3.317950 -1.769588 0
M  V30 21 N 1.509306 -4.538692 -2.509243 0
M  V30 22 C -1.693586 -4.858597 1.117205 0
M  V30 23 C -2.716864 -4.424878 1.946225 0
M  V30 24 Cl -2.294710 -3.303779 3.250505 0
M  V30 25 C -4.040047 -4.797905 1.835637 0
M  V30 26 C -4.388222 -5.675273 0.819809 0
M  V30 27 C -3.416591 -6.139914 -0.034239 0
M  V30 28 F -3.745117 -7.008919 -1.044816 0
M  V30 29 C -2.109479 -5.731253 0.125866 0
M  V30 30 Cl -0.928031 -6.358823 -0.991352 0
M  V30 31 H -0.215122 -5.971242 2.807358 0
M  V30 32 H 1.087102 -4.747959 2.905132 0
M  V30 33 H 1.141834 -6.043246 1.671329 0
M  V30 34 H -0.339592 -3.413095 1.786203 0
M  V30 35 H 0.376337 -1.708213 0.936624 0
M  V30 36 H 3.177294 1.408940 -1.115175 0
M  V30 37 H -0.502221 2.873052 2.387085 0
M  V30 38 H 0.783367 4.449265 3.407777 0
M  V30 39 H 2.008754 3.377477 2.704686 0
M  V30 40 H 2.139841 6.021111 2.436560 0
M  V30 41 H 2.847390 4.931894 1.230221 0
M  V30 42 H 1.347616 6.834442 0.574357 0
M  V30 43 H -0.849866 6.261382 0.091550 0
M  V30 44 H -0.652641 6.167835 1.859089 0
M  V30 45 H -0.554467 3.994864 -0.266255 0
M  V30 46 H -1.771294 4.174108 1.013755 0
M  V30 47 H -0.509194 0.620894 1.033190 0
M  V30 48 H 2.326998 -0.194493 -2.568627 0
M  V30 49 H 2.087638 -5.382547 -2.605393 0
M  V30 50 H 0.733024 -4.597030 -3.211386 0
M  V30 51 H -4.768122 -4.406069 2.530866 0
M  V30 52 H -5.411302 -5.970785 0.725356 0
M  V30 END ATOM
M  V30 BEGIN BOND
M  V30 1 1 1 2
M  V30 2 1 2 3
M  V30 3 1 3 4
M  V30 4 2 4 5
M  V30 5 1 5 6
M  V30 6 1 6 7
M  V30 7 1 7 8
M  V30 8 2 8 9
M  V30 9 1 9 10
M  V30 10 1 10 11
M  V30 11 1 11 12
M  V30 12 1 12 13
M  V30 13 1 13 14
M  V30 14 1 14 15
M  V30 15 1 15 16
M  V30 16 1 10 17
M  V30 17 2 6 18
M  V30 18 1 18 19
M  V30 19 2 19 20
M  V30 20 1 20 21
M  V30 21 1 2 22
M  V30 22 2 22 23
M  V30 23 1 23 24
M  V30 24 1 23 25
M  V30 25 2 25 26
M  V30 26 1 26 27
M  V30 27 1 27 28
M  V30 28 2 27 29
M  V30 29 1 29 30
M  V30 30 1 20 4
M  V30 31 1 29 22
M  V30 32 2 17 7
M  V30 33 1 16 11
M  V30 34 1 1 31
M  V30 35 1 1 32
M  V30 36 1 1 33
M  V30 37 1 2 34 CFG=1
M  V30 38 1 5 35
M  V30 39 1 8 36
M  V30 40 1 11 37
M  V30 41 1 12 38
M  V30 42 1 12 39
M  V30 43 1 13 40
M  V30 44 1 13 41
M  V30 45 1 14 42
M  V30 46 1 15 43
M  V30 47 1 15 44
M  V30 48 1 16 45
M  V30 49 1 16 46
M  V30 50 1 17 47
M  V30 51 1 18 48
M  V30 52 1 21 49
M  V30 53 1 21 50
M  V30 54 1 25 51
M  V30 55 1 26 52
M  V30 END BOND
M  V30 END CTAB
M  END
>  <Dataset>  (94) 
ChEMBL_Kinases

>  <Ligand_Instance>  (94) 
nan

>  <PDB_ID>  (94) 
nan

>  <Standardized_SMILES>  (94) 
C[C@@H](Oc1cc(-c2cnn(C3CCNCC3)c2)cnc1N)c1c(Cl)ccc(F)c1Cl

>  <Name>  (94) 
CRIZOTINIB

>  <Pocket>  (94) 
nan

>  <ATP_Site>  (94) 
nan

>  <Peripheral>  (94) 
nan

>  <Num_H_Atoms_ProtBoundConf>  (94) 
nan

>  <Num_Resolved_Atoms>  (94) 
nan

>  <Num_Not_Resolved_Atoms>  (94) 
nan

$$$$
CHEMBL215152
     RDKit          3D

  0  0  0  0  0  0  0  0  0  0999 V3000
M  V30 BEGIN CTAB
M  V30 COUNTS 67 70 0 0 0
M  V30 BEGIN ATOM
M  V30 1 C -7.140084 3.219006 -0.187121 0
M  V30 2 C -6.257227 3.510277 -1.381773 0
M  V30 3 N -4.861630 3.582047 -1.015126 0
M  V30 4 C -4.416706 2.270001 -0.624672 0
M  V30 5 C -4.354497 1.272001 -1.748309 0
M  V30 6 O -3.908051 0.026909 -1.274326 0
M  V30 7 C -4.062558 4.208551 -2.025125 0
M  V30 8 C -2.584587 4.284650 -1.621045 0
M  V30 9 C -1.744409 4.937448 -2.664589 0
M  V30 10 O -0.397584 5.056369 -2.406227 0
M  V30 11 C 0.559018 4.105668 -2.185512 0
M  V30 12 C 0.568292 2.726547 -2.143552 0
M  V30 13 C 1.734210 2.042046 -1.885392 0
M  V30 14 C 2.933902 2.672127 -1.658430 0
M  V30 15 C 4.020970 1.865641 -1.409337 0
M  V30 16 N 4.071696 0.472019 -1.360856 0
M  V30 17 C 3.292322 -0.678190 -1.498739 0
M  V30 18 C 2.597653 -1.379114 -0.542091 0
M  V30 19 C 1.945626 -2.452709 -1.107141 0
M  V30 20 C 1.069169 -3.512084 -0.549444 0
M  V30 21 C 1.884651 -4.671494 -0.062516 0
M  V30 22 O 3.105752 -5.014889 0.015072 0
M  V30 23 N 1.051650 -5.682690 0.467690 0
M  V30 24 C 1.408748 -6.933768 1.030820 0
M  V30 25 C 1.623667 -6.912807 2.405293 0
M  V30 26 C 1.977875 -8.012396 3.160105 0
M  V30 27 C 2.127320 -9.209088 2.496667 0
M  V30 28 C 1.923999 -9.276605 1.129332 0
M  V30 29 F 2.055831 -10.437457 0.422116 0
M  V30 30 C 1.570405 -8.159224 0.406296 0
M  V30 31 N 2.279435 -2.362931 -2.428296 0
M  V30 32 N 3.065584 -1.332230 -2.674538 0
M  V30 33 N 5.174456 2.533055 -1.189086 0
M  V30 34 C 5.234801 3.869897 -1.215528 0
M  V30 35 N 4.148399 4.612630 -1.462950 0
M  V30 36 C 2.967483 4.051213 -1.692301 0
M  V30 37 C 1.783167 4.754179 -1.954519 0
M  V30 38 H -8.150669 3.648346 -0.415808 0
M  V30 39 H -6.686235 3.703339 0.717425 0
M  V30 40 H -7.247006 2.139239 -0.028956 0
M  V30 41 H -6.429250 2.751629 -2.158364 0
M  V30 42 H -6.598755 4.476233 -1.841802 0
M  V30 43 H -3.496879 2.265846 -0.006895 0
M  V30 44 H -5.214304 1.888786 0.081431 0
M  V30 45 H -5.359445 1.060756 -2.175390 0
M  V30 46 H -3.678475 1.586705 -2.555446 0
M  V30 47 H -2.927162 0.006324 -1.122976 0
M  V30 48 H -4.185650 3.607767 -2.958004 0
M  V30 49 H -4.470453 5.236381 -2.168039 0
M  V30 50 H -2.600005 4.883229 -0.661864 0
M  V30 51 H -2.312037 3.278451 -1.318717 0
M  V30 52 H -1.967202 4.494211 -3.679951 0
M  V30 53 H -2.145172 5.990730 -2.768286 0
M  V30 54 H -0.398506 2.332427 -2.332949 0
M  V30 55 H 1.633653 0.975165 -1.877710 0
M  V30 56 H 5.007634 0.018090 -1.144221 0
M  V30 57 H 2.536384 -1.162132 0.519546 0
M  V30 58 H 0.392453 -3.179730 0.236887 0
M  V30 59 H 0.444950 -3.931085 -1.365483 0
M  V30 60 H -0.009386 -5.678417 0.537051 0
M  V30 61 H 1.523215 -6.004288 2.986090 0
M  V30 62 H 2.137765 -7.968374 4.221220 0
M  V30 63 H 2.407252 -10.136656 3.017481 0
M  V30 64 H 1.389525 -8.116484 -0.668135 0
M  V30 65 H 1.939424 -3.048591 -3.156402 0
M  V30 66 H 6.196055 4.338034 -1.029265 0
M  V30 67 H 1.986411 5.832986 -1.944614 0
M  V30 END ATOM
M  V30 BEGIN BOND
M  V30 1 1 1 2
M  V30 2 1 2 3
M  V30 3 1 3 4
M  V30 4 1 4 5
M  V30 5 1 5 6
M  V30 6 1 3 7
M  V30 7 1 7 8
M  V30 8 1 8 9
M  V30 9 1 9 10
M  V30 10 1 10 11
M  V30 11 2 11 12
M  V30 12 1 12 13
M  V30 13 2 13 14
M  V30 14 1 14 15
M  V30 15 1 15 16
M  V30 16 1 16 17
M  V30 17 1 17 18
M  V30 18 2 18 19
M  V30 19 1 19 20
M  V30 20 1 20 21
M  V30 21 2 21 22
M  V30 22 1 21 23
M  V30 23 1 23 24
M  V30 24 2 24 25
M  V30 25 1 25 26
M  V30 26 2 26 27
M  V30 27 1 27 28
M  V30 28 1 28 29
M  V30 29 2 28 30
M  V30 30 1 19 31
M  V30 31 1 31 32
M  V30 32 2 15 33
M  V30 33 1 33 34
M  V30 34 2 34 35
M  V30 35 1 35 36
M  V30 36 2 36 37
M  V30 37 1 37 11
M  V30 38 1 36 14
M  V30 39 2 32 17
M  V30 40 1 30 24
M  V30 41 1 1 38
M  V30 42 1 1 39
M  V30 43 1 1 40
M  V30 44 1 2 41
M  V30 45 1 2 42
M  V30 46 1 4 43
M  V30 47 1 4 44
M  V30 48 1 5 45
M  V30 49 1 5 46
M  V30 50 1 6 47
M  V30 51 1 7 48
M  V30 52 1 7 49
M  V30 53 1 8 50
M  V30 54 1 8 51
M  V30 55 1 9 52
M  V30 56 1 9 53
M  V30 57 1 12 54
M  V30 58 1 13 55
M  V30 59 1 16 56
M  V30 60 1 18 57
M  V30 61 1 20 58
M  V30 62 1 20 59
M  V30 63 1 23 60
M  V30 64 1 25 61
M  V30 65 1 26 62
M  V30 66 1 27 63
M  V30 67 1 30 64
M  V30 68 1 31 65
M  V30 69 1 34 66
M  V30 70 1 37 67
M  V30 END BOND
M  V30 END CTAB
M  END
>  <Dataset>  (95) 
ChEMBL_Kinases

>  <Ligand_Instance>  (95) 
nan

>  <PDB_ID>  (95) 
nan

>  <Standardized_SMILES>  (95) 
CCN(CCO)CCCOc1ccc2c(Nc3cc(CC(=O)Nc4cccc(F)c4)[nH]n3)ncnc2c1

>  <Name>  (95) 
AZD-1152-HQPA

>  <Pocket>  (95) 
nan

>  <ATP_Site>  (95) 
nan

>  <Peripheral>  (95) 
nan

>  <Num_H_Atoms_ProtBoundConf>  (95) 
nan

>  <Num_Resolved_Atoms>  (95) 
nan

>  <Num_Not_Resolved_Atoms>  (95) 
nan

$$$$
CHEMBL38380
     RDKit          3D

  0  0  0  0  0  0  0  0  0  0999 V3000
M  V30 BEGIN CTAB
M  V30 COUNTS 37 39 0 0 0
M  V30 BEGIN ATOM
M  V30 1 O 1.577255 -1.714559 3.194716 0
M  V30 2 S 0.848803 -0.737678 2.286557 0
M  V30 3 O 0.382799 0.368539 3.232518 0
M  V30 4 C 1.971353 -0.145827 1.131271 0
M  V30 5 C 3.257668 -0.693127 1.050982 0
M  V30 6 C 4.242527 -0.333258 0.162400 0
M  V30 7 C 3.963830 0.661996 -0.750884 0
M  V30 8 C 2.723234 1.252556 -0.738995 0
M  V30 9 C 2.377436 2.268359 -1.626840 0
M  V30 10 N 1.149931 2.866023 -1.615858 0
M  V30 11 C 0.218379 2.459941 -0.703390 0
M  V30 12 C 0.586605 1.462833 0.152747 0
M  V30 13 C 1.810323 0.832273 0.176979 0
M  V30 14 N -0.527896 -1.506856 1.706019 0
M  V30 15 C -1.722938 -0.814130 2.031743 0
M  V30 16 C -2.574654 -0.494251 0.831054 0
M  V30 17 C -2.218635 -1.515669 -0.250786 0
M  V30 18 N -2.445092 -2.821501 0.280136 0
M  V30 19 C -1.218539 -3.512745 0.629929 0
M  V30 20 C -0.591290 -2.925729 1.881153 0
M  V30 21 H 3.539979 -1.490789 1.752821 0
M  V30 22 H 5.206199 -0.808446 0.171250 0
M  V30 23 H 4.704126 0.960358 -1.448997 0
M  V30 24 H 3.168493 2.544989 -2.329690 0
M  V30 25 H -0.756170 2.928244 -0.687605 0
M  V30 26 H -0.170123 1.179351 0.861917 0
M  V30 27 H -1.520204 0.153384 2.559203 0
M  V30 28 H -2.325670 -1.488591 2.702429 0
M  V30 29 H -2.444834 0.537412 0.447684 0
M  V30 30 H -3.644623 -0.617262 1.097232 0
M  V30 31 H -1.179281 -1.348823 -0.588476 0
M  V30 32 H -2.909829 -1.321472 -1.096716 0
M  V30 33 H -3.047471 -3.403157 -0.325915 0
M  V30 34 H -0.497753 -3.533989 -0.217912 0
M  V30 35 H -1.507667 -4.573796 0.786405 0
M  V30 36 H -1.235708 -3.260925 2.727685 0
M  V30 37 H 0.407085 -3.370100 1.970205 0
M  V30 END ATOM
M  V30 BEGIN BOND
M  V30 1 2 1 2
M  V30 2 2 2 3
M  V30 3 1 2 4
M  V30 4 2 4 5
M  V30 5 1 5 6
M  V30 6 2 6 7
M  V30 7 1 7 8
M  V30 8 2 8 9
M  V30 9 1 9 10
M  V30 10 2 10 11
M  V30 11 1 11 12
M  V30 12 2 12 13
M  V30 13 1 2 14
M  V30 14 1 14 15
M  V30 15 1 15 16
M  V30 16 1 16 17
M  V30 17 1 17 18
M  V30 18 1 18 19
M  V30 19 1 19 20
M  V30 20 1 13 4
M  V30 21 1 20 14
M  V30 22 1 13 8
M  V30 23 1 5 21
M  V30 24 1 6 22
M  V30 25 1 7 23
M  V30 26 1 9 24
M  V30 27 1 11 25
M  V30 28 1 12 26
M  V30 29 1 15 27
M  V30 30 1 15 28
M  V30 31 1 16 29
M  V30 32 1 16 30
M  V30 33 1 17 31
M  V30 34 1 17 32
M  V30 35 1 18 33
M  V30 36 1 19 34
M  V30 37 1 19 35
M  V30 38 1 20 36
M  V30 39 1 20 37
M  V30 END BOND
M  V30 END CTAB
M  END
>  <Dataset>  (96) 
ChEMBL_Kinases

>  <Ligand_Instance>  (96) 
nan

>  <PDB_ID>  (96) 
nan

>  <Standardized_SMILES>  (96) 
O=S(=O)(c1cccc2cnccc12)N1CCCNCC1

>  <Name>  (96) 
FASUDIL

>  <Pocket>  (96) 
nan

>  <ATP_Site>  (96) 
nan

>  <Peripheral>  (96) 
nan

>  <Num_H_Atoms_ProtBoundConf>  (96) 
nan

>  <Num_Resolved_Atoms>  (96) 
nan

>  <Num_Not_Resolved_Atoms>  (96) 
nan

$$$$
CHEMBL3544966
     RDKit          3D

  0  0  0  0  0  0  0  0  0  0999 V3000
M  V30 BEGIN CTAB
M  V30 COUNTS 35 38 0 0 0
M  V30 BEGIN ATOM
M  V30 1 O 0.060425 -5.538056 0.381252 0
M  V30 2 C -0.077993 -4.819726 -0.631381 0
M  V30 3 N -0.259021 -4.755648 -2.039002 0
M  V30 4 C 0.017873 -3.514313 -2.629682 0
M  V30 5 O -0.124484 -3.388334 -3.890333 0
M  V30 6 C 0.460879 -2.440051 -1.708345 0
M  V30 7 C 1.064797 -1.339926 -2.091008 0
M  V30 8 C 1.409195 -0.423609 -1.042320 0
M  V30 9 C 2.655163 0.181245 -1.072380 0
M  V30 10 C 3.149937 1.107066 -0.141415 0
M  V30 11 C 2.313283 1.443801 0.899072 0
M  V30 12 N 2.765197 2.327640 1.774902 0
M  V30 13 C 1.964176 2.704327 2.814554 0
M  V30 14 C 0.688163 2.135165 2.911147 0
M  V30 15 C 0.216200 1.212906 1.999363 0
M  V30 16 C -1.133974 0.660052 2.215568 0
M  V30 17 C -1.415591 -0.679610 2.319353 0
M  V30 18 C -2.745899 -1.078159 2.501057 0
M  V30 19 N -3.763828 -0.162445 2.576480 0
M  V30 20 C -3.395650 1.150297 2.463804 0
M  V30 21 C -2.126013 1.647832 2.284997 0
M  V30 22 C 1.059257 0.866023 0.971531 0
M  V30 23 C 0.597888 -0.046394 0.037481 0
M  V30 24 S -0.031657 -3.081841 -0.104630 0
M  V30 25 H -0.576691 -5.676155 -2.403168 0
M  V30 26 H 1.277951 -1.146459 -3.132446 0
M  V30 27 H 3.319861 -0.078938 -1.892267 0
M  V30 28 H 4.159394 1.492543 -0.306308 0
M  V30 29 H 2.342317 3.422602 3.519729 0
M  V30 30 H 0.084619 2.474317 3.767323 0
M  V30 31 H -0.619462 -1.387443 2.268427 0
M  V30 32 H -2.870052 -2.164525 2.572461 0
M  V30 33 H -4.260679 1.805152 2.534312 0
M  V30 34 H -1.943935 2.702249 2.205649 0
M  V30 35 H -0.367485 -0.483037 0.095514 0
M  V30 END ATOM
M  V30 BEGIN BOND
M  V30 1 2 1 2
M  V30 2 1 2 3
M  V30 3 1 3 4
M  V30 4 2 4 5
M  V30 5 1 4 6
M  V30 6 2 6 7
M  V30 7 1 7 8
M  V30 8 2 8 9
M  V30 9 1 9 10
M  V30 10 2 10 11
M  V30 11 1 11 12
M  V30 12 2 12 13
M  V30 13 1 13 14
M  V30 14 2 14 15
M  V30 15 1 15 16
M  V30 16 2 16 17
M  V30 17 1 17 18
M  V30 18 2 18 19
M  V30 19 1 19 20
M  V30 20 2 20 21
M  V30 21 1 15 22
M  V30 22 2 22 23
M  V30 23 1 6 24
M  V30 24 1 24 2
M  V30 25 1 23 8
M  V30 26 1 22 11
M  V30 27 1 21 16
M  V30 28 1 3 25
M  V30 29 1 7 26
M  V30 30 1 9 27
M  V30 31 1 10 28
M  V30 32 1 13 29
M  V30 33 1 14 30
M  V30 34 1 17 31
M  V30 35 1 18 32
M  V30 36 1 20 33
M  V30 37 1 21 34
M  V30 38 1 23 35
M  V30 END BOND
M  V30 END CTAB
M  END
>  <Dataset>  (97) 
ChEMBL_Kinases

>  <Ligand_Instance>  (97) 
nan

>  <PDB_ID>  (97) 
nan

>  <Standardized_SMILES>  (97) 
O=C1NC(=O)/C(=C/c2ccc3nccc(-c4ccncc4)c3c2)S1

>  <Name>  (97) 
GSK-1059615

>  <Pocket>  (97) 
nan

>  <ATP_Site>  (97) 
nan

>  <Peripheral>  (97) 
nan

>  <Num_H_Atoms_ProtBoundConf>  (97) 
nan

>  <Num_Resolved_Atoms>  (97) 
nan

>  <Num_Not_Resolved_Atoms>  (97) 
nan

$$$$
CHEMBL2312654
     RDKit          3D

  0  0  0  0  0  0  0  0  0  0999 V3000
M  V30 BEGIN CTAB
M  V30 COUNTS 57 60 0 0 0
M  V30 BEGIN ATOM
M  V30 1 C -0.887043 -2.664559 6.961065 0
M  V30 2 C -0.796537 -2.181914 5.563378 0
M  V30 3 C 0.225347 -1.641982 4.813423 0
M  V30 4 C -0.179136 -1.338968 3.528451 0
M  V30 5 C 0.758094 -0.757584 2.576876 0
M  V30 6 C 2.091650 -0.477546 2.897658 0
M  V30 7 N 2.893356 0.058887 1.964763 0
M  V30 8 C 2.489943 0.348659 0.722408 0
M  V30 9 N 3.381382 0.916504 -0.227863 0
M  V30 10 C 3.441440 2.327886 -0.264153 0
M  V30 11 C 2.659765 3.084520 0.596795 0
M  V30 12 C 2.645640 4.473560 0.640454 0
M  V30 13 Cl 1.612823 5.324975 1.775060 0
M  V30 14 C 3.480793 5.116804 -0.249742 0
M  V30 15 C 4.287256 4.435139 -1.135979 0
M  V30 16 Cl 5.341205 5.307209 -2.258122 0
M  V30 17 C 4.252352 3.049190 -1.126534 0
M  V30 18 N 1.216524 0.075304 0.434291 0
M  V30 19 C 0.320693 -0.459990 1.280609 0
M  V30 20 N -1.007519 -0.690933 0.813821 0
M  V30 21 C -1.345544 -0.342716 -0.549972 0
M  V30 22 C -2.772720 -0.664039 -0.830314 0
M  V30 23 C -3.033004 -2.147261 -0.963668 0
M  V30 24 C -2.088064 -2.808797 -1.941228 0
M  V30 25 N -2.872446 -3.568427 -2.876989 0
M  V30 26 C -2.075307 -4.255932 -3.875529 0
M  V30 27 C -3.552637 -4.617041 -2.113414 0
M  V30 28 C -1.202279 -1.788041 -2.589364 0
M  V30 29 C -0.427370 -1.074772 -1.503314 0
M  V30 30 O -1.427017 -1.708258 3.556333 0
M  V30 31 N -1.808556 -2.185403 4.679886 0
M  V30 32 H -1.731000 -2.084633 7.436285 0
M  V30 33 H 0.017023 -2.466161 7.543700 0
M  V30 34 H -1.189056 -3.732900 6.933667 0
M  V30 35 H 1.216566 -1.508038 5.279317 0
M  V30 36 H 2.456455 -0.696502 3.889211 0
M  V30 37 H 4.011689 0.414511 -0.918037 0
M  V30 38 H 1.986794 2.593236 1.314684 0
M  V30 39 H 3.489209 6.203078 -0.236574 0
M  V30 40 H 4.891343 2.491581 -1.829142 0
M  V30 41 H -1.768751 -1.100295 1.393485 0
M  V30 42 H -1.234240 0.757674 -0.640977 0
M  V30 43 H -3.374122 -0.336694 0.064963 0
M  V30 44 H -3.189504 -0.074392 -1.672138 0
M  V30 45 H -4.090561 -2.250151 -1.286016 0
M  V30 46 H -2.896946 -2.615160 0.029577 0
M  V30 47 H -1.430202 -3.554707 -1.416398 0
M  V30 48 H -1.087799 -4.466299 -3.451668 0
M  V30 49 H -2.583197 -5.215625 -4.143828 0
M  V30 50 H -2.061196 -3.674061 -4.823363 0
M  V30 51 H -3.122424 -4.720214 -1.105363 0
M  V30 52 H -3.452440 -5.618463 -2.584331 0
M  V30 53 H -4.625511 -4.404627 -2.039169 0
M  V30 54 H -1.802798 -1.071309 -3.181564 0
M  V30 55 H -0.460548 -2.292453 -3.240151 0
M  V30 56 H 0.311590 -0.395120 -1.975921 0
M  V30 57 H 0.158556 -1.840504 -0.948244 0
M  V30 END ATOM
M  V30 BEGIN BOND
M  V30 1 1 1 2
M  V30 2 1 2 3
M  V30 3 2 3 4
M  V30 4 1 4 5
M  V30 5 2 5 6
M  V30 6 1 6 7
M  V30 7 2 7 8
M  V30 8 1 8 9
M  V30 9 1 9 10
M  V30 10 2 10 11
M  V30 11 1 11 12
M  V30 12 1 12 13
M  V30 13 2 12 14
M  V30 14 1 14 15
M  V30 15 1 15 16
M  V30 16 2 15 17
M  V30 17 1 8 18
M  V30 18 2 18 19
M  V30 19 1 19 20
M  V30 20 1 20 21
M  V30 21 1 21 22
M  V30 22 1 22 23
M  V30 23 1 23 24
M  V30 24 1 24 25
M  V30 25 1 25 26
M  V30 26 1 25 27
M  V30 27 1 24 28
M  V30 28 1 28 29
M  V30 29 1 4 30
M  V30 30 1 30 31
M  V30 31 2 31 2
M  V30 32 1 19 5
M  V30 33 1 29 21
M  V30 34 1 17 10
M  V30 35 1 1 32
M  V30 36 1 1 33
M  V30 37 1 1 34
M  V30 38 1 3 35
M  V30 39 1 6 36
M  V30 40 1 9 37
M  V30 41 1 11 38
M  V30 42 1 14 39
M  V30 43 1 17 40
M  V30 44 1 20 41
M  V30 45 1 21 42
M  V30 46 1 22 43
M  V30 47 1 22 44
M  V30 48 1 23 45
M  V30 49 1 23 46
M  V30 50 1 24 47
M  V30 51 1 26 48
M  V30 52 1 26 49
M  V30 53 1 26 50
M  V30 54 1 27 51
M  V30 55 1 27 52
M  V30 56 1 27 53
M  V30 57 1 28 54
M  V30 58 1 28 55
M  V30 59 1 29 56
M  V30 60 1 29 57
M  V30 END BOND
M  V30 END CTAB
M  END
>  <Dataset>  (98) 
ChEMBL_Kinases

>  <Ligand_Instance>  (98) 
nan

>  <PDB_ID>  (98) 
nan

>  <Standardized_SMILES>  (98) 
Cc1cc(-c2cnc(Nc3cc(Cl)cc(Cl)c3)nc2NC2CCC(N(C)C)CC2)on1

>  <Name>  (98) 
nan

>  <Pocket>  (98) 
nan

>  <ATP_Site>  (98) 
nan

>  <Peripheral>  (98) 
nan

>  <Num_H_Atoms_ProtBoundConf>  (98) 
nan

>  <Num_Resolved_Atoms>  (98) 
nan

>  <Num_Not_Resolved_Atoms>  (98) 
nan

$$$$
CHEMBL488436
     RDKit          3D

  0  0  0  0  0  0  0  0  0  0999 V3000
M  V30 BEGIN CTAB
M  V30 COUNTS 47 49 0 0 0
M  V30 BEGIN ATOM
M  V30 1 C 0.615651 -6.277352 -0.178472 0
M  V30 2 C 0.818130 -4.979614 -0.870963 0
M  V30 3 N 1.595956 -4.991012 -1.966916 0
M  V30 4 C 1.629277 -3.723622 -2.411473 0
M  V30 5 C 0.848116 -2.960349 -1.545778 0
M  V30 6 C 0.621926 -1.524274 -1.682854 0
M  V30 7 C 1.200448 -0.830128 -2.748924 0
M  V30 8 C 1.009661 0.534393 -2.928579 0
M  V30 9 N 0.247179 1.157096 -2.036453 0
M  V30 10 C -0.333440 0.541044 -0.992792 0
M  V30 11 N -1.172069 1.053200 0.031988 0
M  V30 12 C -0.679258 1.676461 1.226577 0
M  V30 13 C 0.677139 1.852806 1.372756 0
M  V30 14 C 1.134478 2.469706 2.543733 0
M  V30 15 C 0.193322 2.859528 3.473007 0
M  V30 16 S 0.576713 3.667462 4.984712 0
M  V30 17 C 0.374764 5.424899 4.819356 0
M  V30 18 O 2.053454 3.445896 5.252189 0
M  V30 19 O -0.184010 3.077968 6.115050 0
M  V30 20 C -1.175991 2.680970 3.325616 0
M  V30 21 C -1.621583 2.063234 2.151069 0
M  V30 22 N -0.121915 -0.776384 -0.858555 0
M  V30 23 N 0.332027 -3.738083 -0.572577 0
M  V30 24 C -0.529478 -3.404754 0.533857 0
M  V30 25 C -1.905641 -2.954866 0.072457 0
M  V30 26 C 0.091099 -2.474539 1.538630 0
M  V30 27 H 0.139946 -7.011894 -0.871776 0
M  V30 28 H 1.621079 -6.709064 0.067832 0
M  V30 29 H 0.083585 -6.156222 0.767325 0
M  V30 30 H 2.180986 -3.395035 -3.296693 0
M  V30 31 H 1.825514 -1.397589 -3.458704 0
M  V30 32 H 1.448671 1.086715 -3.745757 0
M  V30 33 H -2.186215 0.930389 -0.171025 0
M  V30 34 H 1.418079 1.550921 0.652501 0
M  V30 35 H 2.177977 2.666669 2.778887 0
M  V30 36 H 0.940572 5.989285 5.582412 0
M  V30 37 H -0.715038 5.708470 4.842687 0
M  V30 38 H 0.726863 5.698976 3.793712 0
M  V30 39 H -1.943699 2.964105 4.012254 0
M  V30 40 H -2.684507 1.897034 1.980459 0
M  V30 41 H -0.734228 -4.357937 1.108219 0
M  V30 42 H -1.944305 -2.874932 -1.035804 0
M  V30 43 H -2.711339 -3.675496 0.328335 0
M  V30 44 H -2.157689 -2.012744 0.600729 0
M  V30 45 H 0.255222 -2.957830 2.548074 0
M  V30 46 H 1.122080 -2.152846 1.230316 0
M  V30 47 H -0.569422 -1.604931 1.760953 0
M  V30 END ATOM
M  V30 BEGIN BOND
M  V30 1 1 1 2
M  V30 2 2 2 3
M  V30 3 1 3 4
M  V30 4 2 4 5
M  V30 5 1 5 6
M  V30 6 2 6 7
M  V30 7 1 7 8
M  V30 8 2 8 9
M  V30 9 1 9 10
M  V30 10 1 10 11
M  V30 11 1 11 12
M  V30 12 2 12 13
M  V30 13 1 13 14
M  V30 14 2 14 15
M  V30 15 1 15 16
M  V30 16 1 16 17
M  V30 17 2 16 18
M  V30 18 2 16 19
M  V30 19 1 15 20
M  V30 20 2 20 21
M  V30 21 2 10 22
M  V30 22 1 5 23
M  V30 23 1 23 24
M  V30 24 1 24 25
M  V30 25 1 24 26
M  V30 26 1 23 2
M  V30 27 1 22 6
M  V30 28 1 21 12
M  V30 29 1 1 27
M  V30 30 1 1 28
M  V30 31 1 1 29
M  V30 32 1 4 30
M  V30 33 1 7 31
M  V30 34 1 8 32
M  V30 35 1 11 33
M  V30 36 1 13 34
M  V30 37 1 14 35
M  V30 38 1 17 36
M  V30 39 1 17 37
M  V30 40 1 17 38
M  V30 41 1 20 39
M  V30 42 1 21 40
M  V30 43 1 24 41
M  V30 44 1 25 42
M  V30 45 1 25 43
M  V30 46 1 25 44
M  V30 47 1 26 45
M  V30 48 1 26 46
M  V30 49 1 26 47
M  V30 END BOND
M  V30 END CTAB
M  END
>  <Dataset>  (99) 
ChEMBL_Kinases

>  <Ligand_Instance>  (99) 
nan

>  <PDB_ID>  (99) 
nan

>  <Standardized_SMILES>  (99) 
Cc1ncc(-c2ccnc(Nc3ccc(S(C)(=O)=O)cc3)n2)n1C(C)C

>  <Name>  (99) 
AZD-5438

>  <Pocket>  (99) 
nan

>  <ATP_Site>  (99) 
nan

>  <Peripheral>  (99) 
nan

>  <Num_H_Atoms_ProtBoundConf>  (99) 
nan

>  <Num_Resolved_Atoms>  (99) 
nan

>  <Num_Not_Resolved_Atoms>  (99) 
nan

$$$$
CHEMBL2436978
     RDKit          3D

  0  0  0  0  0  0  0  0  0  0999 V3000
M  V30 BEGIN CTAB
M  V30 COUNTS 59 64 0 0 0
M  V30 BEGIN ATOM
M  V30 1 C 2.094327 -2.773167 3.972759 0
M  V30 2 N 3.101621 -3.184937 3.029038 0
M  V30 3 C 4.393558 -2.586248 3.284573 0
M  V30 4 C 4.688989 -1.444186 2.335738 0
M  V30 5 N 4.759512 -1.857201 0.972626 0
M  V30 6 C 4.671355 -0.811646 0.019763 0
M  V30 7 C 3.460935 0.001291 0.015862 0
M  V30 8 C 3.254749 1.162825 0.736113 0
M  V30 9 C 2.070306 1.868110 0.671521 0
M  V30 10 C 1.033477 1.422039 -0.133677 0
M  V30 11 C -0.267857 2.100248 -0.274762 0
M  V30 12 C -0.434188 3.466710 -0.191678 0
M  V30 13 N -1.676675 4.012508 -0.330867 0
M  V30 14 C -2.777864 3.270732 -0.550539 0
M  V30 15 N -4.085326 3.539939 -0.721325 0
M  V30 16 C -4.768160 2.383423 -0.912262 0
M  V30 17 C -3.904779 1.307269 -0.869715 0
M  V30 18 C -4.247981 -0.101368 -1.023667 0
M  V30 19 C -5.062652 -0.623825 -2.006626 0
M  V30 20 C -5.317256 -2.000243 -2.040497 0
M  V30 21 C -4.738700 -2.804880 -1.077582 0
M  V30 22 N -4.855294 -4.142661 -0.934058 0
M  V30 23 C -4.119937 -4.512567 0.142210 0
M  V30 24 C -3.526965 -3.398555 0.692663 0
M  V30 25 C -3.910103 -2.291988 -0.073873 0
M  V30 26 C -3.672232 -0.912043 -0.063159 0
M  V30 27 C -2.665295 1.897781 -0.641812 0
M  V30 28 C -1.410258 1.346281 -0.501472 0
M  V30 29 C 1.223131 0.246506 -0.871756 0
M  V30 30 C 2.426496 -0.467924 -0.804855 0
M  V30 31 C 3.865739 -2.960217 0.775028 0
M  V30 32 C 2.669713 -2.763098 1.686972 0
M  V30 33 H 1.489275 -3.683444 4.224027 0
M  V30 34 H 2.525060 -2.283168 4.874344 0
M  V30 35 H 1.376999 -2.074699 3.493742 0
M  V30 36 H 5.175962 -3.345780 3.118431 0
M  V30 37 H 4.384283 -2.171447 4.307751 0
M  V30 38 H 5.687643 -1.040615 2.629406 0
M  V30 39 H 3.986045 -0.591095 2.526268 0
M  V30 40 H 5.523596 -0.105488 0.251211 0
M  V30 41 H 4.886535 -1.145558 -1.014679 0
M  V30 42 H 4.066523 1.506407 1.362451 0
M  V30 43 H 1.899389 2.780924 1.233176 0
M  V30 44 H 0.440756 4.077512 -0.015704 0
M  V30 45 H -4.525398 4.487739 -0.711647 0
M  V30 46 H -5.831584 2.262787 -1.077721 0
M  V30 47 H -5.477437 0.058269 -2.720684 0
M  V30 48 H -5.955807 -2.413874 -2.809334 0
M  V30 49 H -5.366160 -4.884531 -1.456994 0
M  V30 50 H -3.933064 -5.482144 0.613854 0
M  V30 51 H -2.877242 -3.310770 1.549922 0
M  V30 52 H -3.026015 -0.654899 0.754838 0
M  V30 53 H -1.267456 0.277754 -0.566016 0
M  V30 54 H 0.460273 -0.186461 -1.538229 0
M  V30 55 H 2.536219 -1.383061 -1.397804 0
M  V30 56 H 4.413721 -3.874329 1.152239 0
M  V30 57 H 3.606365 -3.199411 -0.253844 0
M  V30 58 H 1.783434 -3.343914 1.345878 0
M  V30 59 H 2.414570 -1.680549 1.823986 0
M  V30 END ATOM
M  V30 BEGIN BOND
M  V30 1 1 1 2
M  V30 2 1 2 3
M  V30 3 1 3 4
M  V30 4 1 4 5
M  V30 5 1 5 6
M  V30 6 1 6 7
M  V30 7 2 7 8
M  V30 8 1 8 9
M  V30 9 2 9 10
M  V30 10 1 10 11
M  V30 11 2 11 12
M  V30 12 1 12 13
M  V30 13 2 13 14
M  V30 14 1 14 15
M  V30 15 1 15 16
M  V30 16 2 16 17
M  V30 17 1 17 18
M  V30 18 2 18 19
M  V30 19 1 19 20
M  V30 20 2 20 21
M  V30 21 1 21 22
M  V30 22 1 22 23
M  V30 23 2 23 24
M  V30 24 1 24 25
M  V30 25 2 25 26
M  V30 26 1 17 27
M  V30 27 2 27 28
M  V30 28 1 10 29
M  V30 29 2 29 30
M  V30 30 1 5 31
M  V30 31 1 31 32
M  V30 32 1 32 2
M  V30 33 1 30 7
M  V30 34 1 28 11
M  V30 35 1 27 14
M  V30 36 1 26 18
M  V30 37 1 25 21
M  V30 38 1 1 33
M  V30 39 1 1 34
M  V30 40 1 1 35
M  V30 41 1 3 36
M  V30 42 1 3 37
M  V30 43 1 4 38
M  V30 44 1 4 39
M  V30 45 1 6 40
M  V30 46 1 6 41
M  V30 47 1 8 42
M  V30 48 1 9 43
M  V30 49 1 12 44
M  V30 50 1 15 45
M  V30 51 1 16 46
M  V30 52 1 19 47
M  V30 53 1 20 48
M  V30 54 1 22 49
M  V30 55 1 23 50
M  V30 56 1 24 51
M  V30 57 1 26 52
M  V30 58 1 28 53
M  V30 59 1 29 54
M  V30 60 1 30 55
M  V30 61 1 31 56
M  V30 62 1 31 57
M  V30 63 1 32 58
M  V30 64 1 32 59
M  V30 END BOND
M  V30 END CTAB
M  END
>  <Dataset>  (100) 
ChEMBL_Kinases

>  <Ligand_Instance>  (100) 
nan

>  <PDB_ID>  (100) 
nan

>  <Standardized_SMILES>  (100) 
CN1CCN(Cc2ccc(-c3cnc4[nH]cc(-c5ccc6[nH]ccc6c5)c4c3)cc2)CC1

>  <Name>  (100) 
nan

>  <Pocket>  (100) 
nan

>  <ATP_Site>  (100) 
nan

>  <Peripheral>  (100) 
nan

>  <Num_H_Atoms_ProtBoundConf>  (100) 
nan

>  <Num_Resolved_Atoms>  (100) 
nan

>  <Num_Not_Resolved_Atoms>  (100) 
nan

$$$$
CHEMBL253969
     RDKit          3D

  0  0  0  0  0  0  0  0  0  0999 V3000
M  V30 BEGIN CTAB
M  V30 COUNTS 56 58 0 0 0
M  V30 BEGIN ATOM
M  V30 1 N 1.469506 0.410146 4.590541 0
M  V30 2 C 0.645179 0.151735 3.469063 0
M  V30 3 O -0.424088 -0.357868 3.790212 0
M  V30 4 C 1.083895 0.479167 2.126576 0
M  V30 5 C 2.242116 1.047149 1.672731 0
M  V30 6 O 3.122857 1.353092 2.624400 0
M  V30 7 C 4.352119 1.899275 2.739537 0
M  V30 8 C 4.593186 3.264469 2.279018 0
M  V30 9 C 4.826635 3.751233 1.012711 0
M  V30 10 F 4.891097 2.858576 0.024397 0
M  V30 11 C 5.016976 5.077799 0.699882 0
M  V30 12 C 4.980509 6.023445 1.692165 0
M  V30 13 Br 5.246961 7.851251 1.226588 0
M  V30 14 C 4.753240 5.628201 2.990799 0
M  V30 15 C 4.569347 4.285246 3.243552 0
M  V30 16 F 4.346928 3.953407 4.550018 0
M  V30 17 N 2.364049 1.237034 0.286884 0
M  V30 18 S 0.784404 0.585921 -0.364941 0
M  V30 19 C 0.162083 0.149256 1.231013 0
M  V30 20 N -1.147488 -0.439950 1.197855 0
M  V30 21 C -1.245310 -1.868108 1.063623 0
M  V30 22 O -0.113657 -2.424082 0.988322 0
M  V30 23 N -2.479336 -2.573377 1.020619 0
M  V30 24 C -2.308694 -4.026128 0.876755 0
M  V30 25 C -3.602118 -4.743737 0.833899 0
M  V30 26 C -4.453915 -4.330824 -0.307705 0
M  V30 27 C -3.936203 -4.561282 -1.673135 0
M  V30 28 N -2.727202 -3.896441 -2.057266 0
M  V30 29 C -2.309779 -4.355233 -3.374061 0
M  V30 30 C -2.301885 -3.211049 -4.319396 0
M  V30 31 C -3.052488 -2.121894 -3.626057 0
M  V30 32 C -2.896514 -2.459266 -2.180460 0
M  V30 33 H 2.074136 0.580730 5.402454 0
M  V30 34 H 2.161421 -0.219515 5.055078 0
M  V30 35 H 5.082273 1.204684 2.195553 0
M  V30 36 H 4.762107 1.848605 3.797683 0
M  V30 37 H 5.192085 5.371916 -0.312012 0
M  V30 38 H 4.720390 6.350021 3.793060 0
M  V30 39 H -2.056124 0.099837 1.265409 0
M  V30 40 H -3.311270 -1.933267 1.097849 0
M  V30 41 H -1.660279 -4.174170 -0.003786 0
M  V30 42 H -1.695106 -4.336395 1.761243 0
M  V30 43 H -3.347593 -5.845261 0.723323 0
M  V30 44 H -4.141343 -4.714850 1.809879 0
M  V30 45 H -4.697373 -3.239515 -0.166782 0
M  V30 46 H -5.421748 -4.910223 -0.232541 0
M  V30 47 H -3.802750 -5.650945 -1.889800 0
M  V30 48 H -4.728763 -4.176277 -2.389624 0
M  V30 49 H -1.285068 -4.801478 -3.283192 0
M  V30 50 H -2.986633 -5.156291 -3.711588 0
M  V30 51 H -2.852733 -3.441812 -5.271200 0
M  V30 52 H -1.267609 -2.908646 -4.648477 0
M  V30 53 H -2.616122 -1.150351 -3.905196 0
M  V30 54 H -4.135185 -2.164208 -3.918861 0
M  V30 55 H -3.796045 -2.177050 -1.604359 0
M  V30 56 H -2.019572 -1.898568 -1.769407 0
M  V30 END ATOM
M  V30 BEGIN BOND
M  V30 1 1 1 2
M  V30 2 2 2 3
M  V30 3 1 2 4
M  V30 4 1 4 5
M  V30 5 1 5 6
M  V30 6 1 6 7
M  V30 7 1 7 8
M  V30 8 2 8 9
M  V30 9 1 9 10
M  V30 10 1 9 11
M  V30 11 2 11 12
M  V30 12 1 12 13
M  V30 13 1 12 14
M  V30 14 2 14 15
M  V30 15 1 15 16
M  V30 16 2 5 17
M  V30 17 1 17 18
M  V30 18 1 18 19
M  V30 19 1 19 20
M  V30 20 1 20 21
M  V30 21 2 21 22
M  V30 22 1 21 23
M  V30 23 1 23 24
M  V30 24 1 24 25
M  V30 25 1 25 26
M  V30 26 1 26 27
M  V30 27 1 27 28
M  V30 28 1 28 29
M  V30 29 1 29 30
M  V30 30 1 30 31
M  V30 31 1 31 32
M  V30 32 2 19 4
M  V30 33 1 32 28
M  V30 34 1 15 8
M  V30 35 1 1 33
M  V30 36 1 1 34
M  V30 37 1 7 35
M  V30 38 1 7 36
M  V30 39 1 11 37
M  V30 40 1 14 38
M  V30 41 1 20 39
M  V30 42 1 23 40
M  V30 43 1 24 41
M  V30 44 1 24 42
M  V30 45 1 25 43
M  V30 46 1 25 44
M  V30 47 1 26 45
M  V30 48 1 26 46
M  V30 49 1 27 47
M  V30 50 1 27 48
M  V30 51 1 29 49
M  V30 52 1 29 50
M  V30 53 1 30 51
M  V30 54 1 30 52
M  V30 55 1 31 53
M  V30 56 1 31 54
M  V30 57 1 32 55
M  V30 58 1 32 56
M  V30 END BOND
M  V30 END CTAB
M  END
>  <Dataset>  (101) 
ChEMBL_Kinases

>  <Ligand_Instance>  (101) 
nan

>  <PDB_ID>  (101) 
nan

>  <Standardized_SMILES>  (101) 
NC(=O)c1c(OCc2c(F)cc(Br)cc2F)nsc1NC(=O)NCCCCN1CCCC1

>  <Name>  (101) 
OSI-632

>  <Pocket>  (101) 
nan

>  <ATP_Site>  (101) 
nan

>  <Peripheral>  (101) 
nan

>  <Num_H_Atoms_ProtBoundConf>  (101) 
nan

>  <Num_Resolved_Atoms>  (101) 
nan

>  <Num_Not_Resolved_Atoms>  (101) 
nan

$$$$
CHEMBL259084
     RDKit          3D

  0  0  0  0  0  0  0  0  0  0999 V3000
M  V30 BEGIN CTAB
M  V30 COUNTS 49 53 0 0 0
M  V30 BEGIN ATOM
M  V30 1 O 6.426892 -3.827275 1.035069 0
M  V30 2 C 6.741100 -2.642394 1.326682 0
M  V30 3 O 8.107534 -2.545940 1.550846 0
M  V30 4 C 5.812745 -1.500112 1.424246 0
M  V30 5 C 6.224813 -0.236316 1.742851 0
M  V30 6 C 5.277811 0.758312 1.810796 0
M  V30 7 C 3.934282 0.581932 1.581169 0
M  V30 8 N 3.028092 1.659617 1.686114 0
M  V30 9 C 1.672054 1.721965 1.329896 0
M  V30 10 N 0.966501 2.854713 1.608570 0
M  V30 11 C -0.325157 2.972600 1.284060 0
M  V30 12 C -1.025900 1.970801 0.652867 0
M  V30 13 C -0.304368 0.826685 0.373196 0
M  V30 14 N 0.981421 0.732429 0.706329 0
M  V30 15 C -0.831386 -0.361554 -0.293747 0
M  V30 16 C 0.186988 -1.067821 -0.899934 0
M  V30 17 C -0.158484 -2.226654 -1.572911 0
M  V30 18 C -1.479681 -2.617193 -1.607992 0
M  V30 19 Cl -1.913633 -4.089004 -2.463832 0
M  V30 20 C -2.507343 -1.907942 -0.998742 0
M  V30 21 C -2.175458 -0.751467 -0.324907 0
M  V30 22 C -3.338596 -0.079535 0.276253 0
M  V30 23 C -4.463196 -0.964019 0.554032 0
M  V30 24 C -5.732926 -0.938231 0.052298 0
M  V30 25 F -5.962503 0.051930 -0.823933 0
M  V30 26 C -6.662925 -1.880926 0.451015 0
M  V30 27 C -6.340147 -2.876461 1.366403 0
M  V30 28 C -5.050066 -2.904044 1.877113 0
M  V30 29 C -4.124447 -1.960919 1.476565 0
M  V30 30 F -2.894369 -2.103684 2.055930 0
M  V30 31 N -3.344213 1.186741 0.527033 0
M  V30 32 C -2.448764 2.282082 0.380526 0
M  V30 33 C 3.588446 -0.704758 1.267459 0
M  V30 34 C 4.486381 -1.766743 1.178391 0
M  V30 35 H 8.601861 -3.225865 2.147675 0
M  V30 36 H 7.267404 -0.033346 1.935254 0
M  V30 37 H 5.655550 1.743346 2.068007 0
M  V30 38 H 3.447523 2.545876 2.096689 0
M  V30 39 H -0.855850 3.891749 1.522580 0
M  V30 40 H 1.192345 -0.679627 -0.821436 0
M  V30 41 H 0.620404 -2.800786 -2.057485 0
M  V30 42 H -3.545144 -2.169567 -0.997893 0
M  V30 43 H -7.661899 -1.822475 0.026192 0
M  V30 44 H -7.089195 -3.616171 1.672819 0
M  V30 45 H -4.836720 -3.698607 2.590550 0
M  V30 46 H -2.767954 3.072103 1.102696 0
M  V30 47 H -2.499854 2.774221 -0.627897 0
M  V30 48 H 2.567017 -0.967482 1.074294 0
M  V30 49 H 4.145915 -2.767634 0.923843 0
M  V30 END ATOM
M  V30 BEGIN BOND
M  V30 1 2 1 2
M  V30 2 1 2 3
M  V30 3 1 2 4
M  V30 4 2 4 5
M  V30 5 1 5 6
M  V30 6 2 6 7
M  V30 7 1 7 8
M  V30 8 1 8 9
M  V30 9 2 9 10
M  V30 10 1 10 11
M  V30 11 2 11 12
M  V30 12 1 12 13
M  V30 13 2 13 14
M  V30 14 1 13 15
M  V30 15 2 15 16
M  V30 16 1 16 17
M  V30 17 2 17 18
M  V30 18 1 18 19
M  V30 19 1 18 20
M  V30 20 2 20 21
M  V30 21 1 21 22
M  V30 22 1 22 23
M  V30 23 2 23 24
M  V30 24 1 24 25
M  V30 25 1 24 26
M  V30 26 2 26 27
M  V30 27 1 27 28
M  V30 28 2 28 29
M  V30 29 1 29 30
M  V30 30 2 22 31
M  V30 31 1 31 32
M  V30 32 1 7 33
M  V30 33 2 33 34
M  V30 34 1 34 4
M  V30 35 1 14 9
M  V30 36 1 21 15
M  V30 37 1 29 23
M  V30 38 1 32 12
M  V30 39 1 3 35
M  V30 40 1 5 36
M  V30 41 1 6 37
M  V30 42 1 8 38
M  V30 43 1 11 39
M  V30 44 1 16 40
M  V30 45 1 17 41
M  V30 46 1 20 42
M  V30 47 1 26 43
M  V30 48 1 27 44
M  V30 49 1 28 45
M  V30 50 1 32 46
M  V30 51 1 32 47
M  V30 52 1 33 48
M  V30 53 1 34 49
M  V30 END BOND
M  V30 END CTAB
M  END
>  <Dataset>  (102) 
ChEMBL_Kinases

>  <Ligand_Instance>  (102) 
nan

>  <PDB_ID>  (102) 
nan

>  <Standardized_SMILES>  (102) 
O=C(O)c1ccc(Nc2ncc3c(n2)-c2ccc(Cl)cc2C(c2c(F)cccc2F)=NC3)cc1

>  <Name>  (102) 
MLN-8054

>  <Pocket>  (102) 
nan

>  <ATP_Site>  (102) 
nan

>  <Peripheral>  (102) 
nan

>  <Num_H_Atoms_ProtBoundConf>  (102) 
nan

>  <Num_Resolved_Atoms>  (102) 
nan

>  <Num_Not_Resolved_Atoms>  (102) 
nan

$$$$
CHEMBL5086263
     RDKit          3D

  0  0  0  0  0  0  0  0  0  0999 V3000
M  V30 BEGIN CTAB
M  V30 COUNTS 53 57 0 0 0
M  V30 BEGIN ATOM
M  V30 1 C 2.968089 -2.860155 0.447105 0
M  V30 2 N 1.838075 -2.232097 1.075650 0
M  V30 3 C 2.216613 -1.129611 1.926586 0
M  V30 4 C 2.307647 0.125062 1.142440 0
M  V30 5 N 3.498805 0.270455 0.489217 0
M  V30 6 N 3.573033 1.385632 -0.193874 0
M  V30 7 C 4.752441 1.773168 -0.982024 0
M  V30 8 C 2.394687 2.001243 0.011010 0
M  V30 9 C 2.211323 3.288289 -0.643750 0
M  V30 10 N 2.046823 4.316265 -1.157206 0
M  V30 11 C 1.598004 1.237109 0.834224 0
M  V30 12 C 0.283909 1.775239 1.127533 0
M  V30 13 C -0.033747 3.040330 1.559823 0
M  V30 14 N -1.315668 3.394916 1.766974 0
M  V30 15 C -2.370161 2.592044 1.583830 0
M  V30 16 N -3.710861 2.567352 1.669859 0
M  V30 17 C -4.214151 1.344734 1.311847 0
M  V30 18 F -5.494760 0.930645 1.247484 0
M  V30 19 C -3.176153 0.524506 0.976101 0
M  V30 20 C -2.090618 1.316480 1.152175 0
M  V30 21 C -0.789069 0.953342 0.939408 0
M  V30 22 C -2.892452 -0.821293 0.558658 0
M  V30 23 C -2.329430 -1.397228 -0.527361 0
M  V30 24 N -2.316464 -2.719451 -0.291429 0
M  V30 25 N -2.852639 -2.959656 0.896231 0
M  V30 26 C -3.242433 -1.785356 1.493259 0
M  V30 27 C -3.877325 -1.819313 2.849937 0
M  V30 28 F -5.154514 -1.353353 2.893511 0
M  V30 29 F -3.040656 -1.114256 3.722594 0
M  V30 30 F -3.908599 -3.100159 3.353014 0
M  V30 31 C -1.836010 -3.781847 -1.119293 0
M  V30 32 C -0.732536 -4.628842 -0.608856 0
M  V30 33 C 0.604853 -4.061085 -0.405995 0
M  V30 34 C 0.754396 -2.993224 0.582366 0
M  V30 35 O 0.096169 -2.323320 1.376159 0
M  V30 36 H 2.918849 -2.825636 -0.676668 0
M  V30 37 H 3.063557 -3.953854 0.723762 0
M  V30 38 H 3.960209 -2.430456 0.757942 0
M  V30 39 H 3.124319 -1.348388 2.502019 0
M  V30 40 H 1.366914 -0.924799 2.668667 0
M  V30 41 H 5.509468 2.300354 -0.373209 0
M  V30 42 H 4.435523 2.343853 -1.886437 0
M  V30 43 H 5.225325 0.845807 -1.363020 0
M  V30 44 H 0.809084 3.700395 1.709986 0
M  V30 45 H -4.258080 3.403080 1.976990 0
M  V30 46 H -0.682735 -0.044286 0.583798 0
M  V30 47 H -1.965192 -0.889900 -1.405375 0
M  V30 48 H -1.561635 -3.332916 -2.111709 0
M  V30 49 H -2.748618 -4.422076 -1.342660 0
M  V30 50 H -0.586505 -5.439557 -1.396356 0
M  V30 51 H -1.059538 -5.251150 0.281554 0
M  V30 52 H 1.339403 -4.892055 -0.237533 0
M  V30 53 H 0.929098 -3.608962 -1.401356 0
M  V30 END ATOM
M  V30 BEGIN BOND
M  V30 1 1 1 2
M  V30 2 1 2 3
M  V30 3 1 3 4
M  V30 4 2 4 5
M  V30 5 1 5 6
M  V30 6 1 6 7
M  V30 7 1 6 8
M  V30 8 1 8 9
M  V30 9 3 9 10
M  V30 10 2 8 11
M  V30 11 1 11 12
M  V30 12 2 12 13
M  V30 13 1 13 14
M  V30 14 2 14 15
M  V30 15 1 15 16
M  V30 16 1 16 17
M  V30 17 1 17 18
M  V30 18 2 17 19
M  V30 19 1 19 20
M  V30 20 2 20 21
M  V30 21 1 19 22
M  V30 22 2 22 23
M  V30 23 1 23 24
M  V30 24 1 24 25
M  V30 25 2 25 26
M  V30 26 1 26 27
M  V30 27 1 27 28
M  V30 28 1 27 29
M  V30 29 1 27 30
M  V30 30 1 24 31
M  V30 31 1 31 32
M  V30 32 1 32 33
M  V30 33 1 33 34
M  V30 34 2 34 35
M  V30 35 1 34 2
M  V30 36 1 11 4
M  V30 37 1 21 12
M  V30 38 1 26 22
M  V30 39 1 20 15
M  V30 40 1 1 36
M  V30 41 1 1 37
M  V30 42 1 1 38
M  V30 43 1 3 39
M  V30 44 1 3 40
M  V30 45 1 7 41
M  V30 46 1 7 42
M  V30 47 1 7 43
M  V30 48 1 13 44
M  V30 49 1 16 45
M  V30 50 1 21 46
M  V30 51 1 23 47
M  V30 52 1 31 48
M  V30 53 1 31 49
M  V30 54 1 32 50
M  V30 55 1 32 51
M  V30 56 1 33 52
M  V30 57 1 33 53
M  V30 END BOND
M  V30 END CTAB
M  END
>  <Dataset>  (103) 
ChEMBL_Kinases

>  <Ligand_Instance>  (103) 
nan

>  <PDB_ID>  (103) 
nan

>  <Standardized_SMILES>  (103) 
CN1Cc2nn(C)c(C#N)c2-c2cnc3[nH]c(F)c(c3c2)-c2cn(nc2C(F)(F)F)CCCC1=O

>  <Name>  (103) 
nan

>  <Pocket>  (103) 
nan

>  <ATP_Site>  (103) 
nan

>  <Peripheral>  (103) 
nan

>  <Num_H_Atoms_ProtBoundConf>  (103) 
nan

>  <Num_Resolved_Atoms>  (103) 
nan

>  <Num_Not_Resolved_Atoms>  (103) 
nan

$$$$
CHEMBL1230609
     RDKit          3D

  0  0  0  0  0  0  0  0  0  0999 V3000
M  V30 BEGIN CTAB
M  V30 COUNTS 80 85 0 0 0
M  V30 BEGIN ATOM
M  V30 1 C -0.495406 3.135671 -0.252819 0
M  V30 2 O -1.874428 2.860794 -0.214041 0
M  V30 3 C -2.412030 2.131808 -1.290995 0
M  V30 4 C -1.556165 1.733117 -2.312821 0
M  V30 5 C -2.034723 1.021429 -3.381306 0
M  V30 6 C -1.188313 0.639211 -4.397488 0
M  V30 7 O 0.170394 0.914129 -4.423618 0
M  V30 8 C 1.087079 0.419077 -3.507714 0
M  V30 9 C 0.935491 -0.440877 -2.428764 0
M  V30 10 C 2.008343 -0.799629 -1.645037 0
M  V30 11 C 3.287401 -0.304723 -1.915892 0
M  V30 12 N 4.226114 -0.817576 -0.980861 0
M  V30 13 C 4.426175 -0.088292 0.215050 0
M  V30 14 O 3.609149 0.905637 0.051539 0
M  V30 15 C 5.176142 -0.055743 1.489943 0
M  V30 16 C 6.156123 -1.098315 1.826488 0
M  V30 17 O 6.718743 -0.911925 2.969602 0
M  V30 18 N 6.761734 -2.291845 1.368691 0
M  V30 19 C 7.726068 -2.826905 2.295443 0
M  V30 20 C 9.067267 -2.499490 2.294578 0
M  V30 21 C 9.831287 -3.115424 3.258344 0
M  V30 22 C 9.370714 -3.998706 4.184706 0
M  V30 23 F 10.197896 -4.567841 5.111579 0
M  V30 24 C 8.008225 -4.285016 4.130138 0
M  V30 25 C 7.166008 -3.715245 3.199154 0
M  V30 26 C 5.644073 1.365110 1.854611 0
M  V30 27 C 4.526555 0.700176 2.617289 0
M  V30 28 C 3.451150 0.550919 -2.985491 0
M  V30 29 C 2.368507 0.903364 -3.763732 0
M  V30 30 F 2.730161 1.751354 -4.765558 0
M  V30 31 C -1.707732 -0.062515 -5.466567 0
M  V30 32 C -3.070146 -0.373201 -5.500795 0
M  V30 33 N -3.881843 0.012430 -4.488857 0
M  V30 34 C -3.365225 0.693210 -3.458746 0
M  V30 35 C -4.177049 1.103753 -2.432626 0
M  V30 36 C -3.780310 1.818217 -1.326264 0
M  V30 37 O -4.474142 2.280479 -0.249045 0
M  V30 38 C -5.817339 2.147206 0.082342 0
M  V30 39 C -6.279779 0.727560 0.319176 0
M  V30 40 C -7.742800 0.651974 0.663783 0
M  V30 41 N -8.229466 -0.657189 0.902156 0
M  V30 42 C -7.759685 -1.314930 2.071339 0
M  V30 43 C -6.608532 -2.245523 1.845664 0
M  V30 44 O -6.466074 -2.608792 0.508460 0
M  V30 45 C -7.700815 -2.773901 -0.114168 0
M  V30 46 C -8.458226 -1.473500 -0.240878 0
M  V30 47 H -0.188831 3.751971 0.621492 0
M  V30 48 H 0.102231 2.185745 -0.144783 0
M  V30 49 H -0.167519 3.690288 -1.151853 0
M  V30 50 H -0.509705 1.992720 -2.271305 0
M  V30 51 H -0.091679 -0.756263 -2.320708 0
M  V30 52 H 1.707252 -1.477257 -0.847803 0
M  V30 53 H 4.843373 -1.656882 -0.960628 0
M  V30 54 H 6.373618 -2.530959 0.445016 0
M  V30 55 H 9.418596 -1.796691 1.552712 0
M  V30 56 H 10.887286 -2.876063 3.279691 0
M  V30 57 H 7.614121 -4.992805 4.866161 0
M  V30 58 H 6.120878 -3.990179 3.223936 0
M  V30 59 H 5.341196 2.208961 1.216484 0
M  V30 60 H 6.628505 1.464389 2.374733 0
M  V30 61 H 3.479258 1.002677 2.429442 0
M  V30 62 H 4.691549 0.376403 3.661903 0
M  V30 63 H 4.478255 0.864598 -3.092756 0
M  V30 64 H -1.131705 -0.407784 -6.315890 0
M  V30 65 H -3.545488 -0.922630 -6.308409 0
M  V30 66 H -5.207756 0.864375 -2.490351 0
M  V30 67 H -6.478922 2.603549 -0.718935 0
M  V30 68 H -6.008745 2.792335 0.970165 0
M  V30 69 H -5.735952 0.400285 1.262096 0
M  V30 70 H -5.950753 0.052727 -0.450295 0
M  V30 71 H -8.309242 1.078838 -0.190486 0
M  V30 72 H -7.963803 1.292773 1.540921 0
M  V30 73 H -8.608702 -1.925372 2.459221 0
M  V30 74 H -7.536240 -0.563606 2.837621 0
M  V30 75 H -6.722489 -3.149059 2.479823 0
M  V30 76 H -5.619939 -1.810228 2.174055 0
M  V30 77 H -8.302392 -3.581932 0.335862 0
M  V30 78 H -7.456692 -3.140532 -1.148475 0
M  V30 79 H -8.254531 -0.982991 -1.211866 0
M  V30 80 H -9.549521 -1.748550 -0.272444 0
M  V30 END ATOM
M  V30 BEGIN BOND
M  V30 1 1 1 2
M  V30 2 1 2 3
M  V30 3 2 3 4
M  V30 4 1 4 5
M  V30 5 2 5 6
M  V30 6 1 6 7
M  V30 7 1 7 8
M  V30 8 2 8 9
M  V30 9 1 9 10
M  V30 10 2 10 11
M  V30 11 1 11 12
M  V30 12 1 12 13
M  V30 13 2 13 14
M  V30 14 1 13 15
M  V30 15 1 15 16
M  V30 16 2 16 17
M  V30 17 1 16 18
M  V30 18 1 18 19
M  V30 19 2 19 20
M  V30 20 1 20 21
M  V30 21 2 21 22
M  V30 22 1 22 23
M  V30 23 1 22 24
M  V30 24 2 24 25
M  V30 25 1 15 26
M  V30 26 1 26 27
M  V30 27 1 11 28
M  V30 28 2 28 29
M  V30 29 1 29 30
M  V30 30 1 6 31
M  V30 31 2 31 32
M  V30 32 1 32 33
M  V30 33 2 33 34
M  V30 34 1 34 35
M  V30 35 2 35 36
M  V30 36 1 36 37
M  V30 37 1 37 38
M  V30 38 1 38 39
M  V30 39 1 39 40
M  V30 40 1 40 41
M  V30 41 1 41 42
M  V30 42 1 42 43
M  V30 43 1 43 44
M  V30 44 1 44 45
M  V30 45 1 45 46
M  V30 46 1 36 3
M  V30 47 1 46 41
M  V30 48 1 34 5
M  V30 49 1 29 8
M  V30 50 1 27 15
M  V30 51 1 25 19
M  V30 52 1 1 47
M  V30 53 1 1 48
M  V30 54 1 1 49
M  V30 55 1 4 50
M  V30 56 1 9 51
M  V30 57 1 10 52
M  V30 58 1 12 53
M  V30 59 1 18 54
M  V30 60 1 20 55
M  V30 61 1 21 56
M  V30 62 1 24 57
M  V30 63 1 25 58
M  V30 64 1 26 59
M  V30 65 1 26 60
M  V30 66 1 27 61
M  V30 67 1 27 62
M  V30 68 1 28 63
M  V30 69 1 31 64
M  V30 70 1 32 65
M  V30 71 1 35 66
M  V30 72 1 38 67
M  V30 73 1 38 68
M  V30 74 1 39 69
M  V30 75 1 39 70
M  V30 76 1 40 71
M  V30 77 1 40 72
M  V30 78 1 42 73
M  V30 79 1 42 74
M  V30 80 1 43 75
M  V30 81 1 43 76
M  V30 82 1 45 77
M  V30 83 1 45 78
M  V30 84 1 46 79
M  V30 85 1 46 80
M  V30 END BOND
M  V30 END CTAB
M  END
>  <Dataset>  (104) 
ChEMBL_Kinases

>  <Ligand_Instance>  (104) 
nan

>  <PDB_ID>  (104) 
nan

>  <Standardized_SMILES>  (104) 
COc1cc2c(Oc3ccc(NC(=O)C4(C(=O)Nc5ccc(F)cc5)CC4)cc3F)ccnc2cc1OCCCN1CCOCC1

>  <Name>  (104) 
FORETINIB

>  <Pocket>  (104) 
nan

>  <ATP_Site>  (104) 
nan

>  <Peripheral>  (104) 
nan

>  <Num_H_Atoms_ProtBoundConf>  (104) 
nan

>  <Num_Resolved_Atoms>  (104) 
nan

>  <Num_Not_Resolved_Atoms>  (104) 
nan

$$$$
CHEMBL4094562
     RDKit          3D

  0  0  0  0  0  0  0  0  0  0999 V3000
M  V30 BEGIN CTAB
M  V30 COUNTS 27 29 0 0 0
M  V30 BEGIN ATOM
M  V30 1 C 0.534654 -3.805478 5.139448 0
M  V30 2 C 0.286869 -3.023773 4.250569 0
M  V30 3 C 0.004067 -2.088629 3.195874 0
M  V30 4 N 0.777197 -1.964285 2.127879 0
M  V30 5 C 0.592667 -1.122570 1.098434 0
M  V30 6 N 1.485213 -1.085140 0.021917 0
M  V30 7 C 1.450611 -0.285178 -1.117778 0
M  V30 8 C 0.511358 0.662614 -1.440532 0
M  V30 9 C 0.477298 1.446664 -2.557400 0
M  V30 10 C 1.488563 1.288152 -3.480558 0
M  V30 11 C 2.474914 0.358960 -3.239098 0
M  V30 12 C 2.427523 -0.385394 -2.087574 0
M  V30 13 N -0.496466 -0.358196 1.218152 0
M  V30 14 C -1.323410 -0.428133 2.267533 0
M  V30 15 N -2.454170 0.263763 2.541733 0
M  V30 16 C -2.954750 -0.158640 3.737160 0
M  V30 17 N -2.113076 -1.115715 4.184628 0
M  V30 18 C -1.115492 -1.298192 3.311993 0
M  V30 19 H 0.738685 -4.506311 5.926792 0
M  V30 20 H 2.303769 -1.760440 0.080757 0
M  V30 21 H -0.308986 0.839173 -0.762398 0
M  V30 22 H -0.274301 2.173080 -2.768475 0
M  V30 23 H 1.547983 1.861630 -4.393951 0
M  V30 24 H 3.266733 0.240435 -3.970180 0
M  V30 25 H 3.257177 -1.101996 -1.980259 0
M  V30 26 H -2.887464 1.008271 1.940226 0
M  V30 27 H -3.851506 0.200968 4.233341 0
M  V30 END ATOM
M  V30 BEGIN BOND
M  V30 1 3 1 2
M  V30 2 1 2 3
M  V30 3 2 3 4
M  V30 4 1 4 5
M  V30 5 1 5 6
M  V30 6 1 6 7
M  V30 7 2 7 8
M  V30 8 1 8 9
M  V30 9 2 9 10
M  V30 10 1 10 11
M  V30 11 2 11 12
M  V30 12 2 5 13
M  V30 13 1 13 14
M  V30 14 1 14 15
M  V30 15 1 15 16
M  V30 16 2 16 17
M  V30 17 1 17 18
M  V30 18 1 18 3
M  V30 19 1 12 7
M  V30 20 2 18 14
M  V30 21 1 1 19
M  V30 22 1 6 20
M  V30 23 1 8 21
M  V30 24 1 9 22
M  V30 25 1 10 23
M  V30 26 1 11 24
M  V30 27 1 12 25
M  V30 28 1 15 26
M  V30 29 1 16 27
M  V30 END BOND
M  V30 END CTAB
M  END
>  <Dataset>  (105) 
ChEMBL_Kinases

>  <Ligand_Instance>  (105) 
nan

>  <PDB_ID>  (105) 
nan

>  <Standardized_SMILES>  (105) 
C#Cc1nc(Nc2ccccc2)nc2[nH]cnc12

>  <Name>  (105) 
nan

>  <Pocket>  (105) 
nan

>  <ATP_Site>  (105) 
nan

>  <Peripheral>  (105) 
nan

>  <Num_H_Atoms_ProtBoundConf>  (105) 
nan

>  <Num_Resolved_Atoms>  (105) 
nan

>  <Num_Not_Resolved_Atoms>  (105) 
nan

$$$$
CHEMBL485053
     RDKit          3D

  0  0  0  0  0  0  0  0  0  0999 V3000
M  V30 BEGIN CTAB
M  V30 COUNTS 29 31 0 0 0
M  V30 BEGIN ATOM
M  V30 1 C -1.440411 -3.638787 4.167509 0
M  V30 2 N -0.862179 -2.659175 3.275067 0
M  V30 3 C -0.482250 -1.289012 3.469828 0
M  V30 4 O -0.634908 -0.746740 4.599146 0
M  V30 5 C 0.052716 -0.763668 2.185229 0
M  V30 6 C 0.447073 0.486372 2.124188 0
M  V30 7 C 0.939298 0.782834 0.768750 0
M  V30 8 C 1.841007 -0.107262 0.176962 0
M  V30 9 C 2.293252 0.123574 -1.107281 0
M  V30 10 C 1.834216 1.237690 -1.768935 0
M  V30 11 C 0.935671 2.142797 -1.201932 0
M  V30 12 C 0.490085 1.912041 0.069787 0
M  V30 13 O 0.700731 3.150983 -2.181016 0
M  V30 14 C 0.995502 2.479816 -3.402881 0
M  V30 15 O 2.141026 1.684759 -3.076403 0
M  V30 16 N -0.063053 -1.881411 1.364081 0
M  V30 17 C -0.547732 -2.915823 1.898835 0
M  V30 18 N -0.779760 -4.183713 1.247565 0
M  V30 19 H -0.760736 -4.465567 4.419371 0
M  V30 20 H -2.355551 -4.110144 3.708822 0
M  V30 21 H -1.800333 -3.162737 5.095032 0
M  V30 22 H 0.420850 1.211889 2.922104 0
M  V30 23 H 2.171448 -0.967160 0.754021 0
M  V30 24 H 2.984305 -0.612690 -1.479009 0
M  V30 25 H -0.197140 2.588953 0.535029 0
M  V30 26 H 0.208684 1.763266 -3.703879 0
M  V30 27 H 1.227927 3.137201 -4.234928 0
M  V30 28 H -0.224109 -4.973290 0.875709 0
M  V30 29 H -1.812733 -4.277397 1.147923 0
M  V30 END ATOM
M  V30 BEGIN BOND
M  V30 1 1 1 2
M  V30 2 1 2 3
M  V30 3 2 3 4
M  V30 4 1 3 5
M  V30 5 2 5 6
M  V30 6 1 6 7
M  V30 7 2 7 8
M  V30 8 1 8 9
M  V30 9 2 9 10
M  V30 10 1 10 11
M  V30 11 2 11 12
M  V30 12 1 11 13
M  V30 13 1 13 14
M  V30 14 1 14 15
M  V30 15 1 5 16
M  V30 16 2 16 17
M  V30 17 1 17 18
M  V30 18 1 17 2
M  V30 19 1 12 7
M  V30 20 1 15 10
M  V30 21 1 1 19
M  V30 22 1 1 20
M  V30 23 1 1 21
M  V30 24 1 6 22
M  V30 25 1 8 23
M  V30 26 1 9 24
M  V30 27 1 12 25
M  V30 28 1 14 26
M  V30 29 1 14 27
M  V30 30 1 18 28
M  V30 31 1 18 29
M  V30 END BOND
M  V30 END CTAB
M  END
>  <Dataset>  (106) 
ChEMBL_Kinases

>  <Ligand_Instance>  (106) 
nan

>  <PDB_ID>  (106) 
nan

>  <Standardized_SMILES>  (106) 
CN1C(=O)/C(=C/c2ccc3c(c2)OCO3)N=C1N

>  <Name>  (106) 
LEUCETTAMINE B

>  <Pocket>  (106) 
nan

>  <ATP_Site>  (106) 
nan

>  <Peripheral>  (106) 
nan

>  <Num_H_Atoms_ProtBoundConf>  (106) 
nan

>  <Num_Resolved_Atoms>  (106) 
nan

>  <Num_Not_Resolved_Atoms>  (106) 
nan

$$$$
CHEMBL4554938
     RDKit          3D

  0  0  0  0  0  0  0  0  0  0999 V3000
M  V30 BEGIN CTAB
M  V30 COUNTS 44 47 0 0 0
M  V30 BEGIN ATOM
M  V30 1 C 1.603637 -2.810798 -2.927924 0
M  V30 2 N 2.180573 -1.580704 -2.470362 0
M  V30 3 C 3.242603 -1.083367 -3.245702 0
M  V30 4 O 3.491068 -1.531594 -4.372108 0
M  V30 5 C 4.152454 -0.024431 -2.850092 0
M  V30 6 S 5.846982 0.229371 -3.638703 0
M  V30 7 C 6.267125 1.709183 -2.573988 0
M  V30 8 C 5.144411 1.875058 -1.754504 0
M  V30 9 C 4.061714 1.059092 -1.831983 0
M  V30 10 N 2.904392 1.167390 -1.039871 0
M  V30 11 C 2.737750 2.517234 -0.542579 0
M  V30 12 C 1.941757 0.185446 -0.688131 0
M  V30 13 N 1.288524 0.556712 0.422503 0
M  V30 14 C 0.315759 -0.164124 1.005533 0
M  V30 15 N -0.313897 0.317409 2.180101 0
M  V30 16 C -1.347114 -0.289960 2.932631 0
M  V30 17 C -1.951880 -1.494295 2.659636 0
M  V30 18 C -2.956659 -2.080653 3.395038 0
M  V30 19 C -3.406347 -1.408628 4.509588 0
M  V30 20 S -4.678786 -2.098711 5.485004 0
M  V30 21 N -6.232046 -1.586263 4.929933 0
M  V30 22 O -4.521602 -1.647574 6.895706 0
M  V30 23 O -4.624027 -3.595328 5.371609 0
M  V30 24 C -2.838004 -0.196975 4.833259 0
M  V30 25 C -1.835899 0.335649 4.055959 0
M  V30 26 N 0.035847 -1.314826 0.380236 0
M  V30 27 C 0.629012 -1.772199 -0.729441 0
M  V30 28 C 1.621445 -1.004624 -1.297318 0
M  V30 29 H 2.110992 -3.116328 -3.865784 0
M  V30 30 H 1.792848 -3.680925 -2.231534 0
M  V30 31 H 0.532447 -2.710938 -3.201600 0
M  V30 32 H 7.165381 2.264220 -2.617802 0
M  V30 33 H 5.181629 2.689201 -1.054401 0
M  V30 34 H 1.695351 2.723146 -0.234076 0
M  V30 35 H 3.481854 2.775444 0.212018 0
M  V30 36 H 2.904373 3.200273 -1.421797 0
M  V30 37 H 0.032321 1.249601 2.540503 0
M  V30 38 H -1.637938 -2.058662 1.801514 0
M  V30 39 H -3.387757 -3.033551 3.121083 0
M  V30 40 H -6.811249 -1.221527 5.704177 0
M  V30 41 H -6.149696 -0.945157 4.123440 0
M  V30 42 H -3.190807 0.333512 5.710418 0
M  V30 43 H -1.437309 1.297850 4.377482 0
M  V30 44 H 0.356656 -2.704473 -1.180085 0
M  V30 END ATOM
M  V30 BEGIN BOND
M  V30 1 1 1 2
M  V30 2 1 2 3
M  V30 3 2 3 4
M  V30 4 1 3 5
M  V30 5 1 5 6
M  V30 6 1 6 7
M  V30 7 2 7 8
M  V30 8 1 8 9
M  V30 9 1 9 10
M  V30 10 1 10 11
M  V30 11 1 10 12
M  V30 12 2 12 13
M  V30 13 1 13 14
M  V30 14 1 14 15
M  V30 15 1 15 16
M  V30 16 2 16 17
M  V30 17 1 17 18
M  V30 18 2 18 19
M  V30 19 1 19 20
M  V30 20 1 20 21
M  V30 21 2 20 22
M  V30 22 2 20 23
M  V30 23 1 19 24
M  V30 24 2 24 25
M  V30 25 2 14 26
M  V30 26 1 26 27
M  V30 27 2 27 28
M  V30 28 1 28 2
M  V30 29 2 9 5
M  V30 30 1 28 12
M  V30 31 1 25 16
M  V30 32 1 1 29
M  V30 33 1 1 30
M  V30 34 1 1 31
M  V30 35 1 7 32
M  V30 36 1 8 33
M  V30 37 1 11 34
M  V30 38 1 11 35
M  V30 39 1 11 36
M  V30 40 1 15 37
M  V30 41 1 17 38
M  V30 42 1 18 39
M  V30 43 1 21 40
M  V30 44 1 21 41
M  V30 45 1 24 42
M  V30 46 1 25 43
M  V30 47 1 27 44
M  V30 END BOND
M  V30 END CTAB
M  END
>  <Dataset>  (107) 
ChEMBL_Kinases

>  <Ligand_Instance>  (107) 
nan

>  <PDB_ID>  (107) 
nan

>  <Standardized_SMILES>  (107) 
CN1C(=O)c2sccc2N(C)c2nc(Nc3ccc(S(N)(=O)=O)cc3)ncc21

>  <Name>  (107) 
nan

>  <Pocket>  (107) 
nan

>  <ATP_Site>  (107) 
nan

>  <Peripheral>  (107) 
nan

>  <Num_H_Atoms_ProtBoundConf>  (107) 
nan

>  <Num_Resolved_Atoms>  (107) 
nan

>  <Num_Not_Resolved_Atoms>  (107) 
nan

$$$$
CHEMBL393525
     RDKit          3D

  0  0  0  0  0  0  0  0  0  0999 V3000
M  V30 BEGIN CTAB
M  V30 COUNTS 41 43 0 0 0
M  V30 BEGIN ATOM
M  V30 1 C 0.633358 -1.371692 -0.519463 0
M  V30 2 C 1.957175 -0.919150 -1.021915 0
M  V30 3 C 2.711853 -1.833929 -1.724029 0
M  V30 4 C 3.951186 -1.458685 -2.211564 0
M  V30 5 C 4.365982 -0.167760 -1.961687 0
M  V30 6 N 5.634862 0.249010 -2.449295 0 CHG=1 VAL=4
M  V30 7 O 6.430366 -0.457042 -3.097873 0
M  V30 8 O 6.078131 1.540527 -2.213462 0 CHG=-1 VAL=1
M  V30 9 C 3.630375 0.751900 -1.267394 0
M  V30 10 C 2.391454 0.374181 -0.780940 0
M  V30 11 S 1.362868 1.454756 0.117081 0
M  V30 12 O 0.135665 1.755217 -0.658205 0
M  V30 13 O 2.105361 2.777417 0.255060 0
M  V30 14 N 1.013873 0.872723 1.705738 0
M  V30 15 C 2.083470 0.671173 2.641382 0
M  V30 16 N -0.327362 0.618416 2.014967 0
M  V30 17 C -0.806932 0.492530 3.189280 0
M  V30 18 C -2.254957 0.233107 3.062735 0
M  V30 19 C -3.307133 1.092032 3.302955 0
M  V30 20 N -4.463195 0.412518 3.052110 0
M  V30 21 C -4.123245 -0.835667 2.666667 0
M  V30 22 C -4.938242 -1.903793 2.303015 0
M  V30 23 C -4.336471 -3.093279 1.944197 0
M  V30 24 C -2.962862 -3.217293 1.946871 0
M  V30 25 Br -2.013470 -4.797967 1.474615 0
M  V30 26 C -2.192763 -2.124511 2.316969 0
M  V30 27 N -2.769743 -0.956609 2.669699 0
M  V30 28 H 0.715758 -1.639934 0.568945 0
M  V30 29 H -0.090131 -0.571901 -0.697846 0
M  V30 30 H 0.283039 -2.263518 -1.075281 0
M  V30 31 H 2.329081 -2.838551 -1.888465 0
M  V30 32 H 4.542192 -2.173047 -2.760689 0
M  V30 33 H 3.926240 1.767173 -1.055667 0
M  V30 34 H 1.924900 -0.252564 3.266826 0
M  V30 35 H 3.051617 0.557674 2.154636 0
M  V30 36 H 2.168379 1.508336 3.372257 0
M  V30 37 H -0.128794 0.588399 4.027888 0
M  V30 38 H -3.189972 2.116565 3.631448 0
M  V30 39 H -6.013133 -1.870940 2.280571 0
M  V30 40 H -4.847167 -4.002860 1.640117 0
M  V30 41 H -1.108778 -2.179012 2.332829 0
M  V30 END ATOM
M  V30 BEGIN BOND
M  V30 1 1 1 2
M  V30 2 2 2 3
M  V30 3 1 3 4
M  V30 4 2 4 5
M  V30 5 1 5 6
M  V30 6 2 6 7
M  V30 7 1 6 8
M  V30 8 1 5 9
M  V30 9 2 9 10
M  V30 10 1 10 11
M  V30 11 2 11 12
M  V30 12 2 11 13
M  V30 13 1 11 14
M  V30 14 1 14 15
M  V30 15 1 14 16
M  V30 16 2 16 17
M  V30 17 1 17 18
M  V30 18 2 18 19
M  V30 19 1 19 20
M  V30 20 2 20 21
M  V30 21 1 21 22
M  V30 22 2 22 23
M  V30 23 1 23 24
M  V30 24 1 24 25
M  V30 25 2 24 26
M  V30 26 1 26 27
M  V30 27 1 10 2
M  V30 28 1 27 18
M  V30 29 1 27 21
M  V30 30 1 1 28
M  V30 31 1 1 29
M  V30 32 1 1 30
M  V30 33 1 3 31
M  V30 34 1 4 32
M  V30 35 1 9 33
M  V30 36 1 15 34
M  V30 37 1 15 35
M  V30 38 1 15 36
M  V30 39 1 17 37
M  V30 40 1 19 38
M  V30 41 1 22 39
M  V30 42 1 23 40
M  V30 43 1 26 41
M  V30 END BOND
M  V30 END CTAB
M  END
>  <Dataset>  (108) 
ChEMBL_Kinases

>  <Ligand_Instance>  (108) 
nan

>  <PDB_ID>  (108) 
nan

>  <Standardized_SMILES>  (108) 
Cc1ccc([N+](=O)[O-])cc1S(=O)(=O)N(C)/N=C/c1cnc2ccc(Br)cn12

>  <Name>  (108) 
nan

>  <Pocket>  (108) 
nan

>  <ATP_Site>  (108) 
nan

>  <Peripheral>  (108) 
nan

>  <Num_H_Atoms_ProtBoundConf>  (108) 
nan

>  <Num_Resolved_Atoms>  (108) 
nan

>  <Num_Not_Resolved_Atoms>  (108) 
nan

$$$$
CHEMBL1231206
     RDKit          3D

  0  0  0  0  0  0  0  0  0  0999 V3000
M  V30 BEGIN CTAB
M  V30 COUNTS 45 49 0 0 0
M  V30 BEGIN ATOM
M  V30 1 C 1.432856 -8.517400 0.988300 0
M  V30 2 C 1.277314 -7.033683 0.901220 0
M  V30 3 C 1.834867 -6.336781 -0.150036 0
M  V30 4 C 1.716994 -4.947635 -0.275462 0
M  V30 5 C 1.015999 -4.255168 0.691316 0
M  V30 6 C 0.914586 -2.812028 0.527133 0
M  V30 7 C 0.253840 -1.969388 1.396165 0
M  V30 8 C 0.224504 -0.615531 1.138373 0
M  V30 9 C 0.811815 -0.007397 0.063759 0
M  V30 10 C 1.443910 -0.888042 -0.755008 0
M  V30 11 C 2.091896 -0.561782 -1.945170 0
M  V30 12 C 2.059447 0.774325 -2.271675 0
M  V30 13 C 1.403879 1.603219 -1.393376 0
M  V30 14 S 1.192145 3.457902 -1.588533 0
M  V30 15 C 0.292840 3.624452 -0.103284 0
M  V30 16 C 0.180888 2.321819 0.481115 0
M  V30 17 C 0.763380 1.326104 -0.224655 0
M  V30 18 N -0.454273 2.272474 1.756227 0
M  V30 19 C -1.701784 2.843186 2.206561 0
M  V30 20 C -2.058253 4.210599 1.929806 0 CFG=1
M  V30 21 C -2.563437 4.893942 3.214505 0
M  V30 22 N -1.157069 5.135757 1.344136 0
M  V30 23 C -0.185649 4.971540 0.273108 0
M  V30 24 O 0.299992 5.911277 -0.384169 0
M  V30 25 N 1.498126 -2.239479 -0.538174 0
M  V30 26 C 0.469922 -4.974206 1.729186 0
M  V30 27 N 0.595318 -6.309194 1.830262 0
M  V30 28 H 2.448727 -8.852417 0.676263 0
M  V30 29 H 0.702496 -8.950598 0.271110 0
M  V30 30 H 1.148161 -8.872682 2.005950 0
M  V30 31 H 2.376424 -6.928082 -0.884395 0
M  V30 32 H 2.204187 -4.522842 -1.152388 0
M  V30 33 H -0.207470 -2.442019 2.241949 0
M  V30 34 H -0.352473 -0.125376 1.872077 0
M  V30 35 H 2.590182 -1.236109 -2.595259 0
M  V30 36 H 2.517688 1.169690 -3.163984 0
M  V30 37 H 0.199847 1.712349 2.420677 0
M  V30 38 H -1.670444 2.658392 3.326446 0
M  V30 39 H -2.502157 2.141090 1.884453 0
M  V30 40 H -2.986728 4.254915 1.280538 0
M  V30 41 H -3.247703 4.157116 3.683933 0
M  V30 42 H -3.162332 5.789462 2.972187 0
M  V30 43 H -1.691351 5.099059 3.868811 0
M  V30 44 H -1.111453 6.143399 1.677430 0
M  V30 45 H -0.080823 -4.447234 2.492718 0
M  V30 END ATOM
M  V30 BEGIN BOND
M  V30 1 1 1 2
M  V30 2 2 2 3
M  V30 3 1 3 4
M  V30 4 2 4 5
M  V30 5 1 5 6
M  V30 6 2 6 7
M  V30 7 1 7 8
M  V30 8 2 8 9
M  V30 9 1 9 10
M  V30 10 1 10 11
M  V30 11 2 11 12
M  V30 12 1 12 13
M  V30 13 1 13 14
M  V30 14 1 14 15
M  V30 15 2 15 16
M  V30 16 1 16 17
M  V30 17 1 16 18
M  V30 18 1 18 19
M  V30 19 1 19 20
M  V30 20 1 20 21
M  V30 21 1 20 22
M  V30 22 1 22 23
M  V30 23 2 23 24
M  V30 24 2 10 25
M  V30 25 1 5 26
M  V30 26 2 26 27
M  V30 27 1 27 2
M  V30 28 1 25 6
M  V30 29 1 17 9
M  V30 30 2 17 13
M  V30 31 1 23 15
M  V30 32 1 1 28
M  V30 33 1 1 29
M  V30 34 1 1 30
M  V30 35 1 3 31
M  V30 36 1 4 32
M  V30 37 1 7 33
M  V30 38 1 8 34
M  V30 39 1 11 35
M  V30 40 1 12 36
M  V30 41 1 18 37
M  V30 42 1 19 38
M  V30 43 1 19 39
M  V30 44 1 20 40 CFG=3
M  V30 45 1 21 41
M  V30 46 1 21 42
M  V30 47 1 21 43
M  V30 48 1 22 44
M  V30 49 1 26 45
M  V30 END BOND
M  V30 END CTAB
M  END
>  <Dataset>  (109) 
ChEMBL_Kinases

>  <Ligand_Instance>  (109) 
nan

>  <PDB_ID>  (109) 
nan

>  <Standardized_SMILES>  (109) 
Cc1ccc(-c2ccc3c(ccc4sc5c(c43)NC[C@@H](C)NC5=O)n2)cn1

>  <Name>  (109) 
nan

>  <Pocket>  (109) 
nan

>  <ATP_Site>  (109) 
nan

>  <Peripheral>  (109) 
nan

>  <Num_H_Atoms_ProtBoundConf>  (109) 
nan

>  <Num_Resolved_Atoms>  (109) 
nan

>  <Num_Not_Resolved_Atoms>  (109) 
nan

$$$$
CHEMBL4793380
     RDKit          3D

  0  0  0  0  0  0  0  0  0  0999 V3000
M  V30 BEGIN CTAB
M  V30 COUNTS 56 59 0 0 0
M  V30 BEGIN ATOM
M  V30 1 C 3.249915 -4.233145 3.199474 0
M  V30 2 C 3.764958 -2.879713 3.653167 0
M  V30 3 C 4.826442 -3.045857 4.726504 0
M  V30 4 C 2.612280 -2.089243 4.213352 0
M  V30 5 C 4.367828 -2.125218 2.521307 0
M  V30 6 C 3.600291 -1.289431 1.702943 0
M  V30 7 C 4.385515 -0.706720 0.731893 0
M  V30 8 N 4.057098 0.196944 -0.316168 0
M  V30 9 C 2.766230 0.670752 -0.559353 0
M  V30 10 O 1.797783 0.317780 0.154155 0
M  V30 11 N 2.411421 1.573939 -1.607032 0
M  V30 12 C 0.987297 1.848831 -1.569909 0
M  V30 13 C 0.413637 2.888952 -0.855633 0
M  V30 14 C -0.953206 3.051711 -0.890172 0
M  V30 15 C -1.778822 2.213866 -1.613251 0
M  V30 16 N -3.186067 2.336524 -1.708298 0
M  V30 17 C -4.313254 1.515061 -1.564547 0
M  V30 18 N -5.518103 1.989736 -1.912726 0
M  V30 19 C -6.625865 1.285378 -1.793608 0
M  V30 20 N -6.612929 0.048914 -1.315773 0
M  V30 21 C -5.478216 -0.543099 -0.931967 0
M  V30 22 C -4.338238 0.210572 -1.065122 0
M  V30 23 O -3.046148 -0.158836 -0.742451 0
M  V30 24 C -2.635572 -1.381593 -0.159759 0
M  V30 25 C -3.286831 -2.522123 -0.885305 0
M  V30 26 C -4.605650 -2.902447 -0.250740 0
M  V30 27 N -5.603138 -1.882839 -0.434214 0
M  V30 28 C -1.183484 1.170063 -2.328890 0
M  V30 29 C 0.203768 0.964807 -2.323290 0
M  V30 30 N 5.600839 -1.213538 1.000710 0
M  V30 31 O 5.573980 -2.017646 2.019706 0
M  V30 32 H 3.758335 -5.053933 3.754178 0
M  V30 33 H 3.446333 -4.406370 2.112101 0
M  V30 34 H 2.158873 -4.325789 3.383937 0
M  V30 35 H 4.414906 -2.737929 5.724017 0
M  V30 36 H 5.103569 -4.131590 4.740286 0
M  V30 37 H 5.706445 -2.439733 4.485438 0
M  V30 38 H 1.674437 -2.370620 3.669225 0
M  V30 39 H 2.803643 -0.995799 4.076358 0
M  V30 40 H 2.448175 -2.314676 5.288109 0
M  V30 41 H 2.522945 -1.120356 1.815639 0
M  V30 42 H 4.817779 0.530527 -0.946901 0
M  V30 43 H 3.157371 1.919842 -2.246934 0
M  V30 44 H 1.071721 3.526756 -0.300666 0
M  V30 45 H -1.423268 3.862225 -0.336438 0
M  V30 46 H -3.328319 3.342132 -1.957241 0
M  V30 47 H -7.575520 1.702814 -2.082930 0
M  V30 48 H -1.522432 -1.511921 -0.282945 0
M  V30 49 H -2.891844 -1.415034 0.936693 0
M  V30 50 H -2.642178 -3.423127 -0.987210 0
M  V30 51 H -3.521136 -2.217114 -1.940518 0
M  V30 52 H -4.937415 -3.866147 -0.699886 0
M  V30 53 H -4.480032 -3.116825 0.839590 0
M  V30 54 H -6.576529 -2.118735 -0.177294 0
M  V30 55 H -1.690989 0.425464 -2.963624 0
M  V30 56 H 0.674872 0.157692 -2.875139 0
M  V30 END ATOM
M  V30 BEGIN BOND
M  V30 1 1 1 2
M  V30 2 1 2 3
M  V30 3 1 2 4
M  V30 4 1 2 5
M  V30 5 2 5 6
M  V30 6 1 6 7
M  V30 7 1 7 8
M  V30 8 1 8 9
M  V30 9 2 9 10
M  V30 10 1 9 11
M  V30 11 1 11 12
M  V30 12 2 12 13
M  V30 13 1 13 14
M  V30 14 2 14 15
M  V30 15 1 15 16
M  V30 16 1 16 17
M  V30 17 2 17 18
M  V30 18 1 18 19
M  V30 19 2 19 20
M  V30 20 1 20 21
M  V30 21 2 21 22
M  V30 22 1 22 23
M  V30 23 1 23 24
M  V30 24 1 24 25
M  V30 25 1 25 26
M  V30 26 1 26 27
M  V30 27 1 15 28
M  V30 28 2 28 29
M  V30 29 2 7 30
M  V30 30 1 30 31
M  V30 31 1 31 5
M  V30 32 1 29 12
M  V30 33 1 22 17
M  V30 34 1 27 21
M  V30 35 1 1 32
M  V30 36 1 1 33
M  V30 37 1 1 34
M  V30 38 1 3 35
M  V30 39 1 3 36
M  V30 40 1 3 37
M  V30 41 1 4 38
M  V30 42 1 4 39
M  V30 43 1 4 40
M  V30 44 1 6 41
M  V30 45 1 8 42
M  V30 46 1 11 43
M  V30 47 1 13 44
M  V30 48 1 14 45
M  V30 49 1 16 46
M  V30 50 1 19 47
M  V30 51 1 24 48
M  V30 52 1 24 49
M  V30 53 1 25 50
M  V30 54 1 25 51
M  V30 55 1 26 52
M  V30 56 1 26 53
M  V30 57 1 27 54
M  V30 58 1 28 55
M  V30 59 1 29 56
M  V30 END BOND
M  V30 END CTAB
M  END
>  <Dataset>  (110) 
ChEMBL_Kinases

>  <Ligand_Instance>  (110) 
nan

>  <PDB_ID>  (110) 
nan

>  <Standardized_SMILES>  (110) 
CC(C)(C)c1cc(NC(=O)Nc2ccc(Nc3ncnc4c3OCCCN4)cc2)no1

>  <Name>  (110) 
nan

>  <Pocket>  (110) 
nan

>  <ATP_Site>  (110) 
nan

>  <Peripheral>  (110) 
nan

>  <Num_H_Atoms_ProtBoundConf>  (110) 
nan

>  <Num_Resolved_Atoms>  (110) 
nan

>  <Num_Not_Resolved_Atoms>  (110) 
nan

$$$$
CHEMBL384304
     RDKit          3D

  0  0  0  0  0  0  0  0  0  0999 V3000
M  V30 BEGIN CTAB
M  V30 COUNTS 51 53 0 0 0
M  V30 BEGIN ATOM
M  V30 1 C 1.660301 3.070238 -4.932737 0
M  V30 2 O 1.763612 2.462956 -3.681834 0
M  V30 3 C 2.890425 1.763134 -3.219699 0
M  V30 4 C 3.948496 1.712274 -4.135250 0
M  V30 5 C 5.094057 1.057786 -3.791619 0
M  V30 6 C 5.249694 0.444029 -2.574105 0
M  V30 7 F 6.395317 -0.190104 -2.275448 0
M  V30 8 C 4.177488 0.529462 -1.720480 0
M  V30 9 F 4.399911 -0.049670 -0.525749 0
M  V30 10 C 2.984665 1.156076 -1.960424 0
M  V30 11 C 1.841235 1.304693 -1.105674 0
M  V30 12 O 1.173706 2.342039 -1.397208 0
M  V30 13 C 1.238057 0.600258 -0.006085 0
M  V30 14 C 1.534250 -0.671411 0.415199 0
M  V30 15 N 0.906985 -1.286565 1.432344 0
M  V30 16 C -0.072064 -0.656802 2.100622 0
M  V30 17 N -0.743163 -1.293025 3.177586 0
M  V30 18 C -0.451827 -2.618101 3.634246 0
M  V30 19 C -1.318505 -3.011330 4.810986 0
M  V30 20 C -2.541193 -3.775592 4.441953 0
M  V30 21 N -3.051774 -3.603497 3.142246 0
M  V30 22 S -4.503168 -2.810221 2.928239 0
M  V30 23 C -4.602384 -1.146890 3.449609 0
M  V30 24 O -5.615142 -3.582811 3.624144 0
M  V30 25 O -4.852164 -2.872175 1.449336 0
M  V30 26 C -2.117964 -3.639103 2.071449 0
M  V30 27 C -0.679006 -3.683591 2.566993 0
M  V30 28 N -0.399256 0.587171 1.726138 0
M  V30 29 C 0.231899 1.223367 0.693415 0
M  V30 30 N -0.265318 2.524443 0.465973 0
M  V30 31 H 1.933867 2.410913 -5.779717 0
M  V30 32 H 2.369475 3.944279 -4.925750 0
M  V30 33 H 0.653290 3.481628 -5.026992 0
M  V30 34 H 3.868654 2.186562 -5.113814 0
M  V30 35 H 5.887176 1.038718 -4.522740 0
M  V30 36 H 2.267524 -1.284697 -0.043917 0
M  V30 37 H -1.505834 -0.763658 3.678777 0
M  V30 38 H 0.615934 -2.703113 3.912976 0
M  V30 39 H -1.648311 -2.071597 5.341221 0
M  V30 40 H -0.682042 -3.545943 5.553056 0
M  V30 41 H -3.385597 -3.570355 5.159142 0
M  V30 42 H -2.303709 -4.866551 4.579280 0
M  V30 43 H -3.842632 -0.872652 4.210456 0
M  V30 44 H -4.513097 -0.400991 2.646002 0
M  V30 45 H -5.592254 -0.928177 3.946074 0
M  V30 46 H -2.293180 -4.569904 1.491752 0
M  V30 47 H -2.272614 -2.797942 1.386258 0
M  V30 48 H -0.477195 -4.646920 3.047407 0
M  V30 49 H 0.011395 -3.459235 1.735671 0
M  V30 50 H -1.092564 2.892565 -0.075300 0
M  V30 51 H -0.027753 3.513322 0.720648 0
M  V30 END ATOM
M  V30 BEGIN BOND
M  V30 1 1 1 2
M  V30 2 1 2 3
M  V30 3 2 3 4
M  V30 4 1 4 5
M  V30 5 2 5 6
M  V30 6 1 6 7
M  V30 7 1 6 8
M  V30 8 1 8 9
M  V30 9 2 8 10
M  V30 10 1 10 11
M  V30 11 2 11 12
M  V30 12 1 11 13
M  V30 13 2 13 14
M  V30 14 1 14 15
M  V30 15 2 15 16
M  V30 16 1 16 17
M  V30 17 1 17 18
M  V30 18 1 18 19
M  V30 19 1 19 20
M  V30 20 1 20 21
M  V30 21 1 21 22
M  V30 22 1 22 23
M  V30 23 2 22 24
M  V30 24 2 22 25
M  V30 25 1 21 26
M  V30 26 1 26 27
M  V30 27 1 16 28
M  V30 28 2 28 29
M  V30 29 1 29 30
M  V30 30 1 10 3
M  V30 31 1 29 13
M  V30 32 1 27 18
M  V30 33 1 1 31
M  V30 34 1 1 32
M  V30 35 1 1 33
M  V30 36 1 4 34
M  V30 37 1 5 35
M  V30 38 1 14 36
M  V30 39 1 17 37
M  V30 40 1 18 38
M  V30 41 1 19 39
M  V30 42 1 19 40
M  V30 43 1 20 41
M  V30 44 1 20 42
M  V30 45 1 23 43
M  V30 46 1 23 44
M  V30 47 1 23 45
M  V30 48 1 26 46
M  V30 49 1 26 47
M  V30 50 1 27 48
M  V30 51 1 27 49
M  V30 52 1 30 50
M  V30 53 1 30 51
M  V30 END BOND
M  V30 END CTAB
M  END
>  <Dataset>  (111) 
ChEMBL_Kinases

>  <Ligand_Instance>  (111) 
nan

>  <PDB_ID>  (111) 
nan

>  <Standardized_SMILES>  (111) 
COc1ccc(F)c(F)c1C(=O)c1cnc(NC2CCN(S(C)(=O)=O)CC2)nc1N

>  <Name>  (111) 
RG-547

>  <Pocket>  (111) 
nan

>  <ATP_Site>  (111) 
nan

>  <Peripheral>  (111) 
nan

>  <Num_H_Atoms_ProtBoundConf>  (111) 
nan

>  <Num_Resolved_Atoms>  (111) 
nan

>  <Num_Not_Resolved_Atoms>  (111) 
nan

$$$$
CHEMBL558752
     RDKit          3D

  0  0  0  0  0  0  0  0  0  0999 V3000
M  V30 BEGIN CTAB
M  V30 COUNTS 53 57 0 0 0
M  V30 BEGIN ATOM
M  V30 1 C 2.982714 -2.314109 3.571660 0
M  V30 2 N 1.789030 -1.501317 3.461892 0
M  V30 3 C 1.765678 -0.136378 3.517606 0
M  V30 4 N 2.823907 0.800976 3.679695 0
M  V30 5 C 3.212480 1.644286 2.588838 0
M  V30 6 C 4.255272 2.553373 2.667635 0
M  V30 7 C 4.569597 3.352932 1.591717 0
M  V30 8 C 3.859298 3.278697 0.397865 0
M  V30 9 C 4.169509 4.130534 -0.782049 0
M  V30 10 F 3.010885 4.303169 -1.529349 0
M  V30 11 F 5.168585 3.614248 -1.567376 0
M  V30 12 F 4.535575 5.374811 -0.253972 0
M  V30 13 C 2.802167 2.363401 0.301473 0
M  V30 14 C 2.509025 1.574224 1.395999 0
M  V30 15 N 0.496886 0.301379 3.377595 0
M  V30 16 C -0.335455 -0.744718 3.228661 0
M  V30 17 C -1.704741 -0.984396 3.048171 0
M  V30 18 C -2.218695 -2.282493 2.930388 0
M  V30 19 O -3.606403 -2.109137 2.762018 0
M  V30 20 C -4.105571 -2.034908 1.446225 0
M  V30 21 C -5.450893 -1.789034 1.150580 0
M  V30 22 C -5.883468 -1.729816 -0.158001 0
M  V30 23 N -5.015100 -1.908638 -1.177796 0
M  V30 24 C -3.697779 -2.150245 -0.932170 0
M  V30 25 C -2.837581 -2.335896 -2.092968 0
M  V30 26 N -1.497986 -2.586181 -2.120105 0
M  V30 27 C -1.109732 -2.684356 -3.420470 0
M  V30 28 C -2.214550 -2.494764 -4.220647 0
M  V30 29 C -2.316119 -2.504192 -5.722790 0
M  V30 30 F -1.695682 -1.338240 -6.132609 0
M  V30 31 F -3.631317 -2.441434 -6.118057 0
M  V30 32 F -1.638538 -3.559914 -6.243117 0
M  V30 33 N -3.241896 -2.286413 -3.373670 0
M  V30 34 C -3.234024 -2.215203 0.362035 0
M  V30 35 C -1.378224 -3.369805 2.990137 0
M  V30 36 C -0.037593 -3.116243 3.166872 0
M  V30 37 C 0.504418 -1.861884 3.286128 0
M  V30 38 H 2.673218 -3.293251 3.991577 0
M  V30 39 H 3.771747 -1.812012 4.167776 0
M  V30 40 H 3.315727 -2.509746 2.509760 0
M  V30 41 H 3.324298 0.874957 4.592200 0
M  V30 42 H 4.817302 2.611447 3.612431 0
M  V30 43 H 5.400129 4.064943 1.685534 0
M  V30 44 H 2.210867 2.269796 -0.622429 0
M  V30 45 H 1.683107 0.861911 1.311640 0
M  V30 46 H -2.209438 -0.010801 3.024190 0
M  V30 47 H -6.115051 -1.651512 2.007995 0
M  V30 48 H -6.946375 -1.534436 -0.365834 0
M  V30 49 H -0.141912 -2.872071 -3.833891 0
M  V30 50 H -4.209760 -2.113708 -3.713566 0
M  V30 51 H -2.173550 -2.410354 0.538377 0
M  V30 52 H -1.960120 -4.268063 2.881025 0
M  V30 53 H 0.542196 -4.033399 3.202776 0
M  V30 END ATOM
M  V30 BEGIN BOND
M  V30 1 1 1 2
M  V30 2 1 2 3
M  V30 3 1 3 4
M  V30 4 1 4 5
M  V30 5 2 5 6
M  V30 6 1 6 7
M  V30 7 2 7 8
M  V30 8 1 8 9
M  V30 9 1 9 10
M  V30 10 1 9 11
M  V30 11 1 9 12
M  V30 12 1 8 13
M  V30 13 2 13 14
M  V30 14 2 3 15
M  V30 15 1 15 16
M  V30 16 2 16 17
M  V30 17 1 17 18
M  V30 18 1 18 19
M  V30 19 1 19 20
M  V30 20 2 20 21
M  V30 21 1 21 22
M  V30 22 2 22 23
M  V30 23 1 23 24
M  V30 24 1 24 25
M  V30 25 2 25 26
M  V30 26 1 26 27
M  V30 27 2 27 28
M  V30 28 1 28 29
M  V30 29 1 29 30
M  V30 30 1 29 31
M  V30 31 1 29 32
M  V30 32 1 28 33
M  V30 33 2 24 34
M  V30 34 2 18 35
M  V30 35 1 35 36
M  V30 36 2 36 37
M  V30 37 1 37 2
M  V30 38 1 14 5
M  V30 39 1 37 16
M  V30 40 1 34 20
M  V30 41 1 33 25
M  V30 42 1 1 38
M  V30 43 1 1 39
M  V30 44 1 1 40
M  V30 45 1 4 41
M  V30 46 1 6 42
M  V30 47 1 7 43
M  V30 48 1 13 44
M  V30 49 1 14 45
M  V30 50 1 17 46
M  V30 51 1 21 47
M  V30 52 1 22 48
M  V30 53 1 27 49
M  V30 54 1 33 50
M  V30 55 1 34 51
M  V30 56 1 35 52
M  V30 57 1 36 53
M  V30 END BOND
M  V30 END CTAB
M  END
>  <Dataset>  (112) 
ChEMBL_Kinases

>  <Ligand_Instance>  (112) 
nan

>  <PDB_ID>  (112) 
nan

>  <Standardized_SMILES>  (112) 
Cn1c(Nc2ccc(C(F)(F)F)cc2)nc2cc(Oc3ccnc(-c4ncc(C(F)(F)F)[nH]4)c3)ccc21

>  <Name>  (112) 
RAF-265

>  <Pocket>  (112) 
nan

>  <ATP_Site>  (112) 
nan

>  <Peripheral>  (112) 
nan

>  <Num_H_Atoms_ProtBoundConf>  (112) 
nan

>  <Num_Resolved_Atoms>  (112) 
nan

>  <Num_Not_Resolved_Atoms>  (112) 
nan

$$$$
CHEMBL3544960
     RDKit          3D

  0  0  0  0  0  0  0  0  0  0999 V3000
M  V30 BEGIN CTAB
M  V30 COUNTS 38 40 0 0 0
M  V30 BEGIN ATOM
M  V30 1 N -3.175844 -2.446352 1.642038 0
M  V30 2 C -2.236369 -1.368874 1.797781 0
M  V30 3 C -0.884142 -1.801718 1.313376 0 CFG=1
M  V30 4 O -0.522498 -2.902487 2.098983 0
M  V30 5 C -0.932626 -2.257722 -0.092853 0
M  V30 6 C 0.151832 -2.911404 -0.637838 0
M  V30 7 C 0.122962 -3.341604 -1.950797 0
M  V30 8 C -0.977745 -3.145049 -2.782868 0
M  V30 9 Cl -0.954310 -3.711779 -4.436353 0
M  V30 10 C -2.044388 -2.487056 -2.202557 0
M  V30 11 C -2.023998 -2.059405 -0.907974 0
M  V30 12 C 0.133643 -0.706302 1.485387 0
M  V30 13 C -0.163806 0.418155 0.708525 0
M  V30 14 C 0.690318 1.523497 0.761946 0
M  V30 15 C 1.795428 1.440815 1.591284 0
M  V30 16 C 2.659078 2.616981 1.617041 0
M  V30 17 C 2.863234 3.466457 0.525217 0
M  V30 18 N 3.706919 4.473457 0.826606 0
M  V30 19 N 4.038836 4.266199 2.105174 0
M  V30 20 C 3.430302 3.172038 2.595174 0
M  V30 21 C 2.094217 0.332768 2.360880 0
M  V30 22 C 1.249274 -0.758631 2.306850 0
M  V30 23 H -2.806822 -3.273176 1.167377 0
M  V30 24 H -3.665513 -2.720780 2.529487 0
M  V30 25 H -2.611034 -0.465567 1.233994 0
M  V30 26 H -2.223533 -1.114935 2.881673 0
M  V30 27 H -0.876491 -3.704587 1.642780 0
M  V30 28 H 1.057555 -3.124559 -0.105016 0
M  V30 29 H 0.978131 -3.859582 -2.388930 0
M  V30 30 H -2.892128 -2.346906 -2.875756 0
M  V30 31 H -2.902882 -1.552604 -0.538766 0
M  V30 32 H -1.013443 0.503616 0.060113 0
M  V30 33 H 0.472589 2.393637 0.169162 0
M  V30 34 H 2.405828 3.352828 -0.469550 0
M  V30 35 H 4.693522 4.912151 2.599267 0
M  V30 36 H 3.509193 2.762013 3.593878 0
M  V30 37 H 2.951266 0.280558 2.997850 0
M  V30 38 H 1.378162 -1.675225 2.859597 0
M  V30 END ATOM
M  V30 BEGIN BOND
M  V30 1 1 1 2
M  V30 2 1 2 3
M  V30 3 1 3 4 CFG=1
M  V30 4 1 3 5
M  V30 5 2 5 6
M  V30 6 1 6 7
M  V30 7 2 7 8
M  V30 8 1 8 9
M  V30 9 1 8 10
M  V30 10 2 10 11
M  V30 11 1 3 12
M  V30 12 2 12 13
M  V30 13 1 13 14
M  V30 14 2 14 15
M  V30 15 1 15 16
M  V30 16 1 16 17
M  V30 17 2 17 18
M  V30 18 1 18 19
M  V30 19 1 19 20
M  V30 20 1 15 21
M  V30 21 2 21 22
M  V30 22 1 11 5
M  V30 23 1 22 12
M  V30 24 2 20 16
M  V30 25 1 1 23
M  V30 26 1 1 24
M  V30 27 1 2 25
M  V30 28 1 2 26
M  V30 29 1 4 27
M  V30 30 1 6 28
M  V30 31 1 7 29
M  V30 32 1 10 30
M  V30 33 1 11 31
M  V30 34 1 13 32
M  V30 35 1 14 33
M  V30 36 1 17 34
M  V30 37 1 19 35
M  V30 38 1 20 36
M  V30 39 1 21 37
M  V30 40 1 22 38
M  V30 END BOND
M  V30 END CTAB
M  END
>  <Dataset>  (113) 
ChEMBL_Kinases

>  <Ligand_Instance>  (113) 
nan

>  <PDB_ID>  (113) 
nan

>  <Standardized_SMILES>  (113) 
NC[C@@](O)(c1ccc(Cl)cc1)c1ccc(-c2cn[nH]c2)cc1

>  <Name>  (113) 
AT-13148

>  <Pocket>  (113) 
nan

>  <ATP_Site>  (113) 
nan

>  <Peripheral>  (113) 
nan

>  <Num_H_Atoms_ProtBoundConf>  (113) 
nan

>  <Num_Resolved_Atoms>  (113) 
nan

>  <Num_Not_Resolved_Atoms>  (113) 
nan

$$$$
CHEMBL3991935
     RDKit          3D

  0  0  0  0  0  0  0  0  0  0999 V3000
M  V30 BEGIN CTAB
M  V30 COUNTS 48 51 0 0 0
M  V30 BEGIN ATOM
M  V30 1 C -2.247888 -3.108416 0.508023 0
M  V30 2 N -0.836311 -3.168046 0.393135 0
M  V30 3 C -0.282694 -2.899402 -0.899236 0
M  V30 4 C 1.116794 -2.344941 -0.709727 0
M  V30 5 C 1.239719 -2.135786 0.788357 0 CFG=1
M  V30 6 C 1.961649 -0.919332 1.089061 0
M  V30 7 C 3.302869 -1.052051 1.485460 0
M  V30 8 O 3.875192 -2.338244 1.567888 0
M  V30 9 C 4.151856 -0.015792 1.815396 0
M  V30 10 C 3.644302 1.262324 1.751988 0
M  V30 11 O 4.435892 2.333633 2.067655 0
M  V30 12 C 2.328061 1.401410 1.362940 0
M  V30 13 C 1.756780 2.664872 1.277496 0
M  V30 14 O 2.434806 3.663118 1.554033 0
M  V30 15 C 0.445986 2.727612 0.882591 0
M  V30 16 C -0.370027 1.681402 0.560869 0
M  V30 17 C -1.748066 1.682080 0.137183 0
M  V30 18 C -2.278260 0.481671 -0.283607 0
M  V30 19 C -3.579711 0.322161 -0.699495 0
M  V30 20 C -4.449086 1.387803 -0.718020 0
M  V30 21 C -3.964721 2.607881 -0.306142 0
M  V30 22 C -2.658059 2.698881 0.096529 0
M  V30 23 Cl -2.167151 4.283138 0.618534 0
M  V30 24 O 0.242145 0.530487 0.667013 0
M  V30 25 C 1.476208 0.369607 1.031891 0
M  V30 26 C -0.131555 -2.303486 1.334381 0 CFG=2
M  V30 27 C -0.129698 -3.115439 2.640586 0
M  V30 28 O 0.535583 -4.324903 2.425103 0
M  V30 29 H -2.494163 -2.534929 1.437002 0
M  V30 30 H -2.621303 -4.148902 0.707115 0
M  V30 31 H -2.759455 -2.653274 -0.362252 0
M  V30 32 H -0.908306 -2.302667 -1.573835 0
M  V30 33 H -0.138995 -3.901438 -1.392568 0
M  V30 34 H 1.128397 -1.375081 -1.246279 0
M  V30 35 H 1.903009 -2.981762 -1.123943 0
M  V30 36 H 1.820746 -3.038675 1.141514 0
M  V30 37 H 4.000385 -2.766148 2.495888 0
M  V30 38 H 5.156400 -0.181747 2.107599 0
M  V30 39 H 4.704162 2.980650 1.322790 0
M  V30 40 H 0.064516 3.711796 0.824239 0
M  V30 41 H -1.696152 -0.415755 -0.319911 0
M  V30 42 H -3.960196 -0.634471 -1.022805 0
M  V30 43 H -5.453990 1.256760 -1.041181 0
M  V30 44 H -4.638810 3.429712 -0.321580 0
M  V30 45 H -0.679431 -1.385380 1.592825 0
M  V30 46 H 0.243167 -2.542217 3.486748 0
M  V30 47 H -1.206106 -3.388656 2.794619 0
M  V30 48 H 0.175537 -4.667268 1.548854 0
M  V30 END ATOM
M  V30 BEGIN BOND
M  V30 1 1 1 2
M  V30 2 1 2 3
M  V30 3 1 3 4
M  V30 4 1 4 5
M  V30 5 1 5 6
M  V30 6 2 6 7
M  V30 7 1 7 8
M  V30 8 1 7 9
M  V30 9 2 9 10
M  V30 10 1 10 11
M  V30 11 1 10 12
M  V30 12 1 12 13
M  V30 13 2 13 14
M  V30 14 1 13 15
M  V30 15 2 15 16
M  V30 16 1 16 17
M  V30 17 2 17 18
M  V30 18 1 18 19
M  V30 19 2 19 20
M  V30 20 1 20 21
M  V30 21 2 21 22
M  V30 22 1 22 23
M  V30 23 1 16 24
M  V30 24 1 24 25
M  V30 25 1 5 26
M  V30 26 1 26 27
M  V30 27 1 27 28
M  V30 28 1 26 2
M  V30 29 1 25 6
M  V30 30 2 25 12
M  V30 31 1 22 17
M  V30 32 1 1 29
M  V30 33 1 1 30
M  V30 34 1 1 31
M  V30 35 1 3 32
M  V30 36 1 3 33
M  V30 37 1 4 34
M  V30 38 1 4 35
M  V30 39 1 5 36 CFG=1
M  V30 40 1 8 37
M  V30 41 1 9 38
M  V30 42 1 11 39
M  V30 43 1 15 40
M  V30 44 1 18 41
M  V30 45 1 19 42
M  V30 46 1 20 43
M  V30 47 1 21 44
M  V30 48 1 26 45 CFG=1
M  V30 49 1 27 46
M  V30 50 1 27 47
M  V30 51 1 28 48
M  V30 END BOND
M  V30 END CTAB
M  END
>  <Dataset>  (114) 
ChEMBL_Kinases

>  <Ligand_Instance>  (114) 
nan

>  <PDB_ID>  (114) 
nan

>  <Standardized_SMILES>  (114) 
CN1CC[C@@H](c2c(O)cc(O)c3c(=O)cc(-c4ccccc4Cl)oc23)[C@@H]1CO

>  <Name>  (114) 
nan

>  <Pocket>  (114) 
nan

>  <ATP_Site>  (114) 
nan

>  <Peripheral>  (114) 
nan

>  <Num_H_Atoms_ProtBoundConf>  (114) 
nan

>  <Num_Resolved_Atoms>  (114) 
nan

>  <Num_Not_Resolved_Atoms>  (114) 
nan

$$$$
CHEMBL3787112
     RDKit          3D

  0  0  0  0  0  0  0  0  0  0999 V3000
M  V30 BEGIN CTAB
M  V30 COUNTS 49 53 0 0 0
M  V30 BEGIN ATOM
M  V30 1 N 4.205292 0.826445 1.051206 0
M  V30 2 C 3.513262 -0.223676 1.695632 0
M  V30 3 N 4.046613 -0.675327 2.828069 0
M  V30 4 C 3.437846 -1.695356 3.487959 0
M  V30 5 N 2.318963 -2.201190 2.960251 0
M  V30 6 C 1.771358 -1.763351 1.830825 0
M  V30 7 C 2.364307 -0.730767 1.139363 0
M  V30 8 C 1.676213 -0.413560 0.007937 0
M  V30 9 C 1.899471 0.607042 -1.005900 0
M  V30 10 C 1.953977 0.270973 -2.358943 0
M  V30 11 C 2.148150 1.259555 -3.330458 0
M  V30 12 C 2.284546 2.572955 -2.924581 0
M  V30 13 C 2.235193 2.948843 -1.575211 0
M  V30 14 O 2.380044 4.285577 -1.238934 0
M  V30 15 C 2.039636 1.930006 -0.642066 0
M  V30 16 C 0.610425 -1.311826 0.024036 0
M  V30 17 N 0.659829 -2.128279 1.118334 0
M  V30 18 C -0.194847 -3.184623 1.562575 0 CFG=1
M  V30 19 C -0.888599 -2.977081 2.889043 0
M  V30 20 C -2.193704 -2.568863 2.176991 0 CFG=1
M  V30 21 C -2.379995 -1.119497 2.349090 0
M  V30 22 N -3.491338 -0.469272 1.809049 0
M  V30 23 C -3.676042 -0.301923 0.412552 0
M  V30 24 C -4.690595 -1.439375 0.461375 0
M  V30 25 C -4.794158 -1.058649 1.919316 0
M  V30 26 C -1.560135 -3.096227 0.922869 0
M  V30 27 H 4.689182 1.585706 0.588997 0
M  V30 28 H 5.219041 0.905878 0.784258 0
M  V30 29 H 3.818914 -2.106495 4.407747 0
M  V30 30 H 1.846434 -0.768106 -2.689493 0
M  V30 31 H 2.189563 0.988828 -4.390821 0
M  V30 32 H 2.439374 3.383852 -3.653530 0
M  V30 33 H 1.652565 4.681733 -0.637338 0
M  V30 34 H 2.002983 2.302130 0.357780 0
M  V30 35 H -0.154809 -1.355989 -0.732853 0
M  V30 36 H 0.308877 -4.173244 1.464127 0
M  V30 37 H -0.980600 -3.948111 3.411876 0
M  V30 38 H -0.455809 -2.223219 3.541697 0
M  V30 39 H -3.016261 -3.239932 2.493457 0
M  V30 40 H -1.457521 -0.619208 1.921347 0
M  V30 41 H -2.287191 -0.881781 3.452796 0
M  V30 42 H -2.816405 -0.436064 -0.238453 0
M  V30 43 H -4.161030 0.689873 0.171942 0
M  V30 44 H -4.279354 -2.417903 0.220861 0
M  V30 45 H -5.580554 -1.140004 -0.160692 0
M  V30 46 H -4.974066 -1.840782 2.645858 0
M  V30 47 H -5.547247 -0.241698 2.015934 0
M  V30 48 H -1.646699 -2.458699 0.049946 0
M  V30 49 H -1.892198 -4.136771 0.649777 0
M  V30 END ATOM
M  V30 BEGIN BOND
M  V30 1 1 1 2
M  V30 2 2 2 3
M  V30 3 1 3 4
M  V30 4 2 4 5
M  V30 5 1 5 6
M  V30 6 2 6 7
M  V30 7 1 7 8
M  V30 8 1 8 9
M  V30 9 2 9 10
M  V30 10 1 10 11
M  V30 11 2 11 12
M  V30 12 1 12 13
M  V30 13 1 13 14
M  V30 14 2 13 15
M  V30 15 2 8 16
M  V30 16 1 16 17
M  V30 17 1 17 18
M  V30 18 1 18 19
M  V30 19 1 19 20
M  V30 20 1 20 21
M  V30 21 1 21 22
M  V30 22 1 22 23
M  V30 23 1 23 24
M  V30 24 1 24 25
M  V30 25 1 20 26
M  V30 26 1 7 2
M  V30 27 1 15 9
M  V30 28 1 26 18
M  V30 29 1 17 6
M  V30 30 1 25 22
M  V30 31 1 1 27
M  V30 32 1 1 28
M  V30 33 1 4 29
M  V30 34 1 10 30
M  V30 35 1 11 31
M  V30 36 1 12 32
M  V30 37 1 14 33
M  V30 38 1 15 34
M  V30 39 1 16 35
M  V30 40 1 18 36 CFG=1
M  V30 41 1 19 37
M  V30 42 1 19 38
M  V30 43 1 20 39 CFG=1
M  V30 44 1 21 40
M  V30 45 1 21 41
M  V30 46 1 23 42
M  V30 47 1 23 43
M  V30 48 1 24 44
M  V30 49 1 24 45
M  V30 50 1 25 46
M  V30 51 1 25 47
M  V30 52 1 26 48
M  V30 53 1 26 49
M  V30 END BOND
M  V30 END CTAB
M  END
>  <Dataset>  (115) 
ChEMBL_Kinases

>  <Ligand_Instance>  (115) 
nan

>  <PDB_ID>  (115) 
nan

>  <Standardized_SMILES>  (115) 
Nc1ncnc2c1c(-c1cccc(O)c1)cn2[C@H]1C[C@@H](CN2CCC2)C1

>  <Name>  (115) 
nan

>  <Pocket>  (115) 
nan

>  <ATP_Site>  (115) 
nan

>  <Peripheral>  (115) 
nan

>  <Num_H_Atoms_ProtBoundConf>  (115) 
nan

>  <Num_Resolved_Atoms>  (115) 
nan

>  <Num_Not_Resolved_Atoms>  (115) 
nan

$$$$
CHEMBL4066664
     RDKit          3D

  0  0  0  0  0  0  0  0  0  0999 V3000
M  V30 BEGIN CTAB
M  V30 COUNTS 36 39 0 0 0
M  V30 BEGIN ATOM
M  V30 1 F 0.373167 -3.112584 3.930995 0
M  V30 2 C 0.381087 -3.912487 2.829825 0
M  V30 3 F -0.390847 -3.346554 1.828222 0
M  V30 4 F -0.343588 -5.075340 3.188240 0
M  V30 5 C 1.731465 -4.351013 2.370280 0
M  V30 6 N 2.573941 -3.250421 2.041457 0
M  V30 7 C 2.364467 -2.129459 1.195443 0
M  V30 8 N 1.239215 -1.857509 0.551941 0
M  V30 9 C 0.951053 -0.815173 -0.226586 0
M  V30 10 N -0.385138 -0.906352 -0.695943 0
M  V30 11 C -1.246530 0.229648 -0.694678 0
M  V30 12 C -0.765054 1.513281 -0.412935 0
M  V30 13 C -1.610957 2.631683 -0.366956 0
M  V30 14 C -2.953686 2.434919 -0.609911 0
M  V30 15 C -3.933533 3.399659 -0.602656 0
M  V30 16 N -5.062299 2.718717 -0.886777 0
M  V30 17 N -4.793115 1.423443 -1.056560 0
M  V30 18 C -3.453494 1.182745 -0.889963 0
M  V30 19 C -2.608882 0.090823 -0.932389 0
M  V30 20 N 1.936690 0.083827 -0.383596 0
M  V30 21 C 3.127480 -0.061241 0.205373 0
M  V30 22 C 4.256619 0.716545 0.184858 0
M  V30 23 C 5.148457 0.010634 1.004944 0
M  V30 24 O 4.565863 -1.063966 1.442942 0
M  V30 25 C 3.327329 -1.167385 0.989663 0
M  V30 26 H 1.576374 -5.040313 1.512785 0
M  V30 27 H 2.176277 -4.982096 3.178559 0
M  V30 28 H 3.530865 -3.259519 2.506669 0
M  V30 29 H -0.784094 -1.796489 -1.060518 0
M  V30 30 H 0.272013 1.708823 -0.215807 0
M  V30 31 H -1.173816 3.618328 -0.140761 0
M  V30 32 H -3.836074 4.474744 -0.411835 0
M  V30 33 H -5.476288 0.641646 -1.285601 0
M  V30 34 H -3.045786 -0.875078 -1.153642 0
M  V30 35 H 4.395582 1.629240 -0.336761 0
M  V30 36 H 6.148901 0.367402 1.196662 0
M  V30 END ATOM
M  V30 BEGIN BOND
M  V30 1 1 1 2
M  V30 2 1 2 3
M  V30 3 1 2 4
M  V30 4 1 2 5
M  V30 5 1 5 6
M  V30 6 1 6 7
M  V30 7 2 7 8
M  V30 8 1 8 9
M  V30 9 1 9 10
M  V30 10 1 10 11
M  V30 11 2 11 12
M  V30 12 1 12 13
M  V30 13 2 13 14
M  V30 14 1 14 15
M  V30 15 2 15 16
M  V30 16 1 16 17
M  V30 17 1 17 18
M  V30 18 2 18 19
M  V30 19 2 9 20
M  V30 20 1 20 21
M  V30 21 1 21 22
M  V30 22 2 22 23
M  V30 23 1 23 24
M  V30 24 1 24 25
M  V30 25 1 25 7
M  V30 26 1 19 11
M  V30 27 2 25 21
M  V30 28 1 18 14
M  V30 29 1 5 26
M  V30 30 1 5 27
M  V30 31 1 6 28
M  V30 32 1 10 29
M  V30 33 1 12 30
M  V30 34 1 13 31
M  V30 35 1 15 32
M  V30 36 1 17 33
M  V30 37 1 19 34
M  V30 38 1 22 35
M  V30 39 1 23 36
M  V30 END BOND
M  V30 END CTAB
M  END
>  <Dataset>  (116) 
ChEMBL_Kinases

>  <Ligand_Instance>  (116) 
nan

>  <PDB_ID>  (116) 
nan

>  <Standardized_SMILES>  (116) 
FC(F)(F)CNc1nc(Nc2ccc3cn[nH]c3c2)nc2ccoc12

>  <Name>  (116) 
nan

>  <Pocket>  (116) 
nan

>  <ATP_Site>  (116) 
nan

>  <Peripheral>  (116) 
nan

>  <Num_H_Atoms_ProtBoundConf>  (116) 
nan

>  <Num_Resolved_Atoms>  (116) 
nan

>  <Num_Not_Resolved_Atoms>  (116) 
nan

$$$$
CHEMBL3426621
     RDKit          3D

  0  0  0  0  0  0  0  0  0  0999 V3000
M  V30 BEGIN CTAB
M  V30 COUNTS 40 42 0 0 0
M  V30 BEGIN ATOM
M  V30 1 C 0.832006 -3.001561 -1.613679 0
M  V30 2 C 0.606420 -2.758875 -0.135704 0 CFG=1
M  V30 3 C 1.602256 -3.591456 0.611235 0
M  V30 4 N 1.260487 -3.769393 1.984156 0
M  V30 5 C 1.132304 -2.589041 2.759062 0
M  V30 6 C 1.966495 -1.430291 2.334770 0
M  V30 7 C 1.933795 -1.038904 0.909740 0
M  V30 8 N 0.749711 -1.406878 0.173616 0
M  V30 9 S 0.268186 -0.220567 -0.911104 0
M  V30 10 O 1.575144 0.027978 -1.652632 0
M  V30 11 O -0.528891 -0.648226 -2.080819 0
M  V30 12 C -0.156495 1.313268 -0.215996 0
M  V30 13 C 0.542615 2.500372 -0.490546 0
M  V30 14 C 0.275175 3.746264 0.032100 0
M  V30 15 C -0.761827 3.858534 0.899421 0
M  V30 16 C -1.489910 2.762145 1.219194 0
M  V30 17 C -2.549686 2.909514 2.107401 0
M  V30 18 N -3.288389 1.822220 2.431510 0
M  V30 19 C -3.021321 0.599546 1.913581 0
M  V30 20 C -1.966792 0.477646 1.036038 0
M  V30 21 F -1.731931 -0.722063 0.538211 0
M  V30 22 C -1.198714 1.546138 0.684411 0
M  V30 23 H 1.449273 -2.259504 -2.113081 0
M  V30 24 H 1.343800 -3.996522 -1.762292 0
M  V30 25 H -0.131873 -3.086530 -2.170817 0
M  V30 26 H -0.390369 -3.213282 0.136637 0
M  V30 27 H 2.646342 -3.305849 0.513753 0
M  V30 28 H 1.535017 -4.614437 0.135887 0
M  V30 29 H 1.734715 -4.574526 2.399955 0
M  V30 30 H 0.055065 -2.328968 2.831763 0
M  V30 31 H 1.457348 -2.832503 3.794978 0
M  V30 32 H 3.038866 -1.676855 2.587055 0
M  V30 33 H 1.712807 -0.589450 3.013890 0
M  V30 34 H 2.873922 -1.286393 0.345348 0
M  V30 35 H 1.939405 0.085125 0.878569 0
M  V30 36 H 1.383815 2.410517 -1.193849 0
M  V30 37 H 0.901740 4.574697 -0.271751 0
M  V30 38 H -1.002679 4.806466 1.327733 0
M  V30 39 H -2.754949 3.881571 2.513351 0
M  V30 40 H -3.639401 -0.228376 2.204734 0
M  V30 END ATOM
M  V30 BEGIN BOND
M  V30 1 1 1 2
M  V30 2 1 2 3
M  V30 3 1 3 4
M  V30 4 1 4 5
M  V30 5 1 5 6
M  V30 6 1 6 7
M  V30 7 1 7 8
M  V30 8 1 8 9
M  V30 9 2 9 10
M  V30 10 2 9 11
M  V30 11 1 9 12
M  V30 12 2 12 13
M  V30 13 1 13 14
M  V30 14 2 14 15
M  V30 15 1 15 16
M  V30 16 2 16 17
M  V30 17 1 17 18
M  V30 18 2 18 19
M  V30 19 1 19 20
M  V30 20 1 20 21
M  V30 21 2 20 22
M  V30 22 1 8 2
M  V30 23 1 22 12
M  V30 24 1 22 16
M  V30 25 1 1 23
M  V30 26 1 1 24
M  V30 27 1 1 25
M  V30 28 1 2 26 CFG=1
M  V30 29 1 3 27
M  V30 30 1 3 28
M  V30 31 1 4 29
M  V30 32 1 5 30
M  V30 33 1 5 31
M  V30 34 1 6 32
M  V30 35 1 6 33
M  V30 36 1 7 34
M  V30 37 1 7 35
M  V30 38 1 13 36
M  V30 39 1 14 37
M  V30 40 1 15 38
M  V30 41 1 17 39
M  V30 42 1 19 40
M  V30 END BOND
M  V30 END CTAB
M  END
>  <Dataset>  (117) 
ChEMBL_Kinases

>  <Ligand_Instance>  (117) 
nan

>  <PDB_ID>  (117) 
nan

>  <Standardized_SMILES>  (117) 
C[C@H]1CNCCCN1S(=O)(=O)c1cccc2cncc(F)c12

>  <Name>  (117) 
RIPASUDIL

>  <Pocket>  (117) 
nan

>  <ATP_Site>  (117) 
nan

>  <Peripheral>  (117) 
nan

>  <Num_H_Atoms_ProtBoundConf>  (117) 
nan

>  <Num_Resolved_Atoms>  (117) 
nan

>  <Num_Not_Resolved_Atoms>  (117) 
nan

$$$$
CHEMBL300138
     RDKit          3D

  0  0  0  0  0  0  0  0  0  0999 V3000
M  V30 BEGIN CTAB
M  V30 COUNTS 68 74 0 0 0
M  V30 BEGIN ATOM
M  V30 1 C 2.441927 -0.500213 5.376385 0
M  V30 2 N 2.865846 -0.231257 4.015621 0
M  V30 3 C 2.076451 0.121964 2.989168 0
M  V30 4 C 2.770652 0.309923 1.814609 0
M  V30 5 C 2.378543 0.654803 0.458936 0
M  V30 6 C 1.456175 0.215454 -0.411567 0
M  V30 7 C 0.454323 -0.826471 -0.307849 0
M  V30 8 C -0.485756 -1.095907 0.660976 0
M  V30 9 N -1.247606 -2.197629 0.442901 0
M  V30 10 C -2.285658 -2.709801 1.273242 0
M  V30 11 C -3.639379 -2.827118 0.650434 0
M  V30 12 C -4.104540 -1.504586 0.061939 0
M  V30 13 N -3.423658 -0.406902 0.663587 0
M  V30 14 C -3.792327 0.877344 0.177485 0
M  V30 15 C -3.557378 0.989662 -1.292793 0
M  V30 16 C -4.623087 0.592211 -2.111645 0
M  V30 17 C -4.574932 0.632144 -3.505903 0
M  V30 18 C -3.415756 1.087386 -4.107361 0
M  V30 19 C -2.420969 1.457116 -3.254361 0
M  V30 20 N -2.425572 1.434532 -1.910425 0
M  V30 21 C -3.166456 -0.508909 2.048204 0
M  V30 22 C -2.456354 -1.748873 2.457452 0
M  V30 23 C -0.763415 -2.656357 -0.734421 0
M  V30 24 C -1.110460 -3.752101 -1.494059 0
M  V30 25 C -0.519508 -4.111179 -2.689865 0
M  V30 26 C 0.504114 -3.308116 -3.166204 0
M  V30 27 C 0.872293 -2.204525 -2.425769 0
M  V30 28 C 0.271555 -1.858743 -1.232389 0
M  V30 29 C 1.538900 1.008669 -1.642182 0
M  V30 30 O 0.869951 0.939440 -2.703815 0
M  V30 31 N 2.573563 1.983668 -1.502455 0
M  V30 32 C 3.099180 1.769390 -0.198199 0
M  V30 33 O 4.053749 2.519887 0.196360 0
M  V30 34 C 4.083796 0.039220 2.200357 0
M  V30 35 C 5.314103 0.010139 1.590791 0
M  V30 36 C 6.490536 -0.309669 2.231696 0
M  V30 37 C 6.474144 -0.625922 3.564970 0
M  V30 38 C 5.271398 -0.615327 4.232251 0
M  V30 39 C 4.119497 -0.288570 3.546966 0
M  V30 40 H 2.880691 -1.479908 5.653905 0
M  V30 41 H 1.335017 -0.603526 5.445805 0
M  V30 42 H 2.740680 0.335327 6.023349 0
M  V30 43 H 1.017692 0.246024 3.085543 0
M  V30 44 H -0.577598 -0.452931 1.504429 0
M  V30 45 H -1.990445 -3.705110 1.682642 0
M  V30 46 H -4.349903 -3.025425 1.508764 0
M  V30 47 H -3.802808 -3.626610 -0.053104 0
M  V30 48 H -5.193904 -1.354511 0.184461 0
M  V30 49 H -3.893520 -1.495074 -1.025412 0
M  V30 50 H -4.874596 1.031421 0.353298 0
M  V30 51 H -3.266691 1.694805 0.677616 0
M  V30 52 H -5.561206 0.225427 -1.702467 0
M  V30 53 H -5.413294 0.319311 -4.110264 0
M  V30 54 H -3.337231 1.133335 -5.181115 0
M  V30 55 H -1.512975 1.815661 -3.733253 0
M  V30 56 H -4.126136 -0.442630 2.635224 0
M  V30 57 H -2.632042 0.440821 2.345075 0
M  V30 58 H -3.057559 -2.286881 3.247319 0
M  V30 59 H -1.458891 -1.574248 2.930920 0
M  V30 60 H -1.894939 -4.418821 -1.177568 0
M  V30 61 H -0.820322 -4.979373 -3.257920 0
M  V30 62 H 0.979242 -3.560373 -4.087274 0
M  V30 63 H 1.665630 -1.632650 -2.836377 0
M  V30 64 H 2.868819 2.702045 -2.226933 0
M  V30 65 H 5.410811 0.232805 0.558041 0
M  V30 66 H 7.445501 -0.323239 1.721869 0
M  V30 67 H 7.369270 -0.883073 4.113622 0
M  V30 68 H 5.265600 -0.868243 5.291507 0
M  V30 END ATOM
M  V30 BEGIN BOND
M  V30 1 1 1 2
M  V30 2 1 2 3
M  V30 3 2 3 4
M  V30 4 1 4 5
M  V30 5 2 5 6
M  V30 6 1 6 7
M  V30 7 2 7 8
M  V30 8 1 8 9
M  V30 9 1 9 10
M  V30 10 1 10 11
M  V30 11 1 11 12
M  V30 12 1 12 13
M  V30 13 1 13 14
M  V30 14 1 14 15
M  V30 15 2 15 16
M  V30 16 1 16 17
M  V30 17 2 17 18
M  V30 18 1 18 19
M  V30 19 2 19 20
M  V30 20 1 13 21
M  V30 21 1 21 22
M  V30 22 1 9 23
M  V30 23 2 23 24
M  V30 24 1 24 25
M  V30 25 2 25 26
M  V30 26 1 26 27
M  V30 27 2 27 28
M  V30 28 1 6 29
M  V30 29 2 29 30
M  V30 30 1 29 31
M  V30 31 1 31 32
M  V30 32 2 32 33
M  V30 33 1 4 34
M  V30 34 2 34 35
M  V30 35 1 35 36
M  V30 36 2 36 37
M  V30 37 1 37 38
M  V30 38 2 38 39
M  V30 39 1 39 2
M  V30 40 1 32 5
M  V30 41 1 39 34
M  V30 42 1 28 7
M  V30 43 1 22 10
M  V30 44 1 28 23
M  V30 45 1 20 15
M  V30 46 1 1 40
M  V30 47 1 1 41
M  V30 48 1 1 42
M  V30 49 1 3 43
M  V30 50 1 8 44
M  V30 51 1 10 45
M  V30 52 1 11 46
M  V30 53 1 11 47
M  V30 54 1 12 48
M  V30 55 1 12 49
M  V30 56 1 14 50
M  V30 57 1 14 51
M  V30 58 1 16 52
M  V30 59 1 17 53
M  V30 60 1 18 54
M  V30 61 1 19 55
M  V30 62 1 21 56
M  V30 63 1 21 57
M  V30 64 1 22 58
M  V30 65 1 22 59
M  V30 66 1 24 60
M  V30 67 1 25 61
M  V30 68 1 26 62
M  V30 69 1 27 63
M  V30 70 1 31 64
M  V30 71 1 35 65
M  V30 72 1 36 66
M  V30 73 1 37 67
M  V30 74 1 38 68
M  V30 END BOND
M  V30 END CTAB
M  END
>  <Dataset>  (118) 
ChEMBL_Kinases

>  <Ligand_Instance>  (118) 
nan

>  <PDB_ID>  (118) 
nan

>  <Standardized_SMILES>  (118) 
Cn1cc(C2=C(c3cn(C4CCN(Cc5ccccn5)CC4)c4ccccc34)C(=O)NC2=O)c2ccccc21

>  <Name>  (118) 
ENZASTAURIN

>  <Pocket>  (118) 
nan

>  <ATP_Site>  (118) 
nan

>  <Peripheral>  (118) 
nan

>  <Num_H_Atoms_ProtBoundConf>  (118) 
nan

>  <Num_Resolved_Atoms>  (118) 
nan

>  <Num_Not_Resolved_Atoms>  (118) 
nan

$$$$
CHEMBL941
     RDKit          3D

  0  0  0  0  0  0  0  0  0  0999 V3000
M  V30 BEGIN CTAB
M  V30 COUNTS 68 72 0 0 0
M  V30 BEGIN ATOM
M  V30 1 C 3.897088 -3.217515 6.313551 0
M  V30 2 C 3.002112 -2.432487 5.406845 0
M  V30 3 C 2.528918 -1.227906 5.861929 0
M  V30 4 C 1.700047 -0.453020 5.079116 0
M  V30 5 C 1.365740 -0.929353 3.829633 0
M  V30 6 N 0.509953 -0.090769 3.067183 0
M  V30 7 C 0.771457 0.953964 2.155421 0
M  V30 8 O 1.954556 1.290598 1.892160 0
M  V30 9 C -0.309385 1.673652 1.492738 0
M  V30 10 C 0.060407 2.681721 0.621262 0
M  V30 11 C -0.931564 3.410479 -0.045881 0
M  V30 12 C -2.299026 3.168369 0.125953 0
M  V30 13 C -3.285365 3.967001 -0.601002 0
M  V30 14 N -3.687262 3.476538 -1.874080 0
M  V30 15 C -4.304811 2.190707 -1.898008 0
M  V30 16 C -3.320611 1.222951 -2.559976 0
M  V30 17 N -3.248381 1.500604 -3.990592 0
M  V30 18 C -2.004830 0.966307 -4.495189 0
M  V30 19 C -3.223448 2.938625 -4.150212 0
M  V30 20 C -2.706109 3.656284 -2.913619 0
M  V30 21 C -2.580532 2.148163 1.010494 0
M  V30 22 C -1.645492 1.398880 1.693652 0
M  V30 23 C 1.865248 -2.144328 3.416449 0
M  V30 24 C 2.692653 -2.945598 4.165224 0
M  V30 25 N 3.194813 -4.194262 3.716850 0
M  V30 26 C 2.980233 -4.869240 2.493827 0
M  V30 27 N 3.581839 -6.056363 2.303420 0
M  V30 28 C 3.441132 -6.774119 1.182638 0
M  V30 29 C 2.645264 -6.279850 0.175097 0
M  V30 30 C 2.012155 -5.076308 0.322468 0
M  V30 31 C 1.173409 -4.548310 -0.727874 0
M  V30 32 C 0.517745 -3.342354 -0.620512 0
M  V30 33 C -0.294966 -2.818629 -1.624275 0
M  V30 34 C -0.450816 -3.558921 -2.801241 0
M  V30 35 N 0.193468 -4.717857 -2.876206 0
M  V30 36 C 0.967884 -5.201546 -1.901750 0
M  V30 37 N 2.220601 -4.440311 1.481933 0
M  V30 38 H 4.812409 -3.441470 5.768621 0
M  V30 39 H 4.096701 -2.689912 7.245561 0
M  V30 40 H 3.417426 -4.200347 6.579657 0
M  V30 41 H 2.806411 -0.882067 6.840601 0
M  V30 42 H 1.337356 0.492814 5.454161 0
M  V30 43 H -0.455054 -0.402739 3.314270 0
M  V30 44 H 1.097925 2.954044 0.413824 0
M  V30 45 H -0.597332 4.206141 -0.730528 0
M  V30 46 H -4.141865 4.180893 0.069700 0
M  V30 47 H -2.805958 4.971851 -0.784528 0
M  V30 48 H -5.192128 2.209528 -2.596347 0
M  V30 49 H -4.674678 1.807877 -0.948492 0
M  V30 50 H -2.294870 1.388495 -2.169487 0
M  V30 51 H -3.615907 0.170490 -2.392916 0
M  V30 52 H -1.318923 0.644869 -3.691379 0
M  V30 53 H -2.202493 0.091282 -5.174417 0
M  V30 54 H -1.433179 1.686024 -5.128559 0
M  V30 55 H -2.522328 3.170571 -4.976765 0
M  V30 56 H -4.261551 3.255753 -4.384636 0
M  V30 57 H -1.706639 3.284816 -2.640207 0
M  V30 58 H -2.669882 4.730613 -3.169612 0
M  V30 59 H -3.615285 1.906932 1.193252 0
M  V30 60 H -1.937820 0.614860 2.371129 0
M  V30 61 H 1.548643 -2.421266 2.440222 0
M  V30 62 H 3.825829 -4.672853 4.429552 0
M  V30 63 H 3.971837 -7.709675 1.147027 0
M  V30 64 H 2.579091 -6.911433 -0.696693 0
M  V30 65 H 0.605209 -2.731770 0.266859 0
M  V30 66 H -0.786964 -1.882541 -1.507213 0
M  V30 67 H -1.070227 -3.186199 -3.596955 0
M  V30 68 H 1.402899 -6.142241 -2.138361 0
M  V30 END ATOM
M  V30 BEGIN BOND
M  V30 1 1 1 2
M  V30 2 2 2 3
M  V30 3 1 3 4
M  V30 4 2 4 5
M  V30 5 1 5 6
M  V30 6 1 6 7
M  V30 7 2 7 8
M  V30 8 1 7 9
M  V30 9 2 9 10
M  V30 10 1 10 11
M  V30 11 2 11 12
M  V30 12 1 12 13
M  V30 13 1 13 14
M  V30 14 1 14 15
M  V30 15 1 15 16
M  V30 16 1 16 17
M  V30 17 1 17 18
M  V30 18 1 17 19
M  V30 19 1 19 20
M  V30 20 1 12 21
M  V30 21 2 21 22
M  V30 22 1 5 23
M  V30 23 2 23 24
M  V30 24 1 24 25
M  V30 25 1 25 26
M  V30 26 2 26 27
M  V30 27 1 27 28
M  V30 28 2 28 29
M  V30 29 1 29 30
M  V30 30 1 30 31
M  V30 31 2 31 32
M  V30 32 1 32 33
M  V30 33 2 33 34
M  V30 34 1 34 35
M  V30 35 2 35 36
M  V30 36 2 30 37
M  V30 37 1 24 2
M  V30 38 1 37 26
M  V30 39 1 22 9
M  V30 40 1 36 31
M  V30 41 1 20 14
M  V30 42 1 1 38
M  V30 43 1 1 39
M  V30 44 1 1 40
M  V30 45 1 3 41
M  V30 46 1 4 42
M  V30 47 1 6 43
M  V30 48 1 10 44
M  V30 49 1 11 45
M  V30 50 1 13 46
M  V30 51 1 13 47
M  V30 52 1 15 48
M  V30 53 1 15 49
M  V30 54 1 16 50
M  V30 55 1 16 51
M  V30 56 1 18 52
M  V30 57 1 18 53
M  V30 58 1 18 54
M  V30 59 1 19 55
M  V30 60 1 19 56
M  V30 61 1 20 57
M  V30 62 1 20 58
M  V30 63 1 21 59
M  V30 64 1 22 60
M  V30 65 1 23 61
M  V30 66 1 25 62
M  V30 67 1 28 63
M  V30 68 1 29 64
M  V30 69 1 32 65
M  V30 70 1 33 66
M  V30 71 1 34 67
M  V30 72 1 36 68
M  V30 END BOND
M  V30 END CTAB
M  END
>  <Dataset>  (119) 
ChEMBL_Kinases

>  <Ligand_Instance>  (119) 
nan

>  <PDB_ID>  (119) 
nan

>  <Standardized_SMILES>  (119) 
Cc1ccc(NC(=O)c2ccc(CN3CCN(C)CC3)cc2)cc1Nc1nccc(-c2cccnc2)n1

>  <Name>  (119) 
IMATINIB

>  <Pocket>  (119) 
nan

>  <ATP_Site>  (119) 
nan

>  <Peripheral>  (119) 
nan

>  <Num_H_Atoms_ProtBoundConf>  (119) 
nan

>  <Num_Resolved_Atoms>  (119) 
nan

>  <Num_Not_Resolved_Atoms>  (119) 
nan

$$$$
CHEMBL4462530
     RDKit          3D

  0  0  0  0  0  0  0  0  0  0999 V3000
M  V30 BEGIN CTAB
M  V30 COUNTS 58 61 0 0 0
M  V30 BEGIN ATOM
M  V30 1 C 4.426581 -0.789887 7.321417 0
M  V30 2 C 3.989707 0.381227 6.520623 0
M  V30 3 O 4.140156 1.556703 6.976944 0
M  V30 4 N 3.413777 0.084350 5.254446 0
M  V30 5 C 2.882475 0.904056 4.211445 0 CFG=2
M  V30 6 C 1.422736 0.662355 3.941941 0
M  V30 7 C 0.922284 1.746133 3.018802 0
M  V30 8 C 2.014648 2.465331 2.298956 0
M  V30 9 C 3.049905 1.498778 1.798736 0 CFG=2
M  V30 10 C 2.397676 0.579364 0.801419 0
M  V30 11 O 2.323526 -0.685776 0.916238 0
M  V30 12 N 1.784524 1.039012 -0.396472 0
M  V30 13 C 1.270564 -0.114550 -1.098033 0
M  V30 14 C -0.017028 -0.623068 -0.913900 0
M  V30 15 C -0.305008 -1.720868 -1.675067 0
M  V30 16 C -1.634167 -2.304395 -1.532699 0
M  V30 17 C -1.851544 -3.302888 -0.579397 0
M  V30 18 N -3.143010 -3.696380 -0.619735 0
M  V30 19 N -3.719523 -2.964214 -1.572661 0
M  V30 20 C -2.830964 -2.115691 -2.139948 0
M  V30 21 C -3.444549 -1.299579 -3.192119 0
M  V30 22 C -4.665148 -2.131741 -3.540123 0
M  V30 23 C -5.839177 -1.322947 -3.984699 0
M  V30 24 C -4.339947 -3.162710 -4.584743 0
M  V30 25 C -5.017104 -2.781209 -2.208809 0
M  V30 26 C 0.633910 -2.260379 -2.551564 0
M  V30 27 Cl 0.240894 -3.668337 -3.516780 0
M  V30 28 C 1.891613 -1.703359 -2.682253 0
M  V30 29 N 2.184624 -0.620202 -1.935363 0
M  V30 30 C 3.626364 0.675090 2.897499 0
M  V30 31 H 4.364844 -0.564648 8.420808 0
M  V30 32 H 3.703678 -1.614148 7.167415 0
M  V30 33 H 5.435424 -1.143273 7.091132 0
M  V30 34 H 3.307944 -0.897600 4.915730 0
M  V30 35 H 2.987276 1.957216 4.556296 0
M  V30 36 H 0.804684 0.741319 4.862192 0
M  V30 37 H 1.324874 -0.325740 3.453166 0
M  V30 38 H 0.297516 2.501185 3.531409 0
M  V30 39 H 0.244402 1.293395 2.243078 0
M  V30 40 H 2.428908 3.322864 2.832464 0
M  V30 41 H 1.554997 2.904097 1.364387 0
M  V30 42 H 3.805502 2.070931 1.208777 0
M  V30 43 H 1.786592 2.081349 -0.597661 0
M  V30 44 H -0.652585 -0.126427 -0.213429 0
M  V30 45 H -1.172076 -3.757450 0.123162 0
M  V30 46 H -3.801014 -0.308608 -2.819285 0
M  V30 47 H -2.822630 -1.238982 -4.093954 0
M  V30 48 H -6.765167 -1.831563 -3.586841 0
M  V30 49 H -5.851385 -0.315382 -3.551925 0
M  V30 50 H -5.986040 -1.330774 -5.085272 0
M  V30 51 H -5.259261 -3.517547 -5.091152 0
M  V30 52 H -3.673515 -2.706548 -5.355935 0
M  V30 53 H -3.800020 -4.036825 -4.148882 0
M  V30 54 H -5.538624 -3.741484 -2.347887 0
M  V30 55 H -5.608511 -2.082868 -1.615173 0
M  V30 56 H 2.580917 -2.147423 -3.364850 0
M  V30 57 H 3.532159 -0.413613 2.684268 0
M  V30 58 H 4.706924 0.866478 3.071124 0
M  V30 END ATOM
M  V30 BEGIN BOND
M  V30 1 1 1 2
M  V30 2 2 2 3
M  V30 3 1 2 4
M  V30 4 1 4 5
M  V30 5 1 5 6
M  V30 6 1 6 7
M  V30 7 1 7 8
M  V30 8 1 8 9
M  V30 9 1 9 10
M  V30 10 2 10 11
M  V30 11 1 10 12
M  V30 12 1 12 13
M  V30 13 2 13 14
M  V30 14 1 14 15
M  V30 15 1 15 16
M  V30 16 1 16 17
M  V30 17 2 17 18
M  V30 18 1 18 19
M  V30 19 1 19 20
M  V30 20 1 20 21
M  V30 21 1 21 22
M  V30 22 1 22 23
M  V30 23 1 22 24
M  V30 24 1 22 25
M  V30 25 2 15 26
M  V30 26 1 26 27
M  V30 27 1 26 28
M  V30 28 2 28 29
M  V30 29 1 9 30
M  V30 30 1 30 5
M  V30 31 1 29 13
M  V30 32 2 20 16
M  V30 33 1 25 19
M  V30 34 1 1 31
M  V30 35 1 1 32
M  V30 36 1 1 33
M  V30 37 1 4 34
M  V30 38 1 5 35 CFG=1
M  V30 39 1 6 36
M  V30 40 1 6 37
M  V30 41 1 7 38
M  V30 42 1 7 39
M  V30 43 1 8 40
M  V30 44 1 8 41
M  V30 45 1 9 42 CFG=3
M  V30 46 1 12 43
M  V30 47 1 14 44
M  V30 48 1 17 45
M  V30 49 1 21 46
M  V30 50 1 21 47
M  V30 51 1 23 48
M  V30 52 1 23 49
M  V30 53 1 23 50
M  V30 54 1 24 51
M  V30 55 1 24 52
M  V30 56 1 24 53
M  V30 57 1 25 54
M  V30 58 1 25 55
M  V30 59 1 28 56
M  V30 60 1 30 57
M  V30 61 1 30 58
M  V30 END BOND
M  V30 END CTAB
M  END
>  <Dataset>  (120) 
ChEMBL_Kinases

>  <Ligand_Instance>  (120) 
nan

>  <PDB_ID>  (120) 
nan

>  <Standardized_SMILES>  (120) 
CC(=O)N[C@@H]1CCC[C@H](C(=O)Nc2cc(-c3cnn4c3CC(C)(C)C4)c(Cl)cn2)C1

>  <Name>  (120) 
AZD-4573

>  <Pocket>  (120) 
nan

>  <ATP_Site>  (120) 
nan

>  <Peripheral>  (120) 
nan

>  <Num_H_Atoms_ProtBoundConf>  (120) 
nan

>  <Num_Resolved_Atoms>  (120) 
nan

>  <Num_Not_Resolved_Atoms>  (120) 
nan

$$$$
CHEMBL4281823
     RDKit          3D

  0  0  0  0  0  0  0  0  0  0999 V3000
M  V30 BEGIN CTAB
M  V30 COUNTS 57 61 0 0 0
M  V30 BEGIN ATOM
M  V30 1 C 5.264815 -4.526114 -0.150051 0
M  V30 2 C 4.109047 -4.681764 -1.127935 0
M  V30 3 N 3.622483 -3.325588 -1.405035 0
M  V30 4 C 2.659856 -2.601494 -0.797281 0
M  V30 5 C 2.556960 -1.368803 -1.423964 0
M  V30 6 C 1.529140 -0.495737 -0.890432 0
M  V30 7 C 1.417650 -0.187798 0.481236 0
M  V30 8 C 0.389932 0.619524 0.962125 0
M  V30 9 C -0.534949 1.125565 0.081501 0
M  V30 10 C -0.456280 0.844168 -1.287830 0
M  V30 11 C 0.573742 0.041926 -1.724395 0
M  V30 12 C -1.605589 1.588899 -1.926276 0
M  V30 13 C -1.955761 2.639150 -0.877476 0
M  V30 14 N -1.694983 1.919193 0.379735 0
M  V30 15 C -2.505478 2.046980 1.528594 0
M  V30 16 O -3.508136 2.841147 1.461915 0
M  V30 17 C -2.668585 1.577329 2.915378 0
M  V30 18 C -3.841150 0.650027 3.057834 0
M  V30 19 C -5.156184 0.958040 2.862527 0
M  V30 20 C -6.171833 0.025637 3.043798 0
M  V30 21 C -5.894017 -1.271586 3.435837 0
M  V30 22 C -4.572176 -1.646799 3.652521 0
M  V30 23 O -4.175281 -2.945344 4.061226 0
M  V30 24 C -4.101834 -3.172999 5.477828 0
M  V30 25 F -3.226605 -2.322546 6.102482 0
M  V30 26 F -5.364692 -3.174024 6.029478 0
M  V30 27 F -3.587688 -4.460009 5.647471 0
M  V30 28 C -3.637231 -0.672817 3.451436 0
M  V30 29 C 3.480659 -1.379070 -2.414541 0
M  V30 30 C 3.758079 -0.377318 -3.308258 0
M  V30 31 N 3.057822 0.852198 -3.260050 0
M  V30 32 N 4.701519 -0.551933 -4.222284 0
M  V30 33 C 5.384558 -1.744647 -4.250679 0
M  V30 34 N 5.132184 -2.754035 -3.376946 0
M  V30 35 C 4.168469 -2.601295 -2.428090 0
M  V30 36 H 5.028169 -3.676586 0.514520 0
M  V30 37 H 5.490289 -5.459557 0.387626 0
M  V30 38 H 6.144301 -4.177084 -0.760800 0
M  V30 39 H 3.301817 -5.220961 -0.545951 0
M  V30 40 H 4.351534 -5.239643 -2.025781 0
M  V30 41 H 2.150842 -3.090564 0.043353 0
M  V30 42 H 2.167274 -0.605734 1.142760 0
M  V30 43 H 0.325812 0.848157 2.030151 0
M  V30 44 H 0.528599 -0.119329 -2.814614 0
M  V30 45 H -1.211474 2.061450 -2.828420 0
M  V30 46 H -2.426842 0.903833 -2.157160 0
M  V30 47 H -1.242517 3.474322 -0.947299 0
M  V30 48 H -2.968364 3.020246 -0.942195 0
M  V30 49 H -1.755866 0.929214 3.104398 0
M  V30 50 H -2.698785 2.382656 3.682809 0
M  V30 51 H -5.368382 1.989888 2.551048 0
M  V30 52 H -7.203061 0.336173 2.866608 0
M  V30 53 H -6.653777 -2.015882 3.585900 0
M  V30 54 H -2.604621 -0.996676 3.629997 0
M  V30 55 H 2.376676 1.077816 -4.033613 0
M  V30 56 H 2.992212 1.691144 -2.642772 0
M  V30 57 H 6.189714 -2.094695 -4.910880 0
M  V30 END ATOM
M  V30 BEGIN BOND
M  V30 1 1 1 2
M  V30 2 1 2 3
M  V30 3 1 3 4
M  V30 4 2 4 5
M  V30 5 1 5 6
M  V30 6 2 6 7
M  V30 7 1 7 8
M  V30 8 2 8 9
M  V30 9 1 9 10
M  V30 10 2 10 11
M  V30 11 1 10 12
M  V30 12 1 12 13
M  V30 13 1 13 14
M  V30 14 1 14 15
M  V30 15 2 15 16
M  V30 16 1 15 17
M  V30 17 1 17 18
M  V30 18 2 18 19
M  V30 19 1 19 20
M  V30 20 2 20 21
M  V30 21 1 21 22
M  V30 22 1 22 23
M  V30 23 1 23 24
M  V30 24 1 24 25
M  V30 25 1 24 26
M  V30 26 1 24 27
M  V30 27 2 22 28
M  V30 28 1 5 29
M  V30 29 2 29 30
M  V30 30 1 30 31
M  V30 31 1 30 32
M  V30 32 2 32 33
M  V30 33 1 33 34
M  V30 34 2 34 35
M  V30 35 1 35 3
M  V30 36 1 11 6
M  V30 37 1 28 18
M  V30 38 1 35 29
M  V30 39 1 14 9
M  V30 40 1 1 36
M  V30 41 1 1 37
M  V30 42 1 1 38
M  V30 43 1 2 39
M  V30 44 1 2 40
M  V30 45 1 4 41
M  V30 46 1 7 42
M  V30 47 1 8 43
M  V30 48 1 11 44
M  V30 49 1 12 45
M  V30 50 1 12 46
M  V30 51 1 13 47
M  V30 52 1 13 48
M  V30 53 1 17 49
M  V30 54 1 17 50
M  V30 55 1 19 51
M  V30 56 1 20 52
M  V30 57 1 21 53
M  V30 58 1 28 54
M  V30 59 1 31 55
M  V30 60 1 31 56
M  V30 61 1 33 57
M  V30 END BOND
M  V30 END CTAB
M  END
>  <Dataset>  (121) 
ChEMBL_Kinases

>  <Ligand_Instance>  (121) 
nan

>  <PDB_ID>  (121) 
nan

>  <Standardized_SMILES>  (121) 
CCn1cc(-c2ccc3c(c2)CCN3C(=O)Cc2cccc(OC(F)(F)F)c2)c2c(N)ncnc21

>  <Name>  (121) 
nan

>  <Pocket>  (121) 
nan

>  <ATP_Site>  (121) 
nan

>  <Peripheral>  (121) 
nan

>  <Num_H_Atoms_ProtBoundConf>  (121) 
nan

>  <Num_Resolved_Atoms>  (121) 
nan

>  <Num_Not_Resolved_Atoms>  (121) 
nan

$$$$
CHEMBL221959
     RDKit          3D

  0  0  0  0  0  0  0  0  0  0999 V3000
M  V30 BEGIN CTAB
M  V30 COUNTS 43 45 0 0 0
M  V30 BEGIN ATOM
M  V30 1 C 0.265891 -2.459311 2.615977 0
M  V30 2 C 1.102171 -1.943442 1.496580 0 CFG=2
M  V30 3 C 2.572844 -2.078334 1.853508 0
M  V30 4 C 3.359123 -2.076970 0.559680 0
M  V30 5 N 2.740377 -1.064128 -0.279570 0
M  V30 6 C 2.915946 -1.310769 -1.644866 0
M  V30 7 O 3.589517 -2.387277 -1.783041 0
M  V30 8 C 2.452301 -0.537381 -2.832230 0
M  V30 9 C 2.920890 -1.251460 -4.030612 0
M  V30 10 N 3.289152 -1.820854 -4.964032 0
M  V30 11 C 2.068821 -0.004760 0.429606 0
M  V30 12 C 0.753670 -0.607094 0.954729 0 CFG=2
M  V30 13 N 0.076663 0.301220 1.827715 0
M  V30 14 C 0.794739 0.598857 3.062357 0
M  V30 15 C -1.170226 0.968970 1.647801 0
M  V30 16 N -1.039080 2.314302 1.800273 0
M  V30 17 C -2.092510 3.142592 1.685915 0
M  V30 18 N -3.320025 2.648200 1.413392 0
M  V30 19 C -3.504143 1.324866 1.252987 0
M  V30 20 N -4.538277 0.506631 0.980972 0
M  V30 21 C -4.124669 -0.793880 0.929608 0
M  V30 22 C -2.747990 -0.825672 1.181437 0
M  V30 23 C -2.425902 0.476281 1.369683 0
M  V30 24 H 0.916666 -2.641801 3.520617 0
M  V30 25 H -0.532688 -1.810941 2.965632 0
M  V30 26 H -0.175327 -3.484639 2.418055 0
M  V30 27 H 0.989529 -2.716462 0.671879 0
M  V30 28 H 2.672408 -3.039821 2.387837 0
M  V30 29 H 2.974859 -1.286811 2.471152 0
M  V30 30 H 4.411061 -1.755461 0.778473 0
M  V30 31 H 3.336590 -3.091180 0.128014 0
M  V30 32 H 1.340011 -0.455925 -2.861051 0
M  V30 33 H 2.881434 0.476895 -2.884791 0
M  V30 34 H 1.829871 0.842902 -0.255054 0
M  V30 35 H 2.726648 0.323919 1.249141 0
M  V30 36 H 0.169328 -0.756839 -0.005880 0
M  V30 37 H 1.634229 1.316137 2.823569 0
M  V30 38 H 0.158301 1.179381 3.772688 0
M  V30 39 H 1.138226 -0.266723 3.618371 0
M  V30 40 H -2.043885 4.211164 1.795905 0
M  V30 41 H -5.526085 0.821029 0.828806 0
M  V30 42 H -4.741928 -1.664443 0.729918 0
M  V30 43 H -2.123564 -1.700353 1.207636 0
M  V30 END ATOM
M  V30 BEGIN BOND
M  V30 1 1 1 2
M  V30 2 1 2 3
M  V30 3 1 3 4
M  V30 4 1 4 5
M  V30 5 1 5 6
M  V30 6 2 6 7
M  V30 7 1 6 8
M  V30 8 1 8 9
M  V30 9 3 9 10
M  V30 10 1 5 11
M  V30 11 1 11 12
M  V30 12 1 12 13
M  V30 13 1 13 14
M  V30 14 1 13 15
M  V30 15 2 15 16
M  V30 16 1 16 17
M  V30 17 2 17 18
M  V30 18 1 18 19
M  V30 19 1 19 20
M  V30 20 1 20 21
M  V30 21 2 21 22
M  V30 22 1 22 23
M  V30 23 1 12 2
M  V30 24 1 23 15
M  V30 25 2 23 19
M  V30 26 1 1 24
M  V30 27 1 1 25
M  V30 28 1 1 26
M  V30 29 1 2 27 CFG=3
M  V30 30 1 3 28
M  V30 31 1 3 29
M  V30 32 1 4 30
M  V30 33 1 4 31
M  V30 34 1 8 32
M  V30 35 1 8 33
M  V30 36 1 11 34
M  V30 37 1 11 35
M  V30 38 1 12 36 CFG=3
M  V30 39 1 14 37
M  V30 40 1 14 38
M  V30 41 1 14 39
M  V30 42 1 17 40
M  V30 43 1 20 41
M  V30 44 1 21 42
M  V30 45 1 22 43
M  V30 END BOND
M  V30 END CTAB
M  END
>  <Dataset>  (122) 
ChEMBL_Kinases

>  <Ligand_Instance>  (122) 
nan

>  <PDB_ID>  (122) 
nan

>  <Standardized_SMILES>  (122) 
C[C@@H]1CCN(C(=O)CC#N)C[C@@H]1N(C)c1ncnc2[nH]ccc12

>  <Name>  (122) 
TOFACITINIB

>  <Pocket>  (122) 
nan

>  <ATP_Site>  (122) 
nan

>  <Peripheral>  (122) 
nan

>  <Num_H_Atoms_ProtBoundConf>  (122) 
nan

>  <Num_Resolved_Atoms>  (122) 
nan

>  <Num_Not_Resolved_Atoms>  (122) 
nan

$$$$
CHEMBL4848254
     RDKit          3D

  0  0  0  0  0  0  0  0  0  0999 V3000
M  V30 BEGIN CTAB
M  V30 COUNTS 30 32 0 0 0
M  V30 BEGIN ATOM
M  V30 1 C -1.256030 -1.817716 3.208541 0
M  V30 2 N -0.907015 -2.881982 2.255350 0
M  V30 3 C -1.286177 -4.268080 2.564829 0
M  V30 4 C -0.215427 -2.638357 1.038366 0
M  V30 5 N 0.090498 -3.622549 0.188319 0
M  V30 6 C 0.742595 -3.410999 -0.964401 0
M  V30 7 C 1.101913 -2.113188 -1.262399 0
M  V30 8 C 0.802939 -1.071961 -0.408993 0
M  V30 9 C 1.214208 0.276567 -0.789150 0
M  V30 10 C 1.889791 0.658317 -1.937021 0
M  V30 11 N 2.065016 1.978929 -1.885982 0
M  V30 12 N 1.548198 2.485085 -0.779982 0
M  V30 13 N 1.462017 3.723198 -0.266149 0
M  V30 14 C 0.844035 3.910140 0.936946 0
M  V30 15 C 0.285412 2.895409 1.686516 0
M  V30 16 C 0.389441 1.615741 1.127612 0
M  V30 17 C 1.019120 1.451952 -0.090638 0
M  V30 18 N 0.141534 -1.393451 0.729662 0
M  V30 19 H -1.252617 -2.225920 4.236572 0
M  V30 20 H -2.242511 -1.466674 2.890689 0
M  V30 21 H -0.453541 -1.067198 3.142857 0
M  V30 22 H -0.442451 -4.950840 2.390376 0
M  V30 23 H -2.168505 -4.480840 1.947523 0
M  V30 24 H -1.607580 -4.313563 3.621076 0
M  V30 25 H 0.985516 -4.218385 -1.646746 0
M  V30 26 H 1.633019 -1.927786 -2.197536 0
M  V30 27 H 2.206634 -0.017315 -2.719377 0
M  V30 28 H 0.841479 4.948810 1.238241 0
M  V30 29 H -0.189333 3.126223 2.635655 0
M  V30 30 H -0.039303 0.799293 1.692148 0
M  V30 END ATOM
M  V30 BEGIN BOND
M  V30 1 1 1 2
M  V30 2 1 2 3
M  V30 3 1 2 4
M  V30 4 2 4 5
M  V30 5 1 5 6
M  V30 6 2 6 7
M  V30 7 1 7 8
M  V30 8 1 8 9
M  V30 9 1 9 10
M  V30 10 2 10 11
M  V30 11 1 11 12
M  V30 12 1 12 13
M  V30 13 2 13 14
M  V30 14 1 14 15
M  V30 15 2 15 16
M  V30 16 1 16 17
M  V30 17 2 8 18
M  V30 18 1 18 4
M  V30 19 2 17 9
M  V30 20 1 17 12
M  V30 21 1 1 19
M  V30 22 1 1 20
M  V30 23 1 1 21
M  V30 24 1 3 22
M  V30 25 1 3 23
M  V30 26 1 3 24
M  V30 27 1 6 25
M  V30 28 1 7 26
M  V30 29 1 10 27
M  V30 30 1 14 28
M  V30 31 1 15 29
M  V30 32 1 16 30
M  V30 END BOND
M  V30 END CTAB
M  END
>  <Dataset>  (123) 
ChEMBL_Kinases

>  <Ligand_Instance>  (123) 
nan

>  <PDB_ID>  (123) 
nan

>  <Standardized_SMILES>  (123) 
CN(C)c1nccc(-c2cnn3ncccc23)n1

>  <Name>  (123) 
nan

>  <Pocket>  (123) 
nan

>  <ATP_Site>  (123) 
nan

>  <Peripheral>  (123) 
nan

>  <Num_H_Atoms_ProtBoundConf>  (123) 
nan

>  <Num_Resolved_Atoms>  (123) 
nan

>  <Num_Not_Resolved_Atoms>  (123) 
nan

$$$$
CHEMBL297453
     RDKit          3D

  0  0  0  0  0  0  0  0  0  0999 V3000
M  V30 BEGIN CTAB
M  V30 COUNTS 51 54 0 0 0
M  V30 BEGIN ATOM
M  V30 1 O -1.081300 -1.917376 -1.417248 0
M  V30 2 C -0.757587 -2.033990 -0.219460 0
M  V30 3 O 0.361174 -1.297587 0.129442 0
M  V30 4 C 1.099469 -0.482302 -0.735954 0 CFG=2
M  V30 5 C 2.511404 -0.949039 -0.914571 0
M  V30 6 C 3.386080 -0.264120 0.071372 0
M  V30 7 C 4.675493 -0.785395 0.154296 0
M  V30 8 O 5.116245 -1.868575 -0.627467 0
M  V30 9 C 5.636168 -0.284407 1.012184 0
M  V30 10 C 5.305517 0.780879 1.824854 0
M  V30 11 O 6.213130 1.361452 2.731393 0
M  V30 12 C 4.032004 1.307465 1.753464 0
M  V30 13 C 3.094790 0.801735 0.901325 0
M  V30 14 O 1.811699 1.291129 0.792531 0
M  V30 15 C 1.006217 0.974838 -0.345083 0 CFG=2
M  V30 16 C -0.399891 1.391491 -0.107764 0
M  V30 17 C -1.051369 1.126595 1.101329 0
M  V30 18 C -2.358477 1.521826 1.302960 0
M  V30 19 O -3.007254 1.259608 2.503272 0
M  V30 20 C -3.065074 2.195963 0.306722 0
M  V30 21 O -4.389458 2.618624 0.457739 0
M  V30 22 C -2.451625 2.470736 -0.892634 0
M  V30 23 O -3.065560 3.132452 -1.940632 0
M  V30 24 C -1.145586 2.067330 -1.073700 0
M  V30 25 C -1.479324 -2.866981 0.746312 0
M  V30 26 C -1.162440 -3.031638 2.085202 0
M  V30 27 C -1.923965 -3.846095 2.890590 0
M  V30 28 O -1.569805 -3.981115 4.224097 0
M  V30 29 C -3.023570 -4.528839 2.413635 0
M  V30 30 O -3.814380 -5.359054 3.198201 0
M  V30 31 C -3.345401 -4.364149 1.062267 0
M  V30 32 O -4.457153 -5.038560 0.527290 0
M  V30 33 C -2.591755 -3.552580 0.246798 0
M  V30 34 H 0.600486 -0.560244 -1.725377 0
M  V30 35 H 2.637542 -2.035928 -0.728976 0
M  V30 36 H 2.834878 -0.734484 -1.952995 0
M  V30 37 H 4.987525 -1.747142 -1.637517 0
M  V30 38 H 6.636941 -0.690951 1.074794 0
M  V30 39 H 6.536201 2.308654 2.489436 0
M  V30 40 H 3.682770 2.155254 2.363565 0
M  V30 41 H 1.378509 1.625550 -1.164053 0
M  V30 42 H -0.505325 0.607362 1.867053 0
M  V30 43 H -3.608516 1.883433 2.995960 0
M  V30 44 H -4.707624 3.507020 0.083349 0
M  V30 45 H -2.615480 3.850326 -2.493316 0
M  V30 46 H -0.605173 2.250598 -1.989168 0
M  V30 47 H -0.299941 -2.483808 2.418311 0
M  V30 48 H -0.824190 -4.575406 4.507163 0
M  V30 49 H -3.846549 -6.371984 3.058542 0
M  V30 50 H -5.256026 -4.498046 0.168996 0
M  V30 51 H -2.886741 -3.467232 -0.773871 0
M  V30 END ATOM
M  V30 BEGIN BOND
M  V30 1 2 1 2
M  V30 2 1 2 3
M  V30 3 1 3 4
M  V30 4 1 4 5
M  V30 5 1 5 6
M  V30 6 2 6 7
M  V30 7 1 7 8
M  V30 8 1 7 9
M  V30 9 2 9 10
M  V30 10 1 10 11
M  V30 11 1 10 12
M  V30 12 2 12 13
M  V30 13 1 13 14
M  V30 14 1 14 15
M  V30 15 1 15 16
M  V30 16 2 16 17
M  V30 17 1 17 18
M  V30 18 1 18 19
M  V30 19 2 18 20
M  V30 20 1 20 21
M  V30 21 1 20 22
M  V30 22 1 22 23
M  V30 23 2 22 24
M  V30 24 1 2 25
M  V30 25 2 25 26
M  V30 26 1 26 27
M  V30 27 1 27 28
M  V30 28 2 27 29
M  V30 29 1 29 30
M  V30 30 1 29 31
M  V30 31 1 31 32
M  V30 32 2 31 33
M  V30 33 1 15 4
M  V30 34 1 24 16
M  V30 35 1 33 25
M  V30 36 1 13 6
M  V30 37 1 4 34 CFG=3
M  V30 38 1 5 35
M  V30 39 1 5 36
M  V30 40 1 8 37
M  V30 41 1 9 38
M  V30 42 1 11 39
M  V30 43 1 12 40
M  V30 44 1 15 41 CFG=3
M  V30 45 1 17 42
M  V30 46 1 19 43
M  V30 47 1 21 44
M  V30 48 1 23 45
M  V30 49 1 24 46
M  V30 50 1 26 47
M  V30 51 1 28 48
M  V30 52 1 30 49
M  V30 53 1 32 50
M  V30 54 1 33 51
M  V30 END BOND
M  V30 END CTAB
M  END
>  <Dataset>  (124) 
ChEMBL_Kinases

>  <Ligand_Instance>  (124) 
nan

>  <PDB_ID>  (124) 
nan

>  <Standardized_SMILES>  (124) 
O=C(O[C@@H]1Cc2c(O)cc(O)cc2O[C@@H]1c1cc(O)c(O)c(O)c1)c1cc(O)c(O)c(O)c1

>  <Name>  (124) 
EPIGALOCATECHIN GALLATE

>  <Pocket>  (124) 
nan

>  <ATP_Site>  (124) 
nan

>  <Peripheral>  (124) 
nan

>  <Num_H_Atoms_ProtBoundConf>  (124) 
nan

>  <Num_Resolved_Atoms>  (124) 
nan

>  <Num_Not_Resolved_Atoms>  (124) 
nan

$$$$
CHEMBL3182444
     RDKit          3D

  0  0  0  0  0  0  0  0  0  0999 V3000
M  V30 BEGIN CTAB
M  V30 COUNTS 52 55 0 0 0
M  V30 BEGIN ATOM
M  V30 1 O 2.028800 -3.747189 -0.213969 0
M  V30 2 C 1.819885 -2.548467 0.172540 0
M  V30 3 O 2.785327 -3.135440 0.942758 0
M  V30 4 C 0.814392 -1.628006 -0.470057 0
M  V30 5 C 1.595499 -0.435903 -0.975647 0
M  V30 6 C 2.276804 0.236588 0.137167 0
M  V30 7 C 3.559113 -0.132513 0.510086 0
M  V30 8 C 4.246328 0.460893 1.542654 0
M  V30 9 C 3.616133 1.487176 2.248577 0
M  V30 10 C 2.326767 1.848503 1.863284 0
M  V30 11 N 1.781653 2.899312 2.645314 0
M  V30 12 C 1.863681 4.287244 2.417923 0
M  V30 13 N 1.488156 5.342960 2.933801 0
M  V30 14 C 1.788752 6.517486 2.377371 0
M  V30 15 C 2.595900 6.556444 1.104554 0
M  V30 16 S 2.836823 4.751771 0.853693 0
M  V30 17 N 1.726825 1.217052 0.842501 0
M  V30 18 C 0.202008 -2.423037 -1.586809 0
M  V30 19 C -1.174031 -2.015382 -1.975489 0
M  V30 20 C -2.070528 -1.725985 -0.794284 0
M  V30 21 O -2.187287 -2.832459 0.071261 0
M  V30 22 C -3.346939 -3.464581 0.436078 0
M  V30 23 C -4.656773 -3.176755 0.052176 0
M  V30 24 C -5.703076 -3.946574 0.539786 0
M  V30 25 C -5.456886 -4.994864 1.401835 0
M  V30 26 C -4.165164 -5.296118 1.794259 0
M  V30 27 Cl -3.906646 -6.640434 2.893069 0
M  V30 28 C -3.114945 -4.524854 1.305958 0
M  V30 29 F -1.884970 -4.908430 1.756485 0
M  V30 30 C -1.376446 -0.631321 -0.008166 0
M  V30 31 C -0.160024 -1.276554 0.618125 0
M  V30 32 H 2.858775 -2.827525 1.924098 0
M  V30 33 H 0.987365 0.247663 -1.597617 0
M  V30 34 H 2.363268 -0.860686 -1.681139 0
M  V30 35 H 4.110807 -0.910787 0.018496 0
M  V30 36 H 5.248670 0.173523 1.835303 0
M  V30 37 H 4.168532 1.954793 3.068696 0
M  V30 38 H 1.242009 2.676554 3.509085 0
M  V30 39 H 1.350267 7.304206 3.011430 0
M  V30 40 H 2.672449 7.764554 0.898333 0
M  V30 41 H 0.258686 -3.524217 -1.399129 0
M  V30 42 H 0.851408 -2.283518 -2.499436 0
M  V30 43 H -1.642241 -2.834128 -2.552582 0
M  V30 44 H -1.188585 -1.123981 -2.609334 0
M  V30 45 H -3.014653 -1.359005 -1.197446 0
M  V30 46 H -4.723209 -2.336532 -0.623308 0
M  V30 47 H -6.673897 -3.634199 0.176534 0
M  V30 48 H -6.335146 -5.555945 1.743531 0
M  V30 49 H -1.114679 0.208171 -0.671810 0
M  V30 50 H -2.034900 -0.211278 0.779298 0
M  V30 51 H 0.330976 -0.648679 1.357353 0
M  V30 52 H -0.500693 -2.236088 1.056498 0
M  V30 END ATOM
M  V30 BEGIN BOND
M  V30 1 2 1 2
M  V30 2 1 2 3
M  V30 3 1 2 4
M  V30 4 1 4 5
M  V30 5 1 5 6
M  V30 6 2 6 7
M  V30 7 1 7 8
M  V30 8 2 8 9
M  V30 9 1 9 10
M  V30 10 1 10 11
M  V30 11 1 11 12
M  V30 12 2 12 13
M  V30 13 1 13 14
M  V30 14 2 14 15
M  V30 15 1 15 16
M  V30 16 2 10 17
M  V30 17 1 4 18
M  V30 18 1 18 19
M  V30 19 1 19 20
M  V30 20 1 20 21
M  V30 21 1 21 22
M  V30 22 2 22 23
M  V30 23 1 23 24
M  V30 24 2 24 25
M  V30 25 1 25 26
M  V30 26 1 26 27
M  V30 27 2 26 28
M  V30 28 1 28 29
M  V30 29 1 20 30
M  V30 30 1 30 31
M  V30 31 1 31 4
M  V30 32 1 17 6
M  V30 33 1 28 22
M  V30 34 1 16 12
M  V30 35 1 3 32
M  V30 36 1 5 33
M  V30 37 1 5 34
M  V30 38 1 7 35
M  V30 39 1 8 36
M  V30 40 1 9 37
M  V30 41 1 11 38
M  V30 42 1 14 39
M  V30 43 1 15 40
M  V30 44 1 18 41
M  V30 45 1 18 42
M  V30 46 1 19 43
M  V30 47 1 19 44
M  V30 48 1 20 45
M  V30 49 1 23 46
M  V30 50 1 24 47
M  V30 51 1 25 48
M  V30 52 1 30 49
M  V30 53 1 30 50
M  V30 54 1 31 51
M  V30 55 1 31 52
M  V30 END BOND
M  V30 END CTAB
M  END
>  <Dataset>  (125) 
ChEMBL_Kinases

>  <Ligand_Instance>  (125) 
nan

>  <PDB_ID>  (125) 
nan

>  <Standardized_SMILES>  (125) 
O=C(O)C1(Cc2cccc(Nc3nccs3)n2)CCC(Oc2cccc(Cl)c2F)CC1

>  <Name>  (125) 
MK-5108

>  <Pocket>  (125) 
nan

>  <ATP_Site>  (125) 
nan

>  <Peripheral>  (125) 
nan

>  <Num_H_Atoms_ProtBoundConf>  (125) 
nan

>  <Num_Resolved_Atoms>  (125) 
nan

>  <Num_Not_Resolved_Atoms>  (125) 
nan

$$$$
CHEMBL409450
     RDKit          3D

  0  0  0  0  0  0  0  0  0  0999 V3000
M  V30 BEGIN CTAB
M  V30 COUNTS 32 35 0 0 0
M  V30 BEGIN ATOM
M  V30 1 O 3.644078 -0.709436 1.067574 0
M  V30 2 C 2.791786 -1.348808 0.407455 0
M  V30 3 N 3.138939 -2.414846 -0.465698 0
M  V30 4 C 1.894739 -2.859865 -1.008905 0
M  V30 5 C 1.807943 -3.912116 -1.926003 0
M  V30 6 C 0.564677 -4.269387 -2.393531 0
M  V30 7 Br 0.392174 -5.693927 -3.642175 0
M  V30 8 C -0.547470 -3.556694 -1.923009 0
M  V30 9 C -0.352052 -2.539211 -1.021869 0
M  V30 10 C 0.830375 -2.141689 -0.527514 0
M  V30 11 C 1.352526 -1.167653 0.378262 0
M  V30 12 C 0.660298 -0.304152 1.032646 0
M  V30 13 N 1.201857 0.652578 1.926027 0
M  V30 14 C 0.206367 1.482530 2.512486 0
M  V30 15 C 0.341408 2.516827 3.420347 0
M  V30 16 C -0.830822 3.132466 3.799555 0
M  V30 17 C -2.065674 2.757099 3.317493 0
M  V30 18 C -2.116044 1.719011 2.417263 0
M  V30 19 C -0.990424 1.026523 1.965894 0
M  V30 20 C -0.750689 -0.068816 1.053706 0
M  V30 21 N -1.712498 -0.588342 0.482645 0
M  V30 22 O -3.015959 -0.261208 0.596577 0
M  V30 23 H 4.120375 -2.757412 -0.634369 0
M  V30 24 H 2.643562 -4.467606 -2.296750 0
M  V30 25 H -1.490004 -3.916300 -2.353857 0
M  V30 26 H -1.286705 -2.141309 -0.799528 0
M  V30 27 H 2.211846 0.745170 2.135703 0
M  V30 28 H 1.297232 2.814019 3.799202 0
M  V30 29 H -0.729736 3.941320 4.508954 0
M  V30 30 H -2.944500 3.285563 3.659400 0
M  V30 31 H -3.094851 1.480772 2.086209 0
M  V30 32 H -3.474868 0.220600 -0.166815 0
M  V30 END ATOM
M  V30 BEGIN BOND
M  V30 1 2 1 2
M  V30 2 1 2 3
M  V30 3 1 3 4
M  V30 4 2 4 5
M  V30 5 1 5 6
M  V30 6 1 6 7
M  V30 7 2 6 8
M  V30 8 1 8 9
M  V30 9 2 9 10
M  V30 10 1 10 11
M  V30 11 2 11 12
M  V30 12 1 12 13
M  V30 13 1 13 14
M  V30 14 2 14 15
M  V30 15 1 15 16
M  V30 16 2 16 17
M  V30 17 1 17 18
M  V30 18 2 18 19
M  V30 19 1 19 20
M  V30 20 2 20 21
M  V30 21 1 21 22
M  V30 22 1 11 2
M  V30 23 1 20 12
M  V30 24 1 10 4
M  V30 25 1 19 14
M  V30 26 1 3 23
M  V30 27 1 5 24
M  V30 28 1 8 25
M  V30 29 1 9 26
M  V30 30 1 13 27
M  V30 31 1 15 28
M  V30 32 1 16 29
M  V30 33 1 17 30
M  V30 34 1 18 31
M  V30 35 1 22 32
M  V30 END BOND
M  V30 END CTAB
M  END
>  <Dataset>  (126) 
ChEMBL_Kinases

>  <Ligand_Instance>  (126) 
nan

>  <PDB_ID>  (126) 
nan

>  <Standardized_SMILES>  (126) 
O=C1Nc2cc(Br)ccc2/C1=C1/Nc2ccccc2/C1=N\O

>  <Name>  (126) 
6BIO

>  <Pocket>  (126) 
nan

>  <ATP_Site>  (126) 
nan

>  <Peripheral>  (126) 
nan

>  <Num_H_Atoms_ProtBoundConf>  (126) 
nan

>  <Num_Resolved_Atoms>  (126) 
nan

>  <Num_Not_Resolved_Atoms>  (126) 
nan

$$$$
CHEMBL4249925
     RDKit          3D

  0  0  0  0  0  0  0  0  0  0999 V3000
M  V30 BEGIN CTAB
M  V30 COUNTS 46 49 0 0 0
M  V30 BEGIN ATOM
M  V30 1 C 4.322816 -2.391070 2.216413 0
M  V30 2 S 4.806984 -2.312438 0.506360 0
M  V30 3 O 6.064350 -3.133809 0.386283 0
M  V30 4 O 3.781623 -2.954314 -0.371269 0
M  V30 5 N 5.189975 -0.729288 -0.010192 0
M  V30 6 C 4.298969 0.380526 -0.025401 0
M  V30 7 C 4.234235 1.229164 -1.134515 0
M  V30 8 C 3.372636 2.309848 -1.160075 0
M  V30 9 C 2.543913 2.594340 -0.095462 0
M  V30 10 C 2.586883 1.762293 1.028456 0
M  V30 11 C 1.715010 2.024067 2.202439 0
M  V30 12 C 0.420194 1.308075 2.048942 0
M  V30 13 O 0.201326 0.608033 1.028304 0
M  V30 14 N -0.588269 1.398116 3.042041 0
M  V30 15 C -1.847146 0.676078 2.848388 0
M  V30 16 N -2.385024 -0.034145 2.074783 0
M  V30 17 C -3.586186 -0.556287 2.177491 0
M  V30 18 C -4.139326 -1.425607 1.142587 0
M  V30 19 C -5.386083 -2.038186 1.129381 0
M  V30 20 N -5.593507 -2.778996 0.026688 0
M  V30 21 C -4.488168 -2.684388 -0.734140 0
M  V30 22 N -4.160202 -3.218812 -1.928761 0
M  V30 23 C -2.960649 -2.951394 -2.470617 0
M  V30 24 C -2.004999 -2.132318 -1.858415 0
M  V30 25 C -2.387983 -1.613509 -0.644741 0
M  V30 26 C -3.611872 -1.864860 -0.054859 0
M  V30 27 C -4.297626 -0.235864 3.321641 0
M  V30 28 S -3.055899 0.881801 4.209649 0
M  V30 29 C 3.464034 0.692375 1.010804 0
M  V30 30 H 4.832319 -1.639839 2.829891 0
M  V30 31 H 3.216671 -2.330083 2.275815 0
M  V30 32 H 4.590073 -3.389123 2.659074 0
M  V30 33 H 6.146327 -0.441842 -0.369272 0
M  V30 34 H 4.873008 1.027411 -1.980473 0
M  V30 35 H 3.343510 2.958321 -2.043800 0
M  V30 36 H 1.856599 3.429131 -0.076492 0
M  V30 37 H 1.589401 3.087613 2.423782 0
M  V30 38 H 2.225887 1.531593 3.079424 0
M  V30 39 H -0.360820 1.978616 3.850109 0
M  V30 40 H -6.133334 -1.936983 1.928220 0
M  V30 41 H -6.467713 -3.317481 -0.170295 0
M  V30 42 H -2.695023 -3.380768 -3.432208 0
M  V30 43 H -1.044380 -1.932707 -2.317348 0
M  V30 44 H -1.690029 -0.980846 -0.138281 0
M  V30 45 H -5.365806 -0.607911 3.571847 0
M  V30 46 H 3.461600 0.088999 1.885705 0
M  V30 END ATOM
M  V30 BEGIN BOND
M  V30 1 1 1 2
M  V30 2 2 2 3
M  V30 3 2 2 4
M  V30 4 1 2 5
M  V30 5 1 5 6
M  V30 6 2 6 7
M  V30 7 1 7 8
M  V30 8 2 8 9
M  V30 9 1 9 10
M  V30 10 1 10 11
M  V30 11 1 11 12
M  V30 12 2 12 13
M  V30 13 1 12 14
M  V30 14 1 14 15
M  V30 15 2 15 16
M  V30 16 1 16 17
M  V30 17 1 17 18
M  V30 18 2 18 19
M  V30 19 1 19 20
M  V30 20 1 20 21
M  V30 21 2 21 22
M  V30 22 1 22 23
M  V30 23 2 23 24
M  V30 24 1 24 25
M  V30 25 2 25 26
M  V30 26 2 17 27
M  V30 27 1 27 28
M  V30 28 2 10 29
M  V30 29 1 29 6
M  V30 30 1 28 15
M  V30 31 1 26 18
M  V30 32 1 26 21
M  V30 33 1 1 30
M  V30 34 1 1 31
M  V30 35 1 1 32
M  V30 36 1 5 33
M  V30 37 1 7 34
M  V30 38 1 8 35
M  V30 39 1 9 36
M  V30 40 1 11 37
M  V30 41 1 11 38
M  V30 42 1 14 39
M  V30 43 1 19 40
M  V30 44 1 20 41
M  V30 45 1 23 42
M  V30 46 1 24 43
M  V30 47 1 25 44
M  V30 48 1 27 45
M  V30 49 1 29 46
M  V30 END BOND
M  V30 END CTAB
M  END
>  <Dataset>  (127) 
ChEMBL_Kinases

>  <Ligand_Instance>  (127) 
nan

>  <PDB_ID>  (127) 
nan

>  <Standardized_SMILES>  (127) 
CS(=O)(=O)Nc1cccc(CC(=O)Nc2nc(-c3c[nH]c4ncccc34)cs2)c1

>  <Name>  (127) 
nan

>  <Pocket>  (127) 
nan

>  <ATP_Site>  (127) 
nan

>  <Peripheral>  (127) 
nan

>  <Num_H_Atoms_ProtBoundConf>  (127) 
nan

>  <Num_Resolved_Atoms>  (127) 
nan

>  <Num_Not_Resolved_Atoms>  (127) 
nan

$$$$
CHEMBL373598
     RDKit          3D

  0  0  0  0  0  0  0  0  0  0999 V3000
M  V30 BEGIN CTAB
M  V30 COUNTS 53 55 0 0 0
M  V30 BEGIN ATOM
M  V30 1 N 7.947208 -2.418564 -1.179430 0
M  V30 2 C 6.863676 -2.573011 -0.828195 0
M  V30 3 C 5.491216 -2.754888 -0.398611 0
M  V30 4 N 5.202787 -4.014636 -0.021097 0
M  V30 5 C 3.968007 -4.299045 0.393295 0
M  V30 6 C 3.128921 -3.252682 0.384232 0
M  V30 7 N 3.409555 -2.000227 0.010584 0
M  V30 8 C 4.604736 -1.664970 -0.405536 0
M  V30 9 O 5.001923 -0.440749 -0.806365 0
M  V30 10 C 4.827075 0.851703 -0.495929 0
M  V30 11 C 3.542342 1.569156 -0.554917 0
M  V30 12 C 2.421559 1.134908 0.288067 0
M  V30 13 C 1.190938 2.033976 0.196629 0
M  V30 14 C 0.085629 1.527965 1.097143 0
M  V30 15 O -0.370757 0.234070 0.782576 0
M  V30 16 C -1.373241 -0.437644 1.507406 0
M  V30 17 C -2.681195 -0.084499 1.294018 0
M  V30 18 C -3.765842 -0.644419 1.919987 0
M  V30 19 O -5.109980 -0.483178 1.890900 0
M  V30 20 C -5.884546 0.381983 1.131856 0
M  V30 21 C -5.799311 0.180382 -0.344831 0
M  V30 22 C -6.229979 -1.205820 -0.801106 0
M  V30 23 O -5.482276 -2.223063 -0.264343 0
M  V30 24 C -3.483018 -1.658795 2.851185 0
M  V30 25 Cl -4.615004 -2.577488 3.821446 0
M  V30 26 C -2.172047 -2.056665 3.107762 0
M  V30 27 C -1.148981 -1.463478 2.453861 0
M  V30 28 N 0.253348 -1.674364 2.519129 0
M  V30 29 C 1.022152 -2.324253 1.607442 0
M  V30 30 O 0.184571 -2.686636 0.838644 0
M  V30 31 N 1.795425 -2.977465 0.691202 0
M  V30 32 H 3.285633 -5.057277 0.756603 0
M  V30 33 H 5.602207 1.473368 -1.088267 0
M  V30 34 H 5.269330 0.997596 0.565587 0
M  V30 35 H 3.168266 1.532430 -1.631840 0
M  V30 36 H 3.763985 2.681150 -0.441990 0
M  V30 37 H 2.037209 0.175503 -0.116196 0
M  V30 38 H 2.732792 1.110976 1.342023 0
M  V30 39 H 0.797251 2.124382 -0.827822 0
M  V30 40 H 1.500233 3.036632 0.533048 0
M  V30 41 H -0.783024 2.215232 0.930429 0
M  V30 42 H 0.362054 1.647731 2.149069 0
M  V30 43 H -2.963026 0.690988 0.605915 0
M  V30 44 H -5.468482 1.423927 1.312631 0
M  V30 45 H -6.940010 0.448743 1.495162 0
M  V30 46 H -4.809384 0.372718 -0.735007 0
M  V30 47 H -6.565867 0.859428 -0.839235 0
M  V30 48 H -6.020796 -1.197297 -1.915450 0
M  V30 49 H -7.317123 -1.349413 -0.731066 0
M  V30 50 H -4.982715 -2.744443 -0.956234 0
M  V30 51 H -1.693605 -2.762043 3.740004 0
M  V30 52 H 0.396633 -1.223100 3.403514 0
M  V30 53 H 1.389613 -3.468820 -0.170281 0
M  V30 END ATOM
M  V30 BEGIN BOND
M  V30 1 3 1 2
M  V30 2 1 2 3
M  V30 3 2 3 4
M  V30 4 1 4 5
M  V30 5 2 5 6
M  V30 6 1 6 7
M  V30 7 2 7 8
M  V30 8 1 8 9
M  V30 9 1 9 10
M  V30 10 1 10 11
M  V30 11 1 11 12
M  V30 12 1 12 13
M  V30 13 1 13 14
M  V30 14 1 14 15
M  V30 15 1 15 16
M  V30 16 2 16 17
M  V30 17 1 17 18
M  V30 18 1 18 19
M  V30 19 1 19 20
M  V30 20 1 20 21
M  V30 21 1 21 22
M  V30 22 1 22 23
M  V30 23 2 18 24
M  V30 24 1 24 25
M  V30 25 1 24 26
M  V30 26 2 26 27
M  V30 27 1 27 28
M  V30 28 1 28 29
M  V30 29 2 29 30
M  V30 30 1 29 31
M  V30 31 1 8 3
M  V30 32 1 27 16
M  V30 33 1 31 6
M  V30 34 1 5 32
M  V30 35 1 10 33
M  V30 36 1 10 34
M  V30 37 1 11 35
M  V30 38 1 11 36
M  V30 39 1 12 37
M  V30 40 1 12 38
M  V30 41 1 13 39
M  V30 42 1 13 40
M  V30 43 1 14 41
M  V30 44 1 14 42
M  V30 45 1 17 43
M  V30 46 1 20 44
M  V30 47 1 20 45
M  V30 48 1 21 46
M  V30 49 1 21 47
M  V30 50 1 22 48
M  V30 51 1 22 49
M  V30 52 1 23 50
M  V30 53 1 26 51
M  V30 54 1 28 52
M  V30 55 1 31 53
M  V30 END BOND
M  V30 END CTAB
M  END
>  <Dataset>  (128) 
ChEMBL_Kinases

>  <Ligand_Instance>  (128) 
nan

>  <PDB_ID>  (128) 
nan

>  <Standardized_SMILES>  (128) 
N#Cc1ncc2nc1OCCCCCOc1cc(OCCCO)c(Cl)cc1NC(=O)N2

>  <Name>  (128) 
nan

>  <Pocket>  (128) 
nan

>  <ATP_Site>  (128) 
nan

>  <Peripheral>  (128) 
nan

>  <Num_H_Atoms_ProtBoundConf>  (128) 
nan

>  <Num_Resolved_Atoms>  (128) 
nan

>  <Num_Not_Resolved_Atoms>  (128) 
nan

$$$$
CHEMBL60254
     RDKit          3D

  0  0  0  0  0  0  0  0  0  0999 V3000
M  V30 BEGIN CTAB
M  V30 COUNTS 66 69 0 0 0
M  V30 BEGIN ATOM
M  V30 1 O 1.289651 3.910689 1.621275 0
M  V30 2 C 2.358811 3.632706 2.189612 0
M  V30 3 N 2.434534 2.274393 2.595353 0
M  V30 4 C 1.575231 1.133879 2.510911 0 CFG=2
M  V30 5 C 1.074066 0.587064 3.796578 0
M  V30 6 N 0.717806 -0.808179 3.592317 0
M  V30 7 C 1.768907 -1.725892 3.946626 0
M  V30 8 C 2.708135 -2.013354 2.819507 0
M  V30 9 C 3.190509 -0.760606 2.106849 0
M  V30 10 C 2.091696 0.077460 1.553205 0 CFG=1
M  V30 11 O 0.967439 -0.670006 1.155071 0
M  V30 12 C 0.469074 -0.702961 -0.119871 0
M  V30 13 O 1.128969 0.013679 -0.904442 0
M  V30 14 C -0.692560 -1.475108 -0.537353 0
M  V30 15 C -1.334214 -2.222084 0.403322 0
M  V30 16 C -2.452284 -2.982893 0.055242 0
M  V30 17 O -3.036054 -3.710286 1.086746 0
M  V30 18 C -2.925718 -2.994690 -1.234897 0
M  V30 19 C -4.124203 -3.708419 -1.579586 0
M  V30 20 O -4.789533 -3.814687 -0.482125 0
M  V30 21 C -4.830913 -4.316587 -2.641729 0
M  V30 22 C -6.217247 -4.287179 -2.533437 0
M  V30 23 O -6.914136 -3.682649 -1.465146 0
M  V30 24 C -7.095453 -4.849827 -3.464996 0
M  V30 25 C -6.496438 -5.459798 -4.538735 0
M  V30 26 C -5.148225 -5.541671 -4.729782 0
M  V30 27 C -4.364273 -4.962378 -3.760964 0
M  V30 28 C -2.917620 -5.210606 -3.907267 0
M  V30 29 O -1.862139 -5.030805 -3.256263 0
M  V30 30 O -2.343597 -5.805061 -5.007446 0
M  V30 31 C -2.204142 -2.195364 -2.134604 0
M  V30 32 O -2.579348 -2.104338 -3.481877 0
M  V30 33 C -1.098900 -1.427990 -1.849569 0
M  V30 34 C 3.489760 4.505893 2.471859 0
M  V30 35 C 4.677819 4.196552 3.104179 0
M  V30 36 C 5.639305 5.171272 3.279695 0
M  V30 37 C 5.422093 6.462420 2.825163 0
M  V30 38 O 6.489056 7.311902 3.083718 0
M  V30 39 C 4.250540 6.768865 2.201236 0
M  V30 40 C 3.279175 5.806831 2.017861 0
M  V30 41 H 3.244066 1.828297 3.089197 0
M  V30 42 H 0.670403 1.522650 1.983522 0
M  V30 43 H 1.746380 0.615470 4.648769 0
M  V30 44 H 0.130244 1.078028 4.165572 0
M  V30 45 H -0.195508 -1.070955 4.027313 0
M  V30 46 H 2.304246 -1.435226 4.856735 0
M  V30 47 H 1.250634 -2.700173 4.171129 0
M  V30 48 H 2.280275 -2.710661 2.060851 0
M  V30 49 H 3.627546 -2.486496 3.253225 0
M  V30 50 H 3.769886 -1.151577 1.231867 0
M  V30 51 H 3.886177 -0.168251 2.699404 0
M  V30 52 H 2.481982 0.615600 0.657875 0
M  V30 53 H -0.980124 -2.228587 1.419780 0
M  V30 54 H -3.543357 -3.254876 1.833834 0
M  V30 55 H -7.669012 -3.029837 -1.629873 0
M  V30 56 H -8.169831 -4.825018 -3.378403 0
M  V30 57 H -7.130454 -5.904643 -5.283004 0
M  V30 58 H -4.743033 -6.031543 -5.589053 0
M  V30 59 H -1.637707 -6.536345 -5.001350 0
M  V30 60 H -3.026899 -1.292620 -3.862708 0
M  V30 61 H -0.570292 -0.830316 -2.557422 0
M  V30 62 H 4.750435 3.158805 3.422324 0
M  V30 63 H 6.523298 4.812087 3.785616 0
M  V30 64 H 6.401848 8.102556 3.732799 0
M  V30 65 H 4.178968 7.803049 1.884498 0
M  V30 66 H 2.381034 6.156092 1.508510 0
M  V30 END ATOM
M  V30 BEGIN BOND
M  V30 1 2 1 2
M  V30 2 1 2 3
M  V30 3 1 3 4
M  V30 4 1 4 5
M  V30 5 1 5 6
M  V30 6 1 6 7
M  V30 7 1 7 8
M  V30 8 1 8 9
M  V30 9 1 9 10
M  V30 10 1 10 11
M  V30 11 1 11 12
M  V30 12 2 12 13
M  V30 13 1 12 14
M  V30 14 2 14 15
M  V30 15 1 15 16
M  V30 16 1 16 17
M  V30 17 2 16 18
M  V30 18 1 18 19
M  V30 19 2 19 20
M  V30 20 1 19 21
M  V30 21 2 21 22
M  V30 22 1 22 23
M  V30 23 1 22 24
M  V30 24 2 24 25
M  V30 25 1 25 26
M  V30 26 2 26 27
M  V30 27 1 27 28
M  V30 28 2 28 29
M  V30 29 1 28 30
M  V30 30 1 18 31
M  V30 31 1 31 32
M  V30 32 2 31 33
M  V30 33 1 2 34
M  V30 34 2 34 35
M  V30 35 1 35 36
M  V30 36 2 36 37
M  V30 37 1 37 38
M  V30 38 1 37 39
M  V30 39 2 39 40
M  V30 40 1 10 4
M  V30 41 1 33 14
M  V30 42 1 40 34
M  V30 43 1 27 21
M  V30 44 1 3 41
M  V30 45 1 4 42 CFG=3
M  V30 46 1 5 43
M  V30 47 1 5 44
M  V30 48 1 6 45
M  V30 49 1 7 46
M  V30 50 1 7 47
M  V30 51 1 8 48
M  V30 52 1 8 49
M  V30 53 1 9 50
M  V30 54 1 9 51
M  V30 55 1 10 52 CFG=3
M  V30 56 1 15 53
M  V30 57 1 17 54
M  V30 58 1 23 55
M  V30 59 1 24 56
M  V30 60 1 25 57
M  V30 61 1 26 58
M  V30 62 1 30 59
M  V30 63 1 32 60
M  V30 64 1 33 61
M  V30 65 1 35 62
M  V30 66 1 36 63
M  V30 67 1 38 64
M  V30 68 1 39 65
M  V30 69 1 40 66
M  V30 END BOND
M  V30 END CTAB
M  END
>  <Dataset>  (129) 
ChEMBL_Kinases

>  <Ligand_Instance>  (129) 
nan

>  <PDB_ID>  (129) 
nan

>  <Standardized_SMILES>  (129) 
O=C(N[C@@H]1CNCCC[C@H]1OC(=O)c1cc(O)c(C(=O)c2c(O)cccc2C(=O)O)c(O)c1)c1ccc(O)cc1

>  <Name>  (129) 
BALANOL

>  <Pocket>  (129) 
nan

>  <ATP_Site>  (129) 
nan

>  <Peripheral>  (129) 
nan

>  <Num_H_Atoms_ProtBoundConf>  (129) 
nan

>  <Num_Resolved_Atoms>  (129) 
nan

>  <Num_Not_Resolved_Atoms>  (129) 
nan

$$$$
CHEMBL4061526
     RDKit          3D

  0  0  0  0  0  0  0  0  0  0999 V3000
M  V30 BEGIN CTAB
M  V30 COUNTS 46 48 0 0 0
M  V30 BEGIN ATOM
M  V30 1 C -0.259908 -5.258959 -0.150227 0
M  V30 2 C -1.083564 -4.035647 -0.458173 0
M  V30 3 C -0.276788 -2.939025 -1.114561 0 CFG=1
M  V30 4 C -1.161316 -1.756221 -1.381040 0
M  V30 5 O -1.572843 -1.082843 -0.253706 0
M  V30 6 N 0.929788 -2.599883 -0.435567 0
M  V30 7 C 1.757623 -1.523784 -0.906650 0
M  V30 8 C 2.538946 -1.366338 -2.049513 0
M  V30 9 C 3.233936 -0.186795 -2.187503 0
M  V30 10 C 3.129738 0.776249 -1.202090 0
M  V30 11 N 3.720489 1.972965 -1.153494 0
M  V30 12 C 3.337506 2.599189 0.003097 0
M  V30 13 C 2.503036 1.746761 0.644108 0
M  V30 14 C 1.737410 1.786809 1.913100 0
M  V30 15 C 2.371218 2.303469 3.037168 0
M  V30 16 C 1.672834 2.334722 4.241804 0
M  V30 17 C 0.381033 1.854545 4.282551 0
M  V30 18 C -0.261816 1.338065 3.175033 0
M  V30 19 N -1.588872 0.821236 3.157226 0
M  V30 20 C -2.873924 1.319592 2.913029 0
M  V30 21 C -4.020026 0.383190 3.007543 0
M  V30 22 O -3.096473 2.504074 2.621616 0
M  V30 23 C 0.424725 1.305999 1.983817 0
M  V30 24 N 2.376376 0.615930 -0.106533 0
M  V30 25 N 1.720638 -0.527850 -0.003438 0
M  V30 26 H -0.941504 -6.019445 0.286546 0
M  V30 27 H 0.108944 -5.669798 -1.119400 0
M  V30 28 H 0.531231 -5.065791 0.587211 0
M  V30 29 H -1.623214 -3.662785 0.438969 0
M  V30 30 H -1.865212 -4.378870 -1.198320 0
M  V30 31 H 0.045091 -3.305683 -2.139829 0
M  V30 32 H -2.077738 -2.161111 -1.906545 0
M  V30 33 H -0.710269 -1.060524 -2.146291 0
M  V30 34 H -2.402565 -0.565448 -0.383265 0
M  V30 35 H 1.223573 -3.124783 0.406420 0
M  V30 36 H 2.461566 -2.248927 -2.671328 0
M  V30 37 H 3.812431 -0.139872 -3.095215 0
M  V30 38 H 3.575744 3.550863 0.418040 0
M  V30 39 H 3.387535 2.673318 2.981230 0
M  V30 40 H 2.127753 2.733021 5.162688 0
M  V30 41 H -0.192042 1.868339 5.217925 0
M  V30 42 H -1.396658 -0.172337 3.402077 0
M  V30 43 H -4.809756 0.703264 2.305693 0
M  V30 44 H -4.370873 0.303953 4.061814 0
M  V30 45 H -3.673456 -0.618016 2.650507 0
M  V30 46 H 0.037951 0.928712 1.051377 0
M  V30 END ATOM
M  V30 BEGIN BOND
M  V30 1 1 1 2
M  V30 2 1 2 3
M  V30 3 1 3 4
M  V30 4 1 4 5
M  V30 5 1 3 6
M  V30 6 1 6 7
M  V30 7 1 7 8
M  V30 8 2 8 9
M  V30 9 1 9 10
M  V30 10 2 10 11
M  V30 11 1 11 12
M  V30 12 2 12 13
M  V30 13 1 13 14
M  V30 14 2 14 15
M  V30 15 1 15 16
M  V30 16 2 16 17
M  V30 17 1 17 18
M  V30 18 1 18 19
M  V30 19 1 19 20
M  V30 20 1 20 21
M  V30 21 2 20 22
M  V30 22 2 18 23
M  V30 23 1 13 24
M  V30 24 1 24 25
M  V30 25 2 25 7
M  V30 26 1 24 10
M  V30 27 1 23 14
M  V30 28 1 1 26
M  V30 29 1 1 27
M  V30 30 1 1 28
M  V30 31 1 2 29
M  V30 32 1 2 30
M  V30 33 1 3 31 CFG=3
M  V30 34 1 4 32
M  V30 35 1 4 33
M  V30 36 1 5 34
M  V30 37 1 6 35
M  V30 38 1 8 36
M  V30 39 1 9 37
M  V30 40 1 12 38
M  V30 41 1 15 39
M  V30 42 1 16 40
M  V30 43 1 17 41
M  V30 44 1 19 42
M  V30 45 1 21 43
M  V30 46 1 21 44
M  V30 47 1 21 45
M  V30 48 1 23 46
M  V30 END BOND
M  V30 END CTAB
M  END
>  <Dataset>  (130) 
ChEMBL_Kinases

>  <Ligand_Instance>  (130) 
nan

>  <PDB_ID>  (130) 
nan

>  <Standardized_SMILES>  (130) 
CC[C@@H](CO)Nc1ccc2ncc(-c3cccc(NC(C)=O)c3)n2n1

>  <Name>  (130) 
nan

>  <Pocket>  (130) 
nan

>  <ATP_Site>  (130) 
nan

>  <Peripheral>  (130) 
nan

>  <Num_H_Atoms_ProtBoundConf>  (130) 
nan

>  <Num_Resolved_Atoms>  (130) 
nan

>  <Num_Not_Resolved_Atoms>  (130) 
nan

$$$$
CHEMBL379218
     RDKit          3D

  0  0  0  0  0  0  0  0  0  0999 V3000
M  V30 BEGIN CTAB
M  V30 COUNTS 49 52 0 0 0
M  V30 BEGIN ATOM
M  V30 1 C 2.362869 -5.191421 0.946668 0
M  V30 2 C 3.276686 -4.749331 -0.140264 0
M  V30 3 N 4.354864 -5.353145 -0.676146 0
M  V30 4 N 4.850743 -4.568874 -1.627055 0
M  V30 5 C 4.118601 -3.437753 -1.741561 0
M  V30 6 C 4.216984 -2.335339 -2.558183 0
M  V30 7 C 3.318698 -1.284425 -2.474889 0
M  V30 8 C 2.308369 -1.374589 -1.537528 0
M  V30 9 C 1.284005 -0.353379 -1.325344 0
M  V30 10 C 0.808878 0.443434 -2.368006 0
M  V30 11 N -0.134705 1.383959 -2.172384 0
M  V30 12 C -0.660551 1.589449 -0.938335 0
M  V30 13 C -0.220090 0.818562 0.141802 0
M  V30 14 O -0.808125 1.084686 1.392555 0
M  V30 15 C -0.336716 0.285323 2.459905 0
M  V30 16 C -0.986734 0.598716 3.768783 0 CFG=1
M  V30 17 N -0.778080 1.956766 4.177750 0
M  V30 18 C -2.425069 0.164397 3.819577 0
M  V30 19 C -3.266600 0.811541 2.784821 0
M  V30 20 C -3.900189 1.999196 3.045421 0
M  V30 21 C -4.701456 2.669201 2.141876 0
M  V30 22 C -4.859703 2.085951 0.902742 0
M  V30 23 C -4.231944 0.894122 0.622220 0
M  V30 24 C -3.424865 0.220727 1.534533 0
M  V30 25 C 0.741660 -0.135203 -0.074826 0
M  V30 26 C 2.219140 -2.497594 -0.715256 0
M  V30 27 C 3.116217 -3.545976 -0.799131 0
M  V30 28 H 2.659552 -6.187472 1.346540 0
M  V30 29 H 2.267918 -4.436550 1.749142 0
M  V30 30 H 1.331426 -5.310858 0.505167 0
M  V30 31 H 5.702347 -4.840168 -2.186599 0
M  V30 32 H 5.020534 -2.274327 -3.296604 0
M  V30 33 H 3.351173 -0.399531 -3.090064 0
M  V30 34 H 1.273829 0.223895 -3.326455 0
M  V30 35 H -1.424445 2.368888 -0.844206 0
M  V30 36 H -0.546224 -0.801013 2.257265 0
M  V30 37 H 0.766509 0.348129 2.539807 0
M  V30 38 H -0.455039 -0.040828 4.534368 0
M  V30 39 H -1.285001 2.552740 3.485146 0
M  V30 40 H 0.222990 2.147307 4.283637 0
M  V30 41 H -2.452336 -0.933971 3.647703 0
M  V30 42 H -2.882528 0.355388 4.788544 0
M  V30 43 H -3.767865 2.447867 4.023786 0
M  V30 44 H -5.199684 3.604664 2.349821 0
M  V30 45 H -5.467555 2.519400 0.106317 0
M  V30 46 H -4.331197 0.406904 -0.334631 0
M  V30 47 H -2.938918 -0.714952 1.298011 0
M  V30 48 H 1.057777 -0.714127 0.790681 0
M  V30 49 H 1.446748 -2.607840 0.028477 0
M  V30 END ATOM
M  V30 BEGIN BOND
M  V30 1 1 1 2
M  V30 2 2 2 3
M  V30 3 1 3 4
M  V30 4 1 4 5
M  V30 5 2 5 6
M  V30 6 1 6 7
M  V30 7 2 7 8
M  V30 8 1 8 9
M  V30 9 2 9 10
M  V30 10 1 10 11
M  V30 11 2 11 12
M  V30 12 1 12 13
M  V30 13 1 13 14
M  V30 14 1 14 15
M  V30 15 1 15 16
M  V30 16 1 16 17
M  V30 17 1 16 18
M  V30 18 1 18 19
M  V30 19 2 19 20
M  V30 20 1 20 21
M  V30 21 2 21 22
M  V30 22 1 22 23
M  V30 23 2 23 24
M  V30 24 2 13 25
M  V30 25 1 8 26
M  V30 26 2 26 27
M  V30 27 1 27 2
M  V30 28 1 27 5
M  V30 29 1 25 9
M  V30 30 1 24 19
M  V30 31 1 1 28
M  V30 32 1 1 29
M  V30 33 1 1 30
M  V30 34 1 4 31
M  V30 35 1 6 32
M  V30 36 1 7 33
M  V30 37 1 10 34
M  V30 38 1 12 35
M  V30 39 1 15 36
M  V30 40 1 15 37
M  V30 41 1 16 38 CFG=1
M  V30 42 1 17 39
M  V30 43 1 17 40
M  V30 44 1 18 41
M  V30 45 1 18 42
M  V30 46 1 20 43
M  V30 47 1 21 44
M  V30 48 1 22 45
M  V30 49 1 23 46
M  V30 50 1 24 47
M  V30 51 1 25 48
M  V30 52 1 26 49
M  V30 END BOND
M  V30 END CTAB
M  END
>  <Dataset>  (131) 
ChEMBL_Kinases

>  <Ligand_Instance>  (131) 
nan

>  <PDB_ID>  (131) 
nan

>  <Standardized_SMILES>  (131) 
Cc1n[nH]c2ccc(-c3cncc(OC[C@@H](N)Cc4ccccc4)c3)cc12

>  <Name>  (131) 
nan

>  <Pocket>  (131) 
nan

>  <ATP_Site>  (131) 
nan

>  <Peripheral>  (131) 
nan

>  <Num_H_Atoms_ProtBoundConf>  (131) 
nan

>  <Num_Resolved_Atoms>  (131) 
nan

>  <Num_Not_Resolved_Atoms>  (131) 
nan

$$$$
CHEMBL189963
     RDKit          3D

  0  0  0  0  0  0  0  0  0  0999 V3000
M  V30 BEGIN CTAB
M  V30 COUNTS 62 66 0 0 0
M  V30 BEGIN ATOM
M  V30 1 C 4.743035 -4.616005 4.585555 0
M  V30 2 C 3.532109 -3.844998 4.229840 0
M  V30 3 O 2.535724 -3.855396 5.022403 0
M  V30 4 C 3.110066 -2.996861 3.131045 0
M  V30 5 C 3.382792 -1.628149 3.234271 0
M  V30 6 C 4.078327 -1.042158 4.409021 0
M  V30 7 C 2.982483 -0.822916 2.193703 0
M  V30 8 C 3.228683 0.520924 2.258506 0
M  V30 9 N 2.846471 1.333102 1.256862 0
M  V30 10 C 2.207043 0.832966 0.158721 0
M  V30 11 N 1.688487 1.456191 -1.017278 0
M  V30 12 C 0.273477 1.737531 -0.998155 0
M  V30 13 C -0.382935 2.335201 -2.072126 0
M  V30 14 C -1.735148 2.600475 -2.080389 0
M  V30 15 C -2.500562 2.267186 -0.981254 0
M  V30 16 N -3.912012 2.458463 -0.840060 0
M  V30 17 C -4.718155 2.308644 0.340040 0
M  V30 18 C -5.920376 1.425061 0.186157 0
M  V30 19 N -6.578162 1.574263 -1.093702 0
M  V30 20 C -5.627565 1.584198 -2.187966 0
M  V30 21 C -4.775368 2.842882 -1.947456 0
M  V30 22 C -1.820168 1.678559 0.063648 0
M  V30 23 N -0.506609 1.419647 0.074237 0
M  V30 24 N 1.979721 -0.488645 0.123953 0
M  V30 25 C 2.337007 -1.347436 1.091928 0
M  V30 26 N 2.061978 -2.683733 0.973977 0
M  V30 27 C 1.386270 -3.240437 -0.168482 0
M  V30 28 C 0.660038 -2.257803 -1.013983 0
M  V30 29 C -0.276702 -3.131504 -1.861498 0
M  V30 30 C -0.378970 -4.444033 -1.158877 0
M  V30 31 C 0.321979 -4.247380 0.173182 0
M  V30 32 C 2.461788 -3.445357 1.999906 0
M  V30 33 O 2.278821 -4.689068 2.032455 0
M  V30 34 H 4.809339 -4.580045 5.702196 0
M  V30 35 H 4.662851 -5.706687 4.317372 0
M  V30 36 H 5.660542 -4.244180 4.107213 0
M  V30 37 H 4.177928 -1.841690 5.173500 0
M  V30 38 H 3.484960 -0.216893 4.848149 0
M  V30 39 H 5.063919 -0.620716 4.118847 0
M  V30 40 H 3.725676 1.029285 3.073173 0
M  V30 41 H 2.181625 1.731896 -1.877207 0
M  V30 42 H 0.202708 2.604287 -2.943247 0
M  V30 43 H -2.233607 3.062991 -2.913015 0
M  V30 44 H -4.159647 1.942718 1.217650 0
M  V30 45 H -5.044983 3.351317 0.631678 0
M  V30 46 H -6.661891 1.780353 0.957059 0
M  V30 47 H -5.748357 0.358544 0.397623 0
M  V30 48 H -7.210171 0.761565 -1.241973 0
M  V30 49 H -6.158048 1.602054 -3.140337 0
M  V30 50 H -4.918323 0.728908 -2.106621 0
M  V30 51 H -5.470476 3.652064 -1.655963 0
M  V30 52 H -4.242405 3.042191 -2.881321 0
M  V30 53 H -2.242179 1.352675 0.994768 0
M  V30 54 H 2.119186 -3.764246 -0.811051 0
M  V30 55 H -0.024426 -1.572796 -0.472964 0
M  V30 56 H 1.336647 -1.789521 -1.726388 0
M  V30 57 H -1.283536 -2.702327 -1.959320 0
M  V30 58 H 0.106108 -3.262408 -2.897680 0
M  V30 59 H 0.201530 -5.197410 -1.726075 0
M  V30 60 H -1.425162 -4.789109 -1.022217 0
M  V30 61 H 0.702583 -5.246873 0.449495 0
M  V30 62 H -0.377139 -3.881603 0.952177 0
M  V30 END ATOM
M  V30 BEGIN BOND
M  V30 1 1 1 2
M  V30 2 2 2 3
M  V30 3 1 2 4
M  V30 4 2 4 5
M  V30 5 1 5 6
M  V30 6 1 5 7
M  V30 7 2 7 8
M  V30 8 1 8 9
M  V30 9 2 9 10
M  V30 10 1 10 11
M  V30 11 1 11 12
M  V30 12 2 12 13
M  V30 13 1 13 14
M  V30 14 2 14 15
M  V30 15 1 15 16
M  V30 16 1 16 17
M  V30 17 1 17 18
M  V30 18 1 18 19
M  V30 19 1 19 20
M  V30 20 1 20 21
M  V30 21 1 15 22
M  V30 22 2 22 23
M  V30 23 1 10 24
M  V30 24 2 24 25
M  V30 25 1 25 26
M  V30 26 1 26 27
M  V30 27 1 27 28
M  V30 28 1 28 29
M  V30 29 1 29 30
M  V30 30 1 30 31
M  V30 31 1 26 32
M  V30 32 2 32 33
M  V30 33 1 32 4
M  V30 34 1 25 7
M  V30 35 1 31 27
M  V30 36 1 23 12
M  V30 37 1 21 16
M  V30 38 1 1 34
M  V30 39 1 1 35
M  V30 40 1 1 36
M  V30 41 1 6 37
M  V30 42 1 6 38
M  V30 43 1 6 39
M  V30 44 1 8 40
M  V30 45 1 11 41
M  V30 46 1 13 42
M  V30 47 1 14 43
M  V30 48 1 17 44
M  V30 49 1 17 45
M  V30 50 1 18 46
M  V30 51 1 18 47
M  V30 52 1 19 48
M  V30 53 1 20 49
M  V30 54 1 20 50
M  V30 55 1 21 51
M  V30 56 1 21 52
M  V30 57 1 22 53
M  V30 58 1 27 54
M  V30 59 1 28 55
M  V30 60 1 28 56
M  V30 61 1 29 57
M  V30 62 1 29 58
M  V30 63 1 30 59
M  V30 64 1 30 60
M  V30 65 1 31 61
M  V30 66 1 31 62
M  V30 END BOND
M  V30 END CTAB
M  END
>  <Dataset>  (132) 
ChEMBL_Kinases

>  <Ligand_Instance>  (132) 
nan

>  <PDB_ID>  (132) 
nan

>  <Standardized_SMILES>  (132) 
CC(=O)c1c(C)c2cnc(Nc3ccc(N4CCNCC4)cn3)nc2n(C2CCCC2)c1=O

>  <Name>  (132) 
PALBOCICLIB

>  <Pocket>  (132) 
nan

>  <ATP_Site>  (132) 
nan

>  <Peripheral>  (132) 
nan

>  <Num_H_Atoms_ProtBoundConf>  (132) 
nan

>  <Num_Resolved_Atoms>  (132) 
nan

>  <Num_Not_Resolved_Atoms>  (132) 
nan

$$$$
CHEMBL361708
     RDKit          3D

  0  0  0  0  0  0  0  0  0  0999 V3000
M  V30 BEGIN CTAB
M  V30 COUNTS 29 31 0 0 0
M  V30 BEGIN ATOM
M  V30 1 N -1.166319 -1.405423 5.102547 0
M  V30 2 C -0.736258 -1.650346 3.768220 0
M  V30 3 N -0.901166 -2.859337 3.301914 0
M  V30 4 C -0.435607 -2.971621 1.972592 0
M  V30 5 O -0.455924 -3.987326 1.263051 0
M  V30 6 C 0.068727 -1.655856 1.612993 0
M  V30 7 C 0.543925 -1.274474 0.446503 0
M  V30 8 C 0.636238 -2.140960 -0.728385 0
M  V30 9 C -0.396014 -1.727405 -1.797514 0
M  V30 10 N -0.199937 -0.421920 -2.322128 0
M  V30 11 C 0.149126 0.878106 -1.846748 0
M  V30 12 O -0.093235 1.939490 -2.459090 0
M  V30 13 C 0.845061 1.090613 -0.557136 0
M  V30 14 N 1.444053 2.197232 -0.110385 0
M  V30 15 C 1.993426 1.995137 1.122481 0
M  V30 16 Br 2.943821 3.302011 2.136036 0
M  V30 17 C 1.754140 0.672782 1.538449 0
M  V30 18 C 1.029321 0.132796 0.461900 0
M  V30 19 N -0.137121 -0.858709 2.756881 0
M  V30 20 H -0.951871 -2.058493 5.890448 0
M  V30 21 H -1.723385 -0.517841 5.269806 0
M  V30 22 H 0.384232 -3.184592 -0.532016 0
M  V30 23 H 1.654130 -2.178922 -1.202885 0
M  V30 24 H -0.324717 -2.496286 -2.574516 0
M  V30 25 H -1.383618 -1.871699 -1.302757 0
M  V30 26 H -0.355169 -0.374587 -3.370887 0
M  V30 27 H 1.469034 3.083465 -0.659911 0
M  V30 28 H 2.067533 0.170785 2.441432 0
M  V30 29 H 0.000469 0.120983 3.027800 0
M  V30 END ATOM
M  V30 BEGIN BOND
M  V30 1 1 1 2
M  V30 2 2 2 3
M  V30 3 1 3 4
M  V30 4 2 4 5
M  V30 5 1 4 6
M  V30 6 2 6 7
M  V30 7 1 7 8
M  V30 8 1 8 9
M  V30 9 1 9 10
M  V30 10 1 10 11
M  V30 11 2 11 12
M  V30 12 1 11 13
M  V30 13 1 13 14
M  V30 14 1 14 15
M  V30 15 1 15 16
M  V30 16 2 15 17
M  V30 17 1 17 18
M  V30 18 1 6 19
M  V30 19 1 19 2
M  V30 20 1 18 7
M  V30 21 2 18 13
M  V30 22 1 1 20
M  V30 23 1 1 21
M  V30 24 1 8 22
M  V30 25 1 8 23
M  V30 26 1 9 24
M  V30 27 1 9 25
M  V30 28 1 10 26
M  V30 29 1 14 27
M  V30 30 1 17 28
M  V30 31 1 19 29
M  V30 END BOND
M  V30 END CTAB
M  END
>  <Dataset>  (133) 
ChEMBL_Kinases

>  <Ligand_Instance>  (133) 
nan

>  <PDB_ID>  (133) 
nan

>  <Standardized_SMILES>  (133) 
NC1=NC(=O)/C(=C2\CCNC(=O)c3[nH]c(Br)cc32)N1

>  <Name>  (133) 
HYMENIALDISINE

>  <Pocket>  (133) 
nan

>  <ATP_Site>  (133) 
nan

>  <Peripheral>  (133) 
nan

>  <Num_H_Atoms_ProtBoundConf>  (133) 
nan

>  <Num_Resolved_Atoms>  (133) 
nan

>  <Num_Not_Resolved_Atoms>  (133) 
nan

$$$$
CHEMBL4284209
     RDKit          3D

  0  0  0  0  0  0  0  0  0  0999 V3000
M  V30 BEGIN CTAB
M  V30 COUNTS 66 70 0 0 0
M  V30 BEGIN ATOM
M  V30 1 C 1.629499 -1.684115 2.705399 0
M  V30 2 C 2.587985 -1.528201 1.589252 0
M  V30 3 C 3.022291 -2.838755 0.977416 0
M  V30 4 C 2.187934 -0.572157 0.528935 0
M  V30 5 C 2.619282 0.756013 0.408705 0
M  V30 6 N 2.035264 1.228544 -0.706317 0
M  V30 7 N 1.285999 0.251336 -1.244943 0
M  V30 8 C 0.573939 0.400513 -2.372544 0
M  V30 9 N 0.502509 1.595926 -3.138937 0
M  V30 10 C -0.638831 2.447326 -2.863657 0
M  V30 11 C -0.728612 2.865303 -1.442127 0
M  V30 12 C -0.186908 3.975110 -0.826039 0
M  V30 13 C -0.392010 4.182518 0.522113 0
M  V30 14 C -1.126747 3.320509 1.307379 0
M  V30 15 C -1.354095 3.523487 2.730661 0
M  V30 16 C -0.865339 4.590223 3.449096 0
M  V30 17 C -1.065113 4.806369 4.797675 0
M  V30 18 C -1.826421 3.857519 5.473265 0
M  V30 19 C -2.324391 2.781637 4.769048 0
M  V30 20 N -2.090953 2.632440 3.453522 0
M  V30 21 C -1.679865 2.200877 0.713452 0
M  V30 22 C -1.472555 1.996571 -0.635137 0
M  V30 23 N -0.115219 -0.673946 -2.774196 0
M  V30 24 C -0.099736 -1.852928 -2.082873 0
M  V30 25 N -0.858911 -2.962803 -2.609897 0
M  V30 26 C -1.043296 -4.263761 -2.010481 0 CFG=1
M  V30 27 C 0.215326 -4.915961 -1.534567 0
M  V30 28 C 0.124460 -5.461049 -0.150627 0
M  V30 29 C -0.605050 -4.626726 0.842372 0 CFG=2
M  V30 30 N -0.903998 -5.523262 1.974825 0
M  V30 31 C -1.868197 -3.994307 0.363987 0
M  V30 32 C -2.185523 -4.344844 -1.046185 0
M  V30 33 N 0.634977 -1.938984 -0.959088 0
M  V30 34 C 1.343073 -0.881467 -0.522637 0
M  V30 35 H 2.087672 -1.294460 3.641310 0
M  V30 36 H 1.383719 -2.744027 2.934261 0
M  V30 37 H 0.698984 -1.050560 2.591342 0
M  V30 38 H 3.551831 -1.090310 2.008879 0
M  V30 39 H 4.014729 -3.194074 1.394213 0
M  V30 40 H 2.334425 -3.680488 1.154361 0
M  V30 41 H 3.241766 -2.688572 -0.119878 0
M  V30 42 H 3.274108 1.294332 1.057744 0
M  V30 43 H 1.273049 1.785493 -3.850067 0
M  V30 44 H -0.537254 3.376767 -3.468780 0
M  V30 45 H -1.599716 1.985519 -3.170290 0
M  V30 46 H 0.370527 4.604281 -1.482217 0
M  V30 47 H 0.049112 5.060452 0.959639 0
M  V30 48 H -0.278484 5.331058 2.950137 0
M  V30 49 H -0.673674 5.645441 5.334285 0
M  V30 50 H -2.028143 3.962684 6.548430 0
M  V30 51 H -2.913809 2.037966 5.269806 0
M  V30 52 H -2.257535 1.517044 1.318711 0
M  V30 53 H -1.936956 1.096715 -1.027228 0
M  V30 54 H -1.326162 -2.768539 -3.549157 0
M  V30 55 H -1.381939 -4.928719 -2.885033 0
M  V30 56 H 1.049468 -4.168081 -1.654333 0
M  V30 57 H 0.560050 -5.772867 -2.181717 0
M  V30 58 H -0.415867 -6.434197 -0.222091 0
M  V30 59 H 1.160520 -5.617363 0.222236 0
M  V30 60 H 0.000377 -3.806988 1.305043 0
M  V30 61 H -1.287875 -6.425840 1.653521 0
M  V30 62 H -0.039298 -5.580283 2.549816 0
M  V30 63 H -1.861596 -2.875161 0.440406 0
M  V30 64 H -2.735069 -4.358215 0.981985 0
M  V30 65 H -3.016795 -3.724650 -1.443914 0
M  V30 66 H -2.534152 -5.417617 -1.031035 0
M  V30 END ATOM
M  V30 BEGIN BOND
M  V30 1 1 1 2
M  V30 2 1 2 3
M  V30 3 1 2 4
M  V30 4 1 4 5
M  V30 5 2 5 6
M  V30 6 1 6 7
M  V30 7 1 7 8
M  V30 8 1 8 9
M  V30 9 1 9 10
M  V30 10 1 10 11
M  V30 11 2 11 12
M  V30 12 1 12 13
M  V30 13 2 13 14
M  V30 14 1 14 15
M  V30 15 2 15 16
M  V30 16 1 16 17
M  V30 17 2 17 18
M  V30 18 1 18 19
M  V30 19 2 19 20
M  V30 20 1 14 21
M  V30 21 2 21 22
M  V30 22 2 8 23
M  V30 23 1 23 24
M  V30 24 1 24 25
M  V30 25 1 25 26
M  V30 26 1 26 27
M  V30 27 1 27 28
M  V30 28 1 28 29
M  V30 29 1 29 30
M  V30 30 1 29 31
M  V30 31 1 31 32
M  V30 32 2 24 33
M  V30 33 1 33 34
M  V30 34 2 34 4
M  V30 35 1 34 7
M  V30 36 1 22 11
M  V30 37 1 32 26
M  V30 38 1 20 15
M  V30 39 1 1 35
M  V30 40 1 1 36
M  V30 41 1 1 37
M  V30 42 1 2 38
M  V30 43 1 3 39
M  V30 44 1 3 40
M  V30 45 1 3 41
M  V30 46 1 5 42
M  V30 47 1 9 43
M  V30 48 1 10 44
M  V30 49 1 10 45
M  V30 50 1 12 46
M  V30 51 1 13 47
M  V30 52 1 16 48
M  V30 53 1 17 49
M  V30 54 1 18 50
M  V30 55 1 19 51
M  V30 56 1 21 52
M  V30 57 1 22 53
M  V30 58 1 25 54
M  V30 59 1 26 55 CFG=3
M  V30 60 1 27 56
M  V30 61 1 27 57
M  V30 62 1 28 58
M  V30 63 1 28 59
M  V30 64 1 29 60 CFG=1
M  V30 65 1 30 61
M  V30 66 1 30 62
M  V30 67 1 31 63
M  V30 68 1 31 64
M  V30 69 1 32 65
M  V30 70 1 32 66
M  V30 END BOND
M  V30 END CTAB
M  END
>  <Dataset>  (134) 
ChEMBL_Kinases

>  <Ligand_Instance>  (134) 
nan

>  <PDB_ID>  (134) 
nan

>  <Standardized_SMILES>  (134) 
CC(C)c1cnn2c(NCc3ccc(-c4ccccn4)cc3)nc(N[C@H]3CC[C@H](N)CC3)nc12

>  <Name>  (134) 
nan

>  <Pocket>  (134) 
nan

>  <ATP_Site>  (134) 
nan

>  <Peripheral>  (134) 
nan

>  <Num_H_Atoms_ProtBoundConf>  (134) 
nan

>  <Num_Resolved_Atoms>  (134) 
nan

>  <Num_Not_Resolved_Atoms>  (134) 
nan

$$$$
CHEMBL6291
     RDKit          3D

  0  0  0  0  0  0  0  0  0  0999 V3000
M  V30 BEGIN CTAB
M  V30 COUNTS 56 60 0 0 0
M  V30 BEGIN ATOM
M  V30 1 C 4.680890 -2.778892 1.436906 0
M  V30 2 N 3.283664 -2.939667 1.032752 0
M  V30 3 C 2.275918 -3.433585 1.764432 0
M  V30 4 C 1.084515 -3.414543 1.035018 0
M  V30 5 C -0.258176 -3.871237 1.379434 0
M  V30 6 C -1.463269 -3.277406 1.308735 0
M  V30 7 C -1.708170 -1.917044 0.833510 0
M  V30 8 C -0.845465 -0.917312 1.290122 0
M  V30 9 N -1.250573 0.263873 0.728778 0
M  V30 10 C -0.541118 1.523766 1.016376 0
M  V30 11 C 0.574934 1.787576 0.068568 0
M  V30 12 C 1.340078 3.055204 0.348443 0
M  V30 13 S 0.387163 4.556177 0.289290 0
M  V30 14 C -0.810445 4.766382 1.548724 0
M  V30 15 N -1.355372 5.919203 1.237036 0
M  V30 16 N -1.631578 4.559931 2.701728 0
M  V30 17 C -2.316122 -0.011331 -0.040096 0
M  V30 18 C -3.078832 0.835043 -0.814856 0
M  V30 19 C -4.135259 0.288528 -1.523128 0
M  V30 20 C -4.429891 -1.080219 -1.462883 0
M  V30 21 C -3.650187 -1.909599 -0.678705 0
M  V30 22 C -2.619868 -1.352764 0.007410 0
M  V30 23 C -2.480185 -4.207415 1.793235 0
M  V30 24 O -3.726703 -4.046597 1.893979 0
M  V30 25 N -1.793763 -5.396030 2.156236 0
M  V30 26 C -0.404831 -5.219972 1.910251 0
M  V30 27 O 0.422098 -6.130305 2.149213 0
M  V30 28 C 1.453179 -2.877114 -0.178952 0
M  V30 29 C 0.826912 -2.575528 -1.377296 0
M  V30 30 C 1.417860 -2.037941 -2.499907 0
M  V30 31 C 2.772149 -1.767659 -2.439611 0
M  V30 32 C 3.461695 -2.040934 -1.282711 0
M  V30 33 C 2.800436 -2.584194 -0.185689 0
M  V30 34 H 4.728511 -2.354072 2.476803 0
M  V30 35 H 5.194289 -2.032327 0.762148 0
M  V30 36 H 5.178013 -3.747784 1.424563 0
M  V30 37 H 2.328206 -3.806820 2.782324 0
M  V30 38 H 0.016203 -0.999939 1.976362 0
M  V30 39 H -0.123497 1.458987 2.039952 0
M  V30 40 H -1.288066 2.362557 1.045409 0
M  V30 41 H 0.239812 1.754786 -1.010108 0
M  V30 42 H 1.345988 0.971220 0.101216 0
M  V30 43 H 1.882636 2.999145 1.322218 0
M  V30 44 H 2.169334 3.149348 -0.411999 0
M  V30 45 H -0.938100 6.370279 0.363537 0
M  V30 46 H -2.523392 3.997462 2.594970 0
M  V30 47 H -1.363538 4.951485 3.623276 0
M  V30 48 H -2.838238 1.899221 -0.853160 0
M  V30 49 H -4.709998 0.965550 -2.114089 0
M  V30 50 H -5.250693 -1.502980 -2.015423 0
M  V30 51 H -3.834027 -2.964101 -0.604618 0
M  V30 52 H -2.289146 -6.251067 2.545052 0
M  V30 53 H -0.232139 -2.776247 -1.473594 0
M  V30 54 H 0.850225 -1.835440 -3.394492 0
M  V30 55 H 3.291159 -1.352265 -3.269756 0
M  V30 56 H 4.508277 -1.831257 -1.234085 0
M  V30 END ATOM
M  V30 BEGIN BOND
M  V30 1 1 1 2
M  V30 2 1 2 3
M  V30 3 2 3 4
M  V30 4 1 4 5
M  V30 5 2 5 6
M  V30 6 1 6 7
M  V30 7 2 7 8
M  V30 8 1 8 9
M  V30 9 1 9 10
M  V30 10 1 10 11
M  V30 11 1 11 12
M  V30 12 1 12 13
M  V30 13 1 13 14
M  V30 14 2 14 15 CFG=2
M  V30 15 1 14 16
M  V30 16 1 9 17
M  V30 17 2 17 18
M  V30 18 1 18 19
M  V30 19 2 19 20
M  V30 20 1 20 21
M  V30 21 2 21 22
M  V30 22 1 6 23
M  V30 23 2 23 24
M  V30 24 1 23 25
M  V30 25 1 25 26
M  V30 26 2 26 27
M  V30 27 1 4 28
M  V30 28 2 28 29
M  V30 29 1 29 30
M  V30 30 2 30 31
M  V30 31 1 31 32
M  V30 32 2 32 33
M  V30 33 1 33 2
M  V30 34 1 26 5
M  V30 35 1 33 28
M  V30 36 1 22 7
M  V30 37 1 22 17
M  V30 38 1 1 34
M  V30 39 1 1 35
M  V30 40 1 1 36
M  V30 41 1 3 37
M  V30 42 1 8 38
M  V30 43 1 10 39
M  V30 44 1 10 40
M  V30 45 1 11 41
M  V30 46 1 11 42
M  V30 47 1 12 43
M  V30 48 1 12 44
M  V30 49 1 15 45
M  V30 50 1 16 46
M  V30 51 1 16 47
M  V30 52 1 18 48
M  V30 53 1 19 49
M  V30 54 1 20 50
M  V30 55 1 21 51
M  V30 56 1 25 52
M  V30 57 1 29 53
M  V30 58 1 30 54
M  V30 59 1 31 55
M  V30 60 1 32 56
M  V30 END BOND
M  V30 END CTAB
M  END
>  <Dataset>  (135) 
ChEMBL_Kinases

>  <Ligand_Instance>  (135) 
nan

>  <PDB_ID>  (135) 
nan

>  <Standardized_SMILES>  (135) 
Cn1cc(C2=C(c3cn(CCCSC(=N)N)c4ccccc34)C(=O)NC2=O)c2ccccc21

>  <Name>  (135) 
BISINDOLYLMALEIMIDE IX

>  <Pocket>  (135) 
nan

>  <ATP_Site>  (135) 
nan

>  <Peripheral>  (135) 
nan

>  <Num_H_Atoms_ProtBoundConf>  (135) 
nan

>  <Num_Resolved_Atoms>  (135) 
nan

>  <Num_Not_Resolved_Atoms>  (135) 
nan

$$$$
CHEMBL3301612
     RDKit          3D

  0  0  0  0  0  0  0  0  0  0999 V3000
M  V30 BEGIN CTAB
M  V30 COUNTS 63 65 0 0 0
M  V30 BEGIN ATOM
M  V30 1 C 5.784614 -1.715903 6.817108 0
M  V30 2 O 4.607671 -2.004149 6.056007 0
M  V30 3 C 4.196213 -1.066988 5.114026 0
M  V30 4 O 4.951450 -0.074785 5.077403 0
M  V30 5 N 3.029974 -1.251385 4.293252 0
M  V30 6 C 2.764286 -0.136229 3.354754 0 CFG=1
M  V30 7 C 2.805946 -0.706766 1.949009 0
M  V30 8 C 1.365039 0.360514 3.621508 0
M  V30 9 N 0.936763 1.450680 2.825913 0
M  V30 10 C 0.593109 1.886670 1.551993 0
M  V30 11 N 0.262712 3.139657 1.114251 0
M  V30 12 C -0.056009 3.387945 -0.141684 0
M  V30 13 C -0.065454 2.381731 -1.058585 0
M  V30 14 C 0.258420 1.102353 -0.673045 0
M  V30 15 C 0.221181 0.100738 -1.728170 0
M  V30 16 C 0.934345 -0.125233 -2.891249 0
M  V30 17 N 0.446653 -1.230999 -3.480378 0
M  V30 18 C 0.960228 -1.781175 -4.742571 0
M  V30 19 C 0.391452 -3.174216 -4.909339 0
M  V30 20 C 0.575702 -0.959464 -5.933759 0
M  V30 21 N -0.554518 -1.728404 -2.742445 0
M  V30 22 C -0.699661 -0.924288 -1.673012 0
M  V30 23 C -1.763214 -1.331724 -0.759977 0
M  V30 24 C -1.754623 -2.577388 -0.124087 0
M  V30 25 C -2.804040 -2.900640 0.730693 0
M  V30 26 Cl -2.779039 -4.465073 1.520296 0
M  V30 27 C -3.820460 -1.994860 0.931095 0
M  V30 28 C -3.873133 -0.752784 0.326127 0
M  V30 29 N -4.921430 0.182379 0.539050 0
M  V30 30 S -6.370955 -0.257145 1.397195 0
M  V30 31 C -7.218565 -1.567617 0.514716 0
M  V30 32 O -7.241420 0.929632 1.623269 0
M  V30 33 O -6.035263 -0.833411 2.748416 0
M  V30 34 C -2.816069 -0.480242 -0.507640 0
M  V30 35 F -2.802270 0.720693 -1.133570 0
M  V30 36 N 0.561770 0.953381 0.598321 0
M  V30 37 H 5.858717 -2.317657 7.722727 0
M  V30 38 H 5.733518 -0.628863 7.054165 0
M  V30 39 H 6.663292 -1.817906 6.126769 0
M  V30 40 H 2.457324 -2.109396 4.388574 0
M  V30 41 H 3.527491 0.624917 3.490547 0
M  V30 42 H 3.573064 -1.541827 1.900078 0
M  V30 43 H 1.859798 -1.210851 1.680713 0
M  V30 44 H 3.082896 0.081835 1.248720 0
M  V30 45 H 1.332958 0.578284 4.715767 0
M  V30 46 H 0.646115 -0.495309 3.504507 0
M  V30 47 H 0.827117 2.308693 3.443853 0
M  V30 48 H -0.280065 4.435410 -0.268342 0
M  V30 49 H -0.334389 2.657538 -2.059523 0
M  V30 50 H 1.729845 0.547890 -3.172142 0
M  V30 51 H 2.068212 -1.841448 -4.592784 0
M  V30 52 H -0.637661 -3.055835 -5.320860 0
M  V30 53 H 0.312895 -3.730871 -3.954128 0
M  V30 54 H 0.969999 -3.759707 -5.661749 0
M  V30 55 H -0.346568 -0.370000 -5.802934 0
M  V30 56 H 0.421497 -1.629143 -6.804084 0
M  V30 57 H 1.450655 -0.313124 -6.220213 0
M  V30 58 H -0.924608 -3.217521 -0.338471 0
M  V30 59 H -4.613438 -2.290321 1.603532 0
M  V30 60 H -4.793748 1.141673 0.163318 0
M  V30 61 H -7.148700 -1.401031 -0.586729 0
M  V30 62 H -8.309358 -1.560005 0.752237 0
M  V30 63 H -6.853731 -2.573499 0.801859 0
M  V30 END ATOM
M  V30 BEGIN BOND
M  V30 1 1 1 2
M  V30 2 1 2 3
M  V30 3 2 3 4
M  V30 4 1 3 5
M  V30 5 1 5 6
M  V30 6 1 6 7
M  V30 7 1 6 8
M  V30 8 1 8 9
M  V30 9 1 9 10
M  V30 10 2 10 11
M  V30 11 1 11 12
M  V30 12 2 12 13
M  V30 13 1 13 14
M  V30 14 1 14 15
M  V30 15 2 15 16
M  V30 16 1 16 17
M  V30 17 1 17 18
M  V30 18 1 18 19
M  V30 19 1 18 20
M  V30 20 1 17 21
M  V30 21 2 21 22
M  V30 22 1 22 23
M  V30 23 2 23 24
M  V30 24 1 24 25
M  V30 25 1 25 26
M  V30 26 2 25 27
M  V30 27 1 27 28
M  V30 28 1 28 29
M  V30 29 1 29 30
M  V30 30 1 30 31
M  V30 31 2 30 32
M  V30 32 2 30 33
M  V30 33 2 28 34
M  V30 34 1 34 35
M  V30 35 2 14 36
M  V30 36 1 36 10
M  V30 37 1 22 15
M  V30 38 1 34 23
M  V30 39 1 1 37
M  V30 40 1 1 38
M  V30 41 1 1 39
M  V30 42 1 5 40
M  V30 43 1 6 41 CFG=3
M  V30 44 1 7 42
M  V30 45 1 7 43
M  V30 46 1 7 44
M  V30 47 1 8 45
M  V30 48 1 8 46
M  V30 49 1 9 47
M  V30 50 1 12 48
M  V30 51 1 13 49
M  V30 52 1 16 50
M  V30 53 1 18 51
M  V30 54 1 19 52
M  V30 55 1 19 53
M  V30 56 1 19 54
M  V30 57 1 20 55
M  V30 58 1 20 56
M  V30 59 1 20 57
M  V30 60 1 24 58
M  V30 61 1 27 59
M  V30 62 1 29 60
M  V30 63 1 31 61
M  V30 64 1 31 62
M  V30 65 1 31 63
M  V30 END BOND
M  V30 END CTAB
M  END
>  <Dataset>  (136) 
ChEMBL_Kinases

>  <Ligand_Instance>  (136) 
nan

>  <PDB_ID>  (136) 
nan

>  <Standardized_SMILES>  (136) 
COC(=O)N[C@@H](C)CNc1nccc(-c2cn(C(C)C)nc2-c2cc(Cl)cc(NS(C)(=O)=O)c2F)n1

>  <Name>  (136) 
ENCORAFENIB

>  <Pocket>  (136) 
nan

>  <ATP_Site>  (136) 
nan

>  <Peripheral>  (136) 
nan

>  <Num_H_Atoms_ProtBoundConf>  (136) 
nan

>  <Num_Resolved_Atoms>  (136) 
nan

>  <Num_Not_Resolved_Atoms>  (136) 
nan

$$$$
CHEMBL3544983
     RDKit          3D

  0  0  0  0  0  0  0  0  0  0999 V3000
M  V30 BEGIN CTAB
M  V30 COUNTS 58 62 0 0 0
M  V30 BEGIN ATOM
M  V30 1 C 3.951838 -0.824791 0.598481 0
M  V30 2 O 2.655405 -1.338765 0.719901 0
M  V30 3 C 1.714457 -0.745978 1.595495 0
M  V30 4 C 2.128770 0.366672 2.323790 0
M  V30 5 C 1.128326 0.852286 3.105894 0
M  V30 6 C 1.537308 1.994801 3.803484 0
M  V30 7 N 2.810846 2.651258 3.816852 0
M  V30 8 C 3.266768 3.467901 2.711772 0
M  V30 9 C 4.486815 3.206460 2.027371 0
M  V30 10 C 4.653346 4.093690 1.018275 0
M  V30 11 C 3.913643 5.135201 0.554883 0
M  V30 12 Cl 4.267691 6.175824 -0.775815 0
M  V30 13 C 2.778268 5.259324 1.310867 0
M  V30 14 Cl 1.686705 6.582406 0.858917 0
M  V30 15 C 2.374118 4.483182 2.397255 0
M  V30 16 F 1.231454 4.709555 3.067909 0
M  V30 17 N 0.658513 2.648413 4.623805 0
M  V30 18 C -0.598213 2.137043 4.716307 0
M  V30 19 N -1.005235 1.027568 4.042067 0
M  V30 20 C -0.149978 0.384900 3.240429 0
M  V30 21 C -0.440294 -0.714982 2.482422 0
M  V30 22 C 0.434199 -1.348757 1.625048 0
M  V30 23 O 0.305394 -2.353757 0.858488 0
M  V30 24 C 0.164981 -3.402721 0.060526 0
M  V30 25 C -0.813732 -3.171010 -1.027438 0 CFG=2
M  V30 26 C -2.226723 -2.828024 -0.600778 0
M  V30 27 C -2.827886 -2.688106 -1.995055 0 CFG=2
M  V30 28 C -4.305665 -2.782290 -1.985135 0
M  V30 29 N -4.642180 -3.853593 -2.897445 0
M  V30 30 C -5.919750 -4.449303 -2.656381 0
M  V30 31 C -3.520712 -4.792852 -2.759680 0
M  V30 32 C -2.317781 -3.900222 -2.713070 0 CFG=2
M  V30 33 C -1.178186 -4.421486 -1.856243 0
M  V30 34 H 4.429399 -0.685149 1.556812 0
M  V30 35 H 4.548343 -1.585468 0.028334 0
M  V30 36 H 3.956211 0.121566 -0.021310 0
M  V30 37 H 3.119598 0.736075 2.234388 0
M  V30 38 H 3.599551 2.684658 4.514910 0
M  V30 39 H 5.108575 2.404910 2.328740 0
M  V30 40 H 5.600571 3.902197 0.485374 0
M  V30 41 H -1.410875 2.545455 5.322235 0
M  V30 42 H -1.449518 -1.136247 2.540656 0
M  V30 43 H -0.021397 -4.375305 0.595575 0
M  V30 44 H 1.173839 -3.588027 -0.458152 0
M  V30 45 H -0.491768 -2.353274 -1.737326 0
M  V30 46 H -2.272056 -1.885458 -0.010039 0
M  V30 47 H -2.634775 -3.710649 -0.085538 0
M  V30 48 H -2.442651 -1.736036 -2.442110 0
M  V30 49 H -4.742632 -2.919132 -0.966517 0
M  V30 50 H -4.702493 -1.854422 -2.429558 0
M  V30 51 H -6.224455 -4.486041 -1.591122 0
M  V30 52 H -6.008199 -5.478150 -3.101036 0
M  V30 53 H -6.700321 -3.830858 -3.183508 0
M  V30 54 H -3.649206 -5.425827 -1.881936 0
M  V30 55 H -3.511951 -5.416007 -3.664385 0
M  V30 56 H -1.957169 -3.650721 -3.742466 0
M  V30 57 H -1.472254 -5.238325 -1.211814 0
M  V30 58 H -0.302267 -4.637465 -2.486142 0
M  V30 END ATOM
M  V30 BEGIN BOND
M  V30 1 1 1 2
M  V30 2 1 2 3
M  V30 3 2 3 4
M  V30 4 1 4 5
M  V30 5 2 5 6
M  V30 6 1 6 7
M  V30 7 1 7 8
M  V30 8 2 8 9
M  V30 9 1 9 10
M  V30 10 2 10 11
M  V30 11 1 11 12
M  V30 12 1 11 13
M  V30 13 1 13 14
M  V30 14 2 13 15
M  V30 15 1 15 16
M  V30 16 1 6 17
M  V30 17 2 17 18
M  V30 18 1 18 19
M  V30 19 2 19 20
M  V30 20 1 20 21
M  V30 21 2 21 22
M  V30 22 1 22 23
M  V30 23 1 23 24
M  V30 24 1 24 25
M  V30 25 1 25 26
M  V30 26 1 26 27
M  V30 27 1 27 28
M  V30 28 1 28 29
M  V30 29 1 29 30
M  V30 30 1 29 31
M  V30 31 1 31 32
M  V30 32 1 32 33
M  V30 33 1 22 3
M  V30 34 1 33 25
M  V30 35 1 20 5
M  V30 36 1 32 27
M  V30 37 1 15 8
M  V30 38 1 1 34
M  V30 39 1 1 35
M  V30 40 1 1 36
M  V30 41 1 4 37
M  V30 42 1 7 38
M  V30 43 1 9 39
M  V30 44 1 10 40
M  V30 45 1 18 41
M  V30 46 1 21 42
M  V30 47 1 24 43
M  V30 48 1 24 44
M  V30 49 1 25 45 CFG=3
M  V30 50 1 26 46
M  V30 51 1 26 47
M  V30 52 1 27 48 CFG=3
M  V30 53 1 28 49
M  V30 54 1 28 50
M  V30 55 1 30 51
M  V30 56 1 30 52
M  V30 57 1 30 53
M  V30 58 1 31 54
M  V30 59 1 31 55
M  V30 60 1 32 56 CFG=3
M  V30 61 1 33 57
M  V30 62 1 33 58
M  V30 END BOND
M  V30 END CTAB
M  END
>  <Dataset>  (137) 
ChEMBL_Kinases

>  <Ligand_Instance>  (137) 
nan

>  <PDB_ID>  (137) 
nan

>  <Standardized_SMILES>  (137) 
COc1cc2c(Nc3ccc(Cl)c(Cl)c3F)ncnc2cc1OC[C@@H]1C[C@@H]2CN(C)C[C@@H]2C1

>  <Name>  (137) 
TESEVATINIB

>  <Pocket>  (137) 
nan

>  <ATP_Site>  (137) 
nan

>  <Peripheral>  (137) 
nan

>  <Num_H_Atoms_ProtBoundConf>  (137) 
nan

>  <Num_Resolved_Atoms>  (137) 
nan

>  <Num_Not_Resolved_Atoms>  (137) 
nan

$$$$
CHEMBL2029988
     RDKit          3D

  0  0  0  0  0  0  0  0  0  0999 V3000
M  V30 BEGIN CTAB
M  V30 COUNTS 59 62 0 0 0
M  V30 BEGIN ATOM
M  V30 1 C 5.262156 -0.247097 7.251802 0
M  V30 2 O 5.015202 -0.930229 6.033501 0
M  V30 3 C 4.351812 -0.219131 5.032232 0
M  V30 4 C 3.976736 1.091635 5.276961 0
M  V30 5 C 3.325600 1.741877 4.251596 0
M  V30 6 N 2.934618 3.035904 4.442261 0
M  V30 7 C 2.298711 3.731615 3.495098 0
M  V30 8 N 2.013247 3.181763 2.300522 0
M  V30 9 C 2.366314 1.911165 2.037282 0
M  V30 10 O 2.145750 1.212126 0.869704 0
M  V30 11 C 1.500373 1.762713 -0.230078 0
M  V30 12 C 2.182206 2.433896 -1.246307 0
M  V30 13 C 1.448702 2.956449 -2.316866 0
M  V30 14 C 0.077455 2.810913 -2.366834 0
M  V30 15 C -0.568123 2.137765 -1.339198 0
M  V30 16 N -1.999344 1.945235 -1.321254 0
M  V30 17 C -2.463266 0.740145 -1.958362 0
M  V30 18 O -1.528095 0.032153 -2.439218 0
M  V30 19 N -3.810942 0.302227 -2.085854 0
M  V30 20 C -4.038954 -0.930810 -2.759163 0
M  V30 21 C -4.041806 -2.080617 -1.959865 0
M  V30 22 C -4.280298 -3.153748 -2.819264 0
M  V30 23 C -4.381074 -4.604227 -2.472533 0
M  V30 24 C -3.024933 -5.270561 -2.550641 0
M  V30 25 C -5.329504 -5.323278 -3.408993 0
M  V30 26 C -4.896514 -4.793590 -1.061828 0
M  V30 27 F -6.138883 -4.238842 -0.921828 0
M  V30 28 F -5.046486 -6.172193 -0.891191 0
M  V30 29 F -3.984476 -4.400126 -0.113845 0
M  V30 30 O -4.405162 -2.656027 -4.023500 0
M  V30 31 N -4.270480 -1.363355 -4.027022 0
M  V30 32 C 0.128822 1.611442 -0.270156 0
M  V30 33 C 3.022604 1.199790 3.020782 0
M  V30 34 C 3.427279 -0.118408 2.842424 0
M  V30 35 C 4.084295 -0.843590 3.815402 0
M  V30 36 O 4.496412 -2.148591 3.667046 0
M  V30 37 C 4.245324 -2.814794 2.453106 0
M  V30 38 H 5.684798 -0.915349 8.021306 0
M  V30 39 H 6.033797 0.533878 7.054635 0
M  V30 40 H 4.351627 0.200535 7.678001 0
M  V30 41 H 4.163799 1.613589 6.203765 0
M  V30 42 H 1.977241 4.759716 3.620006 0
M  V30 43 H 3.261896 2.530080 -1.174951 0
M  V30 44 H 1.997338 3.466556 -3.082618 0
M  V30 45 H -0.495963 3.204499 -3.177813 0
M  V30 46 H -2.776215 2.546308 -0.914443 0
M  V30 47 H -4.505981 0.951430 -1.659307 0
M  V30 48 H -3.903810 -2.245831 -0.903130 0
M  V30 49 H -3.104468 -6.356822 -2.708866 0
M  V30 50 H -2.373520 -4.789054 -3.308749 0
M  V30 51 H -2.504196 -5.094932 -1.575962 0
M  V30 52 H -5.696269 -4.618721 -4.179762 0
M  V30 53 H -6.170461 -5.789280 -2.866101 0
M  V30 54 H -4.806495 -6.148535 -3.930935 0
M  V30 55 H -0.395934 1.089543 0.521186 0
M  V30 56 H 3.214508 -0.593831 1.893675 0
M  V30 57 H 4.473936 -3.898325 2.506035 0
M  V30 58 H 3.215892 -2.623119 2.105610 0
M  V30 59 H 4.932065 -2.366872 1.682047 0
M  V30 END ATOM
M  V30 BEGIN BOND
M  V30 1 1 1 2
M  V30 2 1 2 3
M  V30 3 2 3 4
M  V30 4 1 4 5
M  V30 5 2 5 6
M  V30 6 1 6 7
M  V30 7 2 7 8
M  V30 8 1 8 9
M  V30 9 1 9 10
M  V30 10 1 10 11
M  V30 11 2 11 12
M  V30 12 1 12 13
M  V30 13 2 13 14
M  V30 14 1 14 15
M  V30 15 1 15 16
M  V30 16 1 16 17
M  V30 17 2 17 18
M  V30 18 1 17 19
M  V30 19 1 19 20
M  V30 20 1 20 21
M  V30 21 2 21 22
M  V30 22 1 22 23
M  V30 23 1 23 24
M  V30 24 1 23 25
M  V30 25 1 23 26
M  V30 26 1 26 27
M  V30 27 1 26 28
M  V30 28 1 26 29
M  V30 29 1 22 30
M  V30 30 1 30 31
M  V30 31 2 15 32
M  V30 32 2 9 33
M  V30 33 1 33 34
M  V30 34 2 34 35
M  V30 35 1 35 36
M  V30 36 1 36 37
M  V30 37 1 35 3
M  V30 38 1 33 5
M  V30 39 1 32 11
M  V30 40 2 31 20
M  V30 41 1 1 38
M  V30 42 1 1 39
M  V30 43 1 1 40
M  V30 44 1 4 41
M  V30 45 1 7 42
M  V30 46 1 12 43
M  V30 47 1 13 44
M  V30 48 1 14 45
M  V30 49 1 16 46
M  V30 50 1 19 47
M  V30 51 1 21 48
M  V30 52 1 24 49
M  V30 53 1 24 50
M  V30 54 1 24 51
M  V30 55 1 25 52
M  V30 56 1 25 53
M  V30 57 1 25 54
M  V30 58 1 32 55
M  V30 59 1 34 56
M  V30 60 1 37 57
M  V30 61 1 37 58
M  V30 62 1 37 59
M  V30 END BOND
M  V30 END CTAB
M  END
>  <Dataset>  (138) 
ChEMBL_Kinases

>  <Ligand_Instance>  (138) 
nan

>  <PDB_ID>  (138) 
nan

>  <Standardized_SMILES>  (138) 
COc1cc2ncnc(Oc3cccc(NC(=O)Nc4cc(C(C)(C)C(F)(F)F)on4)c3)c2cc1OC

>  <Name>  (138) 
CEP-32496

>  <Pocket>  (138) 
nan

>  <ATP_Site>  (138) 
nan

>  <Peripheral>  (138) 
nan

>  <Num_H_Atoms_ProtBoundConf>  (138) 
nan

>  <Num_Resolved_Atoms>  (138) 
nan

>  <Num_Not_Resolved_Atoms>  (138) 
nan

$$$$
CHEMBL5090394
     RDKit          3D

  0  0  0  0  0  0  0  0  0  0999 V3000
M  V30 BEGIN CTAB
M  V30 COUNTS 57 61 0 0 0
M  V30 BEGIN ATOM
M  V30 1 C 3.498425 -5.874366 3.897555 0
M  V30 2 N 3.896028 -5.361636 2.592906 0
M  V30 3 C 3.607494 -3.988186 2.374928 0
M  V30 4 N 4.450852 -2.938846 2.580799 0
M  V30 5 C 4.031984 -1.681107 2.336251 0
M  V30 6 C 2.727956 -1.542880 1.877610 0
M  V30 7 C 2.330093 -0.242883 1.637775 0
M  V30 8 C 1.049776 -0.007779 1.179294 0
M  V30 9 C 0.361932 1.239853 0.845574 0
M  V30 10 C 0.376692 1.784824 -0.437898 0
M  V30 11 C -0.307644 2.962779 -0.659375 0
M  V30 12 C -1.013474 3.634338 0.340525 0
M  V30 13 C -1.711919 4.866531 0.039029 0
M  V30 14 N -1.726030 6.015661 0.754044 0
M  V30 15 C -2.417019 7.089760 0.361258 0
M  V30 16 C -3.169600 7.095414 -0.813609 0
M  V30 17 C -3.162275 5.929008 -1.550658 0
M  V30 18 C -2.450549 4.833014 -1.139469 0
M  V30 19 F -2.543477 3.760029 -1.970875 0
M  V30 20 C -1.011611 3.069709 1.608896 0
M  V30 21 C -0.332399 1.878053 1.880456 0
M  V30 22 Cl -0.366510 1.210499 3.519193 0
M  V30 23 C 0.179932 -1.086720 0.966342 0
M  V30 24 O -1.019917 -1.017089 0.548913 0
M  V30 25 N 0.603636 -2.360030 1.213434 0
M  V30 26 C -0.292213 -3.504844 0.986116 0
M  V30 27 C -0.126410 -4.029789 -0.422881 0 CFG=1
M  V30 28 O -0.980555 -5.086961 -0.600602 0
M  V30 29 C -2.259548 -4.774065 -0.987528 0
M  V30 30 C -2.313067 -3.751636 -2.095551 0 CFG=2
M  V30 31 N -3.075481 -4.179685 -3.245779 0
M  V30 32 C -0.887793 -3.457875 -2.523552 0
M  V30 33 O -0.151031 -3.058962 -1.391658 0
M  V30 34 C 1.850773 -2.584372 1.659813 0
M  V30 35 N 2.330469 -3.835383 1.924112 0
M  V30 36 H 2.684638 -5.267506 4.348387 0
M  V30 37 H 3.106598 -6.913542 3.708201 0
M  V30 38 H 4.362147 -5.915888 4.582891 0
M  V30 39 H 4.354198 -5.986778 1.899984 0
M  V30 40 H 4.674786 -0.829115 2.488877 0
M  V30 41 H 2.878265 0.675089 1.752814 0
M  V30 42 H 0.921368 1.276143 -1.227506 0
M  V30 43 H -0.290463 3.385483 -1.670716 0
M  V30 44 H -2.410185 7.990641 0.949710 0
M  V30 45 H -3.734700 7.969256 -1.135698 0
M  V30 46 H -3.755579 5.964460 -2.456441 0
M  V30 47 H -1.551995 3.569929 2.407434 0
M  V30 48 H -1.317398 -3.127989 1.142423 0
M  V30 49 H -0.110377 -4.311235 1.693939 0
M  V30 50 H 0.912048 -4.468236 -0.440887 0
M  V30 51 H -2.927707 -4.462141 -0.161812 0
M  V30 52 H -2.737081 -5.701408 -1.397279 0
M  V30 53 H -2.813513 -2.821698 -1.735516 0
M  V30 54 H -2.754487 -3.599104 -4.055649 0
M  V30 55 H -4.093106 -3.969307 -3.051988 0
M  V30 56 H -0.479656 -4.357032 -2.996115 0
M  V30 57 H -0.833304 -2.618153 -3.239350 0
M  V30 END ATOM
M  V30 BEGIN BOND
M  V30 1 1 1 2
M  V30 2 1 2 3
M  V30 3 2 3 4
M  V30 4 1 4 5
M  V30 5 2 5 6
M  V30 6 1 6 7
M  V30 7 2 7 8
M  V30 8 1 8 9
M  V30 9 2 9 10
M  V30 10 1 10 11
M  V30 11 2 11 12
M  V30 12 1 12 13
M  V30 13 2 13 14
M  V30 14 1 14 15
M  V30 15 2 15 16
M  V30 16 1 16 17
M  V30 17 2 17 18
M  V30 18 1 18 19
M  V30 19 1 12 20
M  V30 20 2 20 21
M  V30 21 1 21 22
M  V30 22 1 8 23
M  V30 23 2 23 24
M  V30 24 1 23 25
M  V30 25 1 25 26
M  V30 26 1 26 27
M  V30 27 1 27 28
M  V30 28 1 28 29
M  V30 29 1 29 30
M  V30 30 1 30 31
M  V30 31 1 30 32
M  V30 32 1 32 33
M  V30 33 1 25 34
M  V30 34 2 34 35
M  V30 35 1 35 3
M  V30 36 1 34 6
M  V30 37 1 21 9
M  V30 38 1 33 27
M  V30 39 1 18 13
M  V30 40 1 1 36
M  V30 41 1 1 37
M  V30 42 1 1 38
M  V30 43 1 2 39
M  V30 44 1 5 40
M  V30 45 1 7 41
M  V30 46 1 10 42
M  V30 47 1 11 43
M  V30 48 1 15 44
M  V30 49 1 16 45
M  V30 50 1 17 46
M  V30 51 1 20 47
M  V30 52 1 26 48
M  V30 53 1 26 49
M  V30 54 1 27 50 CFG=1
M  V30 55 1 29 51
M  V30 56 1 29 52
M  V30 57 1 30 53 CFG=1
M  V30 58 1 31 54
M  V30 59 1 31 55
M  V30 60 1 32 56
M  V30 61 1 32 57
M  V30 END BOND
M  V30 END CTAB
M  END
>  <Dataset>  (139) 
ChEMBL_Kinases

>  <Ligand_Instance>  (139) 
nan

>  <PDB_ID>  (139) 
nan

>  <Standardized_SMILES>  (139) 
CNc1ncc2cc(-c3ccc(-c4ncccc4F)cc3Cl)c(=O)n(C[C@H]3OC[C@H](N)CO3)c2n1

>  <Name>  (139) 
nan

>  <Pocket>  (139) 
nan

>  <ATP_Site>  (139) 
nan

>  <Peripheral>  (139) 
nan

>  <Num_H_Atoms_ProtBoundConf>  (139) 
nan

>  <Num_Resolved_Atoms>  (139) 
nan

>  <Num_Not_Resolved_Atoms>  (139) 
nan

$$$$
CHEMBL3297832
     RDKit          3D

  0  0  0  0  0  0  0  0  0  0999 V3000
M  V30 BEGIN CTAB
M  V30 COUNTS 42 45 0 0 0
M  V30 BEGIN ATOM
M  V30 1 C -0.156241 -4.578130 2.150436 0
M  V30 2 O 0.751555 -4.365864 1.086180 0
M  V30 3 C 0.311187 -4.000228 -0.193686 0
M  V30 4 C 0.000304 -4.954770 -1.156254 0
M  V30 5 O 0.125238 -6.315135 -0.854335 0
M  V30 6 C -0.428790 -4.518482 -2.399446 0
M  V30 7 C -0.553851 -3.177931 -2.702705 0
M  V30 8 C -0.244109 -2.215162 -1.743095 0
M  V30 9 C -0.379166 -0.882860 -2.076191 0
M  V30 10 O -0.779932 -0.596775 -3.243242 0
M  V30 11 C -0.060385 0.039464 -1.091887 0
M  V30 12 C -0.209117 1.364378 -1.465542 0
M  V30 13 O -0.632608 1.795121 -2.692475 0
M  V30 14 C 0.104400 2.314542 -0.495313 0
M  V30 15 C 0.534570 1.915082 0.752837 0
M  V30 16 C 0.665259 0.583357 1.072995 0
M  V30 17 C 0.365188 -0.382548 0.141624 0
M  V30 18 N 0.485859 -1.675630 0.434230 0
M  V30 19 C 0.188795 -2.637068 -0.487981 0
M  V30 20 C 1.121288 0.194048 2.398010 0
M  V30 21 C 1.402052 1.147215 3.272046 0
M  V30 22 C 1.275461 2.588024 2.969345 0
M  V30 23 C 0.330702 3.157480 4.031760 0
M  V30 24 C 2.631341 3.237061 3.211924 0
M  V30 25 O 0.833193 2.876934 1.679727 0
M  V30 26 H -1.181674 -4.228006 1.900319 0
M  V30 27 H -0.181794 -5.654135 2.458609 0
M  V30 28 H 0.211524 -4.002692 3.016762 0
M  V30 29 H 1.094995 -6.664338 -0.801751 0
M  V30 30 H -0.653072 -5.336198 -3.100173 0
M  V30 31 H -0.894064 -2.910968 -3.692243 0
M  V30 32 H -1.194897 2.646736 -2.770954 0
M  V30 33 H -0.004084 3.369036 -0.763554 0
M  V30 34 H 0.797592 -2.065360 1.333841 0
M  V30 35 H 1.259394 -0.811599 2.755930 0
M  V30 36 H 1.749248 0.951610 4.285732 0
M  V30 37 H -0.362720 2.363055 4.381837 0
M  V30 38 H -0.287652 3.971942 3.622511 0
M  V30 39 H 0.924864 3.470088 4.916698 0
M  V30 40 H 2.777819 3.483544 4.285255 0
M  V30 41 H 2.679978 4.188491 2.649951 0
M  V30 42 H 3.447244 2.524126 2.953981 0
M  V30 END ATOM
M  V30 BEGIN BOND
M  V30 1 1 1 2
M  V30 2 1 2 3
M  V30 3 2 3 4
M  V30 4 1 4 5
M  V30 5 1 4 6
M  V30 6 2 6 7
M  V30 7 1 7 8
M  V30 8 1 8 9
M  V30 9 2 9 10
M  V30 10 1 9 11
M  V30 11 2 11 12
M  V30 12 1 12 13
M  V30 13 1 12 14
M  V30 14 2 14 15
M  V30 15 1 15 16
M  V30 16 2 16 17
M  V30 17 1 17 18
M  V30 18 1 18 19
M  V30 19 1 16 20
M  V30 20 2 20 21
M  V30 21 1 21 22
M  V30 22 1 22 23
M  V30 23 1 22 24
M  V30 24 1 22 25
M  V30 25 1 19 3
M  V30 26 2 19 8
M  V30 27 1 17 11
M  V30 28 1 25 15
M  V30 29 1 1 26
M  V30 30 1 1 27
M  V30 31 1 1 28
M  V30 32 1 5 29
M  V30 33 1 6 30
M  V30 34 1 7 31
M  V30 35 1 13 32
M  V30 36 1 14 33
M  V30 37 1 18 34
M  V30 38 1 20 35
M  V30 39 1 21 36
M  V30 40 1 23 37
M  V30 41 1 23 38
M  V30 42 1 23 39
M  V30 43 1 24 40
M  V30 44 1 24 41
M  V30 45 1 24 42
M  V30 END BOND
M  V30 END CTAB
M  END
>  <Dataset>  (140) 
ChEMBL_Kinases

>  <Ligand_Instance>  (140) 
nan

>  <PDB_ID>  (140) 
nan

>  <Standardized_SMILES>  (140) 
COc1c(O)ccc2c(=O)c3c(O)cc4c(c3[nH]c12)C=CC(C)(C)O4

>  <Name>  (140) 
nan

>  <Pocket>  (140) 
nan

>  <ATP_Site>  (140) 
nan

>  <Peripheral>  (140) 
nan

>  <Num_H_Atoms_ProtBoundConf>  (140) 
nan

>  <Num_Resolved_Atoms>  (140) 
nan

>  <Num_Not_Resolved_Atoms>  (140) 
nan

$$$$
CHEMBL50
     RDKit          3D

  0  0  0  0  0  0  0  0  0  0999 V3000
M  V30 BEGIN CTAB
M  V30 COUNTS 32 34 0 0 0
M  V30 BEGIN ATOM
M  V30 1 O -0.734360 -1.390181 4.227221 0
M  V30 2 C -0.620411 -0.972578 3.039018 0
M  V30 3 C 0.381690 -1.420076 2.207647 0
M  V30 4 O 1.233187 -2.337059 2.754202 0
M  V30 5 C 0.565875 -1.012242 0.910766 0
M  V30 6 C 1.596594 -1.444534 -0.009700 0
M  V30 7 C 2.610747 -2.345534 0.195106 0
M  V30 8 C 3.556295 -2.704685 -0.736651 0
M  V30 9 C 3.511408 -2.131942 -1.989737 0
M  V30 10 O 4.470073 -2.500961 -2.923009 0
M  V30 11 C 2.515059 -1.220329 -2.252655 0
M  V30 12 O 2.447352 -0.631107 -3.501501 0
M  V30 13 C 1.597220 -0.901978 -1.277526 0
M  V30 14 O -0.323554 -0.131503 0.519819 0
M  V30 15 C -1.287517 0.322853 1.263779 0
M  V30 16 C -2.128042 1.256452 0.657848 0
M  V30 17 C -3.169658 1.762547 1.426387 0
M  V30 18 O -4.050621 2.705847 0.873529 0
M  V30 19 C -3.400549 1.388044 2.732917 0
M  V30 20 C -2.558160 0.459608 3.323296 0
M  V30 21 O -2.697554 0.011060 4.631380 0
M  V30 22 C -1.522360 -0.047409 2.567795 0
M  V30 23 H 1.641297 -2.250022 3.670341 0
M  V30 24 H 2.688134 -2.813313 1.142253 0
M  V30 25 H 4.321048 -3.417243 -0.504857 0
M  V30 26 H 4.766487 -1.851669 -3.651836 0
M  V30 27 H 1.729073 -0.862348 -4.184126 0
M  V30 28 H 0.833784 -0.165751 -1.567021 0
M  V30 29 H -1.991554 1.583812 -0.361890 0
M  V30 30 H -4.529125 2.403856 0.016742 0
M  V30 31 H -4.213147 1.792606 3.309739 0
M  V30 32 H -3.540826 -0.478515 4.898096 0
M  V30 END ATOM
M  V30 BEGIN BOND
M  V30 1 2 1 2
M  V30 2 1 2 3
M  V30 3 1 3 4
M  V30 4 2 3 5
M  V30 5 1 5 6
M  V30 6 2 6 7
M  V30 7 1 7 8
M  V30 8 2 8 9
M  V30 9 1 9 10
M  V30 10 1 9 11
M  V30 11 1 11 12
M  V30 12 2 11 13
M  V30 13 1 5 14
M  V30 14 1 14 15
M  V30 15 2 15 16
M  V30 16 1 16 17
M  V30 17 1 17 18
M  V30 18 2 17 19
M  V30 19 1 19 20
M  V30 20 1 20 21
M  V30 21 2 20 22
M  V30 22 1 22 2
M  V30 23 1 13 6
M  V30 24 1 22 15
M  V30 25 1 4 23
M  V30 26 1 7 24
M  V30 27 1 8 25
M  V30 28 1 10 26
M  V30 29 1 12 27
M  V30 30 1 13 28
M  V30 31 1 16 29
M  V30 32 1 18 30
M  V30 33 1 19 31
M  V30 34 1 21 32
M  V30 END BOND
M  V30 END CTAB
M  END
>  <Dataset>  (141) 
ChEMBL_Kinases

>  <Ligand_Instance>  (141) 
nan

>  <PDB_ID>  (141) 
nan

>  <Standardized_SMILES>  (141) 
O=c1c(O)c(-c2ccc(O)c(O)c2)oc2cc(O)cc(O)c12

>  <Name>  (141) 
QUERCETIN

>  <Pocket>  (141) 
nan

>  <ATP_Site>  (141) 
nan

>  <Peripheral>  (141) 
nan

>  <Num_H_Atoms_ProtBoundConf>  (141) 
nan

>  <Num_Resolved_Atoms>  (141) 
nan

>  <Num_Not_Resolved_Atoms>  (141) 
nan

$$$$
CHEMBL4062218
     RDKit          3D

  0  0  0  0  0  0  0  0  0  0999 V3000
M  V30 BEGIN CTAB
M  V30 COUNTS 66 71 0 0 0
M  V30 BEGIN ATOM
M  V30 1 C 6.017890 1.999222 6.207688 0
M  V30 2 N 5.455560 2.145721 4.873974 0
M  V30 3 C 4.121130 1.707429 4.663157 0
M  V30 4 O 3.593643 1.237540 5.696603 0
M  V30 5 C 3.450689 1.799721 3.382270 0
M  V30 6 C 2.143229 1.376923 3.268260 0
M  V30 7 C 1.506268 1.461095 2.024492 0
M  V30 8 C 2.196513 1.962721 0.942712 0
M  V30 9 N 1.528097 2.010987 -0.314490 0
M  V30 10 C 0.200370 1.666647 -0.679590 0
M  V30 11 N 0.049086 0.317042 -0.651642 0
M  V30 12 C -1.116717 -0.274680 -0.968432 0
M  V30 13 O -1.242786 -1.683358 -0.929911 0
M  V30 14 C -0.061697 -2.343133 -0.534958 0
M  V30 15 C -0.360975 -2.988970 0.829943 0
M  V30 16 C 0.917894 -3.795550 0.987287 0
M  V30 17 C 1.050415 -4.447428 -0.382904 0
M  V30 18 C 0.358401 -3.498067 -1.369819 0
M  V30 19 C -2.150705 0.562467 -1.323245 0
M  V30 20 C -3.428605 0.230169 -1.692250 0
M  V30 21 C -4.142786 -1.033752 -1.807178 0
M  V30 22 C -4.805584 -1.369981 -2.962214 0
M  V30 23 C -5.505735 -2.581114 -3.043896 0
M  V30 24 C -5.526288 -3.433433 -1.961438 0
M  V30 25 N -6.091175 -4.640851 -1.720211 0
M  V30 26 C -5.770044 -5.013355 -0.449752 0
M  V30 27 C -6.126444 -6.228400 0.305147 0
M  V30 28 O -5.021209 -4.048804 0.076105 0
M  V30 29 C -4.852279 -3.082062 -0.800489 0
M  V30 30 C -4.151516 -1.883650 -0.699284 0
M  V30 31 C -4.047602 1.440495 -1.948358 0
M  V30 32 N -3.200801 2.482264 -1.748950 0
M  V30 33 C -2.038141 1.934394 -1.365229 0
M  V30 34 N -0.843743 2.447504 -1.035071 0
M  V30 35 C 3.504213 2.387769 1.049994 0
M  V30 36 O 4.092326 2.868762 -0.088710 0
M  V30 37 C 5.403917 3.344484 -0.170911 0
M  V30 38 C 4.106490 2.295679 2.278136 0
M  V30 39 H 5.437914 2.494009 6.987798 0
M  V30 40 H 6.086119 0.910913 6.425297 0
M  V30 41 H 7.053862 2.384704 6.207040 0
M  V30 42 H 6.019530 2.559327 4.102253 0
M  V30 43 H 1.568199 0.971710 4.112806 0
M  V30 44 H 0.469248 1.123828 1.942909 0
M  V30 45 H 1.966927 2.331434 -1.191476 0
M  V30 46 H 0.732998 -1.571814 -0.384260 0
M  V30 47 H -0.517743 -2.229943 1.588830 0
M  V30 48 H -1.174274 -3.703446 0.687498 0
M  V30 49 H 0.796058 -4.539852 1.797539 0
M  V30 50 H 1.727860 -3.055561 1.183958 0
M  V30 51 H 2.128889 -4.573967 -0.617327 0
M  V30 52 H 0.494070 -5.401159 -0.347388 0
M  V30 53 H -0.438536 -3.971555 -1.941064 0
M  V30 54 H 1.169999 -3.145347 -2.060794 0
M  V30 55 H -4.746272 -0.656679 -3.763667 0
M  V30 56 H -6.020048 -2.828917 -3.959605 0
M  V30 57 H -7.015593 -6.714861 -0.188072 0
M  V30 58 H -5.311651 -6.984170 0.341618 0
M  V30 59 H -6.349608 -5.978524 1.370056 0
M  V30 60 H -3.667571 -1.693422 0.244824 0
M  V30 61 H -5.069488 1.623895 -2.269966 0
M  V30 62 H -3.371035 3.501125 -1.857813 0
M  V30 63 H 5.594313 4.103022 0.632532 0
M  V30 64 H 5.469066 3.924393 -1.132407 0
M  V30 65 H 6.181734 2.569211 -0.218558 0
M  V30 66 H 5.130513 2.644896 2.287843 0
M  V30 END ATOM
M  V30 BEGIN BOND
M  V30 1 1 1 2
M  V30 2 1 2 3
M  V30 3 2 3 4
M  V30 4 1 3 5
M  V30 5 2 5 6
M  V30 6 1 6 7
M  V30 7 2 7 8
M  V30 8 1 8 9
M  V30 9 1 9 10
M  V30 10 2 10 11
M  V30 11 1 11 12
M  V30 12 1 12 13
M  V30 13 1 13 14
M  V30 14 1 14 15
M  V30 15 1 15 16
M  V30 16 1 16 17
M  V30 17 1 17 18
M  V30 18 2 12 19
M  V30 19 1 19 20
M  V30 20 1 20 21
M  V30 21 2 21 22
M  V30 22 1 22 23
M  V30 23 2 23 24
M  V30 24 1 24 25
M  V30 25 2 25 26
M  V30 26 1 26 27
M  V30 27 1 26 28
M  V30 28 1 28 29
M  V30 29 2 29 30
M  V30 30 2 20 31
M  V30 31 1 31 32
M  V30 32 1 32 33
M  V30 33 2 33 34
M  V30 34 1 8 35
M  V30 35 1 35 36
M  V30 36 1 36 37
M  V30 37 2 35 38
M  V30 38 1 38 5
M  V30 39 1 34 10
M  V30 40 1 18 14
M  V30 41 1 33 19
M  V30 42 1 30 21
M  V30 43 1 29 24
M  V30 44 1 1 39
M  V30 45 1 1 40
M  V30 46 1 1 41
M  V30 47 1 2 42
M  V30 48 1 6 43
M  V30 49 1 7 44
M  V30 50 1 9 45
M  V30 51 1 14 46
M  V30 52 1 15 47
M  V30 53 1 15 48
M  V30 54 1 16 49
M  V30 55 1 16 50
M  V30 56 1 17 51
M  V30 57 1 17 52
M  V30 58 1 18 53
M  V30 59 1 18 54
M  V30 60 1 22 55
M  V30 61 1 23 56
M  V30 62 1 27 57
M  V30 63 1 27 58
M  V30 64 1 27 59
M  V30 65 1 30 60
M  V30 66 1 31 61
M  V30 67 1 32 62
M  V30 68 1 37 63
M  V30 69 1 37 64
M  V30 70 1 37 65
M  V30 71 1 38 66
M  V30 END BOND
M  V30 END CTAB
M  END
>  <Dataset>  (142) 
ChEMBL_Kinases

>  <Ligand_Instance>  (142) 
nan

>  <PDB_ID>  (142) 
nan

>  <Standardized_SMILES>  (142) 
CNC(=O)c1ccc(Nc2nc(OC3CCCC3)c3c(-c4ccc5nc(C)oc5c4)c[nH]c3n2)c(OC)c1

>  <Name>  (142) 
nan

>  <Pocket>  (142) 
nan

>  <ATP_Site>  (142) 
nan

>  <Peripheral>  (142) 
nan

>  <Num_H_Atoms_ProtBoundConf>  (142) 
nan

>  <Num_Resolved_Atoms>  (142) 
nan

>  <Num_Not_Resolved_Atoms>  (142) 
nan

$$$$
CHEMBL217092
     RDKit          3D

  0  0  0  0  0  0  0  0  0  0999 V3000
M  V30 BEGIN CTAB
M  V30 COUNTS 70 75 0 0 0
M  V30 BEGIN ATOM
M  V30 1 C 3.486586 -1.661355 6.136369 0
M  V30 2 N 2.841623 -1.926751 4.900202 0
M  V30 3 C 3.038885 -3.263048 4.368363 0
M  V30 4 C 2.316714 -3.343306 3.080453 0
M  V30 5 N 2.906345 -2.455834 2.053904 0
M  V30 6 C 3.469284 -3.282617 1.068279 0
M  V30 7 C 3.890297 -2.725743 -0.265693 0
M  V30 8 O 2.935977 -2.119837 -0.936292 0
M  V30 9 C 2.025853 -1.540805 -1.589016 0
M  V30 10 C 1.168325 -0.902362 -0.697149 0
M  V30 11 C 0.053715 -0.231968 -1.180473 0
M  V30 12 O -0.943919 0.536704 -0.509252 0
M  V30 13 C -0.449862 1.160025 0.647736 0
M  V30 14 C -0.832400 2.651317 0.613086 0
M  V30 15 C -2.243155 2.764869 1.131357 0
M  V30 16 O -2.820182 1.523793 1.430536 0
M  V30 17 C -2.137950 0.847140 2.434170 0
M  V30 18 C -0.713427 0.657314 2.004309 0
M  V30 19 C -0.278071 -0.160830 -2.537368 0
M  V30 20 C -1.350763 0.396900 -3.166436 0
M  V30 21 N -2.332948 0.925525 -2.297117 0
M  V30 22 C -3.518344 0.150087 -2.220210 0
M  V30 23 C -3.570893 -1.173573 -1.887024 0
M  V30 24 Cl -2.285862 -2.322735 -1.547298 0
M  V30 25 C -4.725730 -1.954911 -1.778527 0
M  V30 26 C -5.977015 -1.355568 -2.023540 0
M  V30 27 C -5.984183 0.001573 -2.372531 0
M  V30 28 C -4.796220 0.684658 -2.459906 0
M  V30 29 O -5.048913 2.036515 -2.832474 0
M  V30 30 C -6.361004 2.005902 -3.405996 0
M  V30 31 O -7.010263 0.918028 -2.690872 0
M  V30 32 N -1.526784 0.336008 -4.481030 0
M  V30 33 C -0.621063 -0.309797 -5.298048 0
M  V30 34 N 0.462477 -0.887199 -4.735180 0
M  V30 35 C 0.636360 -0.820329 -3.403542 0
M  V30 36 C 1.749820 -1.481457 -2.956567 0
M  V30 37 C 3.753567 -1.517209 2.698419 0
M  V30 38 C 2.946424 -0.935258 3.875444 0
M  V30 39 H 2.902040 -2.040655 6.988512 0
M  V30 40 H 3.565807 -0.565224 6.278831 0
M  V30 41 H 4.497503 -2.085015 6.254060 0
M  V30 42 H 4.082135 -3.557225 4.300563 0
M  V30 43 H 2.551742 -3.944570 5.112977 0
M  V30 44 H 2.224713 -4.381557 2.703458 0
M  V30 45 H 1.266001 -2.978100 3.250159 0
M  V30 46 H 4.315198 -3.901833 1.518050 0
M  V30 47 H 2.695609 -4.082973 0.842719 0
M  V30 48 H 4.504068 -3.494551 -0.821272 0
M  V30 49 H 4.722009 -1.959062 -0.021652 0
M  V30 50 H 1.182826 -0.816177 0.383022 0
M  V30 51 H 0.706666 1.193339 0.545607 0
M  V30 52 H -0.086443 3.219209 1.161231 0
M  V30 53 H -0.772818 2.974869 -0.457764 0
M  V30 54 H -2.333832 3.411264 2.049923 0
M  V30 55 H -2.881066 3.203393 0.325128 0
M  V30 56 H -2.585031 -0.173075 2.523840 0
M  V30 57 H -2.219515 1.362061 3.420132 0
M  V30 58 H -0.315469 -0.350698 2.271344 0
M  V30 59 H -0.081502 1.325575 2.701197 0
M  V30 60 H -2.478969 1.768001 -1.670165 0
M  V30 61 H -4.869790 -2.993296 -1.536264 0
M  V30 62 H -6.937069 -1.836875 -1.954723 0
M  V30 63 H -6.932425 2.939456 -3.262579 0
M  V30 64 H -6.378966 1.701406 -4.444767 0
M  V30 65 H -0.731960 -0.387610 -6.373397 0
M  V30 66 H 2.467917 -1.984951 -3.566490 0
M  V30 67 H 4.652726 -2.034330 3.126416 0
M  V30 68 H 4.132925 -0.685594 2.128541 0
M  V30 69 H 1.911640 -0.733042 3.453971 0
M  V30 70 H 3.351797 0.029651 4.216808 0
M  V30 END ATOM
M  V30 BEGIN BOND
M  V30 1 1 1 2
M  V30 2 1 2 3
M  V30 3 1 3 4
M  V30 4 1 4 5
M  V30 5 1 5 6
M  V30 6 1 6 7
M  V30 7 1 7 8
M  V30 8 1 8 9
M  V30 9 2 9 10
M  V30 10 1 10 11
M  V30 11 1 11 12
M  V30 12 1 12 13
M  V30 13 1 13 14
M  V30 14 1 14 15
M  V30 15 1 15 16
M  V30 16 1 16 17
M  V30 17 1 17 18
M  V30 18 2 11 19
M  V30 19 1 19 20
M  V30 20 1 20 21
M  V30 21 1 21 22
M  V30 22 2 22 23
M  V30 23 1 23 24
M  V30 24 1 23 25
M  V30 25 2 25 26
M  V30 26 1 26 27
M  V30 27 2 27 28
M  V30 28 1 28 29
M  V30 29 1 29 30
M  V30 30 1 30 31
M  V30 31 2 20 32
M  V30 32 1 32 33
M  V30 33 2 33 34
M  V30 34 1 34 35
M  V30 35 2 35 36
M  V30 36 1 5 37
M  V30 37 1 37 38
M  V30 38 1 38 2
M  V30 39 1 36 9
M  V30 40 1 18 13
M  V30 41 1 35 19
M  V30 42 1 28 22
M  V30 43 1 31 27
M  V30 44 1 1 39
M  V30 45 1 1 40
M  V30 46 1 1 41
M  V30 47 1 3 42
M  V30 48 1 3 43
M  V30 49 1 4 44
M  V30 50 1 4 45
M  V30 51 1 6 46
M  V30 52 1 6 47
M  V30 53 1 7 48
M  V30 54 1 7 49
M  V30 55 1 10 50
M  V30 56 1 13 51
M  V30 57 1 14 52
M  V30 58 1 14 53
M  V30 59 1 15 54
M  V30 60 1 15 55
M  V30 61 1 17 56
M  V30 62 1 17 57
M  V30 63 1 18 58
M  V30 64 1 18 59
M  V30 65 1 21 60
M  V30 66 1 25 61
M  V30 67 1 26 62
M  V30 68 1 30 63
M  V30 69 1 30 64
M  V30 70 1 33 65
M  V30 71 1 36 66
M  V30 72 1 37 67
M  V30 73 1 37 68
M  V30 74 1 38 69
M  V30 75 1 38 70
M  V30 END BOND
M  V30 END CTAB
M  END
>  <Dataset>  (143) 
ChEMBL_Kinases

>  <Ligand_Instance>  (143) 
nan

>  <PDB_ID>  (143) 
nan

>  <Standardized_SMILES>  (143) 
CN1CCN(CCOc2cc(OC3CCOCC3)c3c(Nc4c(Cl)ccc5c4OCO5)ncnc3c2)CC1

>  <Name>  (143) 
SARACATINIB

>  <Pocket>  (143) 
nan

>  <ATP_Site>  (143) 
nan

>  <Peripheral>  (143) 
nan

>  <Num_H_Atoms_ProtBoundConf>  (143) 
nan

>  <Num_Resolved_Atoms>  (143) 
nan

>  <Num_Not_Resolved_Atoms>  (143) 
nan

$$$$
CHEMBL180022
     RDKit          3D

  0  0  0  0  0  0  0  0  0  0999 V3000
M  V30 BEGIN CTAB
M  V30 COUNTS 69 72 0 0 0
M  V30 BEGIN ATOM
M  V30 1 C 2.854938 1.793637 5.906506 0
M  V30 2 C 2.436053 0.341243 5.929005 0
M  V30 3 O 1.620988 0.131324 4.806233 0
M  V30 4 C 1.989024 0.308454 3.485366 0
M  V30 5 C 3.211615 0.717987 2.992710 0
M  V30 6 C 3.421834 0.846875 1.637722 0
M  V30 7 N 4.623887 1.251932 1.174409 0
M  V30 8 C 4.788311 1.370847 -0.173630 0
M  V30 9 C 3.788897 1.097702 -1.092823 0
M  V30 10 C 4.032592 1.245093 -2.505262 0
M  V30 11 N 4.218845 1.362938 -3.637288 0
M  V30 12 C 2.562691 0.681205 -0.567093 0
M  V30 13 N 1.523058 0.400749 -1.457239 0
M  V30 14 C 1.123447 -0.765422 -2.151259 0
M  V30 15 C -0.009192 -0.633986 -2.924120 0
M  V30 16 C -0.398125 -1.765806 -3.608020 0
M  V30 17 C 0.245720 -2.980241 -3.574084 0
M  V30 18 O 0.103737 -4.175480 -4.102942 0
M  V30 19 C -0.626095 -4.965456 -4.920776 0
M  V30 20 C -0.724326 -4.562408 -6.357554 0
M  V30 21 C -1.367973 -3.463620 -6.850535 0
M  V30 22 C -1.446523 -3.151588 -8.184233 0
M  V30 23 C -0.868669 -3.941570 -9.125267 0
M  V30 24 C -0.227574 -5.040755 -8.594936 0
M  V30 25 N -0.156085 -5.337608 -7.294897 0
M  V30 26 C 1.394486 -3.040615 -2.761578 0
M  V30 27 Cl 2.450885 -4.429601 -2.488140 0
M  V30 28 C 1.857935 -1.928215 -2.031098 0
M  V30 29 C 2.362201 0.550393 0.805549 0
M  V30 30 C 1.118043 0.136762 1.233542 0
M  V30 31 C 0.943340 0.017696 2.610205 0
M  V30 32 N -0.357691 -0.415590 3.008963 0
M  V30 33 C -1.400130 0.522003 3.274199 0
M  V30 34 O -1.267843 1.770559 3.184555 0
M  V30 35 C -2.697947 -0.002758 3.673942 0
M  V30 36 C -3.736370 0.771064 3.946212 0
M  V30 37 C -5.105623 0.404130 4.359924 0
M  V30 38 N -5.415537 0.988493 5.675053 0
M  V30 39 C -4.602052 0.348110 6.703692 0
M  V30 40 C -5.261545 2.413306 5.697394 0
M  V30 41 H 2.356615 2.305446 6.749691 0
M  V30 42 H 2.525227 2.331624 4.995186 0
M  V30 43 H 3.965145 1.851297 6.023822 0
M  V30 44 H 1.915293 0.127428 6.870428 0
M  V30 45 H 3.356985 -0.304807 5.824470 0
M  V30 46 H 3.969866 0.921303 3.735252 0
M  V30 47 H 5.768242 1.697765 -0.491338 0
M  V30 48 H 1.052443 1.327520 -1.509939 0
M  V30 49 H -0.599741 0.261977 -3.035380 0
M  V30 50 H -1.270900 -1.776107 -4.230399 0
M  V30 51 H -1.694203 -5.103810 -4.549168 0
M  V30 52 H -0.199229 -6.018969 -4.928883 0
M  V30 53 H -1.861759 -2.794181 -6.187520 0
M  V30 54 H -1.985476 -2.245862 -8.513921 0
M  V30 55 H -0.880649 -3.770114 -10.187284 0
M  V30 56 H 0.277225 -5.757441 -9.258166 0
M  V30 57 H 2.713090 -1.878803 -1.391175 0
M  V30 58 H 0.318305 -0.085083 0.522380 0
M  V30 59 H -0.490692 -1.447237 3.093106 0
M  V30 60 H -2.911409 -1.055387 3.778313 0
M  V30 61 H -3.631919 1.845794 3.871304 0
M  V30 62 H -5.105080 -0.705098 4.561114 0
M  V30 63 H -5.883060 0.600924 3.615412 0
M  V30 64 H -3.923988 1.038476 7.208087 0
M  V30 65 H -5.327906 0.002927 7.494897 0
M  V30 66 H -4.090888 -0.537546 6.257434 0
M  V30 67 H -4.309595 2.745256 6.206023 0
M  V30 68 H -5.374730 2.915884 4.720787 0
M  V30 69 H -6.071603 2.829261 6.357384 0
M  V30 END ATOM
M  V30 BEGIN BOND
M  V30 1 1 1 2
M  V30 2 1 2 3
M  V30 3 1 3 4
M  V30 4 2 4 5
M  V30 5 1 5 6
M  V30 6 2 6 7
M  V30 7 1 7 8
M  V30 8 2 8 9
M  V30 9 1 9 10
M  V30 10 3 10 11
M  V30 11 1 9 12
M  V30 12 1 12 13
M  V30 13 1 13 14
M  V30 14 2 14 15
M  V30 15 1 15 16
M  V30 16 2 16 17
M  V30 17 1 17 18
M  V30 18 1 18 19
M  V30 19 1 19 20
M  V30 20 2 20 21
M  V30 21 1 21 22
M  V30 22 2 22 23
M  V30 23 1 23 24
M  V30 24 2 24 25
M  V30 25 1 17 26
M  V30 26 1 26 27
M  V30 27 2 26 28
M  V30 28 2 12 29
M  V30 29 1 29 30
M  V30 30 2 30 31
M  V30 31 1 31 32
M  V30 32 1 32 33
M  V30 33 2 33 34
M  V30 34 1 33 35
M  V30 35 2 35 36
M  V30 36 1 36 37
M  V30 37 1 37 38
M  V30 38 1 38 39
M  V30 39 1 38 40
M  V30 40 1 31 4
M  V30 41 1 29 6
M  V30 42 1 28 14
M  V30 43 1 25 20
M  V30 44 1 1 41
M  V30 45 1 1 42
M  V30 46 1 1 43
M  V30 47 1 2 44
M  V30 48 1 2 45
M  V30 49 1 5 46
M  V30 50 1 8 47
M  V30 51 1 13 48
M  V30 52 1 15 49
M  V30 53 1 16 50
M  V30 54 1 19 51
M  V30 55 1 19 52
M  V30 56 1 21 53
M  V30 57 1 22 54
M  V30 58 1 23 55
M  V30 59 1 24 56
M  V30 60 1 28 57
M  V30 61 1 30 58
M  V30 62 1 32 59
M  V30 63 1 35 60
M  V30 64 1 36 61
M  V30 65 1 37 62
M  V30 66 1 37 63
M  V30 67 1 39 64
M  V30 68 1 39 65
M  V30 69 1 39 66
M  V30 70 1 40 67
M  V30 71 1 40 68
M  V30 72 1 40 69
M  V30 END BOND
M  V30 END CTAB
M  END
>  <Dataset>  (144) 
ChEMBL_Kinases

>  <Ligand_Instance>  (144) 
nan

>  <PDB_ID>  (144) 
nan

>  <Standardized_SMILES>  (144) 
CCOc1cc2ncc(C#N)c(Nc3ccc(OCc4ccccn4)c(Cl)c3)c2cc1NC(=O)/C=C/CN(C)C

>  <Name>  (144) 
NERATINIB

>  <Pocket>  (144) 
nan

>  <ATP_Site>  (144) 
nan

>  <Peripheral>  (144) 
nan

>  <Num_H_Atoms_ProtBoundConf>  (144) 
nan

>  <Num_Resolved_Atoms>  (144) 
nan

>  <Num_Not_Resolved_Atoms>  (144) 
nan

$$$$
CHEMBL2386747
     RDKit          3D

  0  0  0  0  0  0  0  0  0  0999 V3000
M  V30 BEGIN CTAB
M  V30 COUNTS 37 40 0 0 0
M  V30 BEGIN ATOM
M  V30 1 C 3.581675 -3.347214 4.260798 0
M  V30 2 O 4.082726 -3.267759 2.939823 0
M  V30 3 C 3.324683 -3.053626 1.806920 0
M  V30 4 N 2.982471 -4.288364 1.690851 0
M  V30 5 C 2.946227 -1.907882 0.927350 0
M  V30 6 N 3.373491 -1.294653 0.093670 0
M  V30 7 C 2.877578 -0.289825 -0.581172 0
M  V30 8 C 3.404456 0.465611 -1.605936 0
M  V30 9 C 2.691684 1.488173 -2.171518 0
M  V30 10 C 1.405764 1.859487 -1.784933 0
M  V30 11 N 0.660498 2.834113 -2.285958 0
M  V30 12 C -0.570369 3.119889 -1.849736 0
M  V30 13 N -1.076108 2.378389 -0.852539 0
M  V30 14 C -0.436259 1.362765 -0.252683 0
M  V30 15 N -1.028526 0.584809 0.814251 0
M  V30 16 C -2.269050 -0.135126 0.845869 0
M  V30 17 C -2.375042 -1.499596 1.049598 0
M  V30 18 C -3.544958 -2.220294 1.085472 0
M  V30 19 C -4.723009 -1.540037 0.904787 0
M  V30 20 Cl -6.234316 -2.441865 0.945074 0
M  V30 21 C -4.714220 -0.177917 0.695781 0
M  V30 22 C -3.497464 0.466994 0.674739 0
M  V30 23 Cl -3.600527 2.193169 0.419528 0
M  V30 24 C 0.826570 1.116096 -0.743284 0
M  V30 25 C 1.612829 0.096915 -0.221706 0
M  V30 26 S 1.259665 -1.046493 1.074936 0
M  V30 27 H 4.330396 -3.905809 4.866498 0
M  V30 28 H 3.424061 -2.319316 4.688781 0
M  V30 29 H 2.604533 -3.867943 4.297776 0
M  V30 30 H 3.267368 -5.035859 2.315927 0
M  V30 31 H 4.405503 0.324820 -2.049227 0
M  V30 32 H 3.103771 2.100936 -2.995248 0
M  V30 33 H -1.101792 3.933609 -2.319865 0
M  V30 34 H -0.677965 0.401518 1.757269 0
M  V30 35 H -1.487037 -2.091510 1.197782 0
M  V30 36 H -3.565068 -3.279086 1.246968 0
M  V30 37 H -5.666589 0.326456 0.556328 0
M  V30 END ATOM
M  V30 BEGIN BOND
M  V30 1 1 1 2
M  V30 2 1 2 3
M  V30 3 2 3 4 CFG=2
M  V30 4 1 3 5
M  V30 5 2 5 6
M  V30 6 1 6 7
M  V30 7 2 7 8
M  V30 8 1 8 9
M  V30 9 2 9 10
M  V30 10 1 10 11
M  V30 11 2 11 12
M  V30 12 1 12 13
M  V30 13 2 13 14
M  V30 14 1 14 15
M  V30 15 1 15 16
M  V30 16 2 16 17
M  V30 17 1 17 18
M  V30 18 2 18 19
M  V30 19 1 19 20
M  V30 20 1 19 21
M  V30 21 2 21 22
M  V30 22 1 22 23
M  V30 23 1 14 24
M  V30 24 2 24 25
M  V30 25 1 25 26
M  V30 26 1 26 5
M  V30 27 1 25 7
M  V30 28 1 24 10
M  V30 29 1 22 16
M  V30 30 1 1 27
M  V30 31 1 1 28
M  V30 32 1 1 29
M  V30 33 1 4 30
M  V30 34 1 8 31
M  V30 35 1 9 32
M  V30 36 1 12 33
M  V30 37 1 15 34
M  V30 38 1 17 35
M  V30 39 1 18 36
M  V30 40 1 21 37
M  V30 END BOND
M  V30 END CTAB
M  END
>  <Dataset>  (145) 
ChEMBL_Kinases

>  <Ligand_Instance>  (145) 
nan

>  <PDB_ID>  (145) 
nan

>  <Standardized_SMILES>  (145) 
COC(=N)c1nc2ccc3ncnc(Nc4ccc(Cl)cc4Cl)c3c2s1

>  <Name>  (145) 
nan

>  <Pocket>  (145) 
nan

>  <ATP_Site>  (145) 
nan

>  <Peripheral>  (145) 
nan

>  <Num_H_Atoms_ProtBoundConf>  (145) 
nan

>  <Num_Resolved_Atoms>  (145) 
nan

>  <Num_Not_Resolved_Atoms>  (145) 
nan

$$$$
CHEMBL223367
     RDKit          3D

  0  0  0  0  0  0  0  0  0  0999 V3000
M  V30 BEGIN CTAB
M  V30 COUNTS 52 54 0 0 0
M  V30 BEGIN ATOM
M  V30 1 N 5.676856 -0.258123 4.693259 0
M  V30 2 C 5.115083 -1.037511 4.036737 0
M  V30 3 C 4.430569 -2.014951 3.244410 0
M  V30 4 N 4.980233 -3.123207 2.731693 0
M  V30 5 C 4.194512 -3.937871 2.005171 0
M  V30 6 C 2.890212 -3.606401 1.824122 0
M  V30 7 N 2.337197 -2.498226 2.336711 0
M  V30 8 C 3.111267 -1.682261 3.059395 0
M  V30 9 O 2.266297 -0.657994 3.430959 0
M  V30 10 C 1.790504 0.165354 2.340718 0
M  V30 11 C 0.878229 1.238803 2.764623 0
M  V30 12 C -0.358915 0.963835 3.485986 0
M  V30 13 C -1.542218 0.316380 2.908576 0
M  V30 14 C -1.505433 -1.061645 2.373747 0
M  V30 15 O -0.812764 -1.378866 1.243982 0
M  V30 16 C -0.852285 -1.035148 -0.059330 0
M  V30 17 C -1.160353 0.145348 -0.683099 0
M  V30 18 C -1.169025 0.381586 -2.033191 0
M  V30 19 C -1.512593 1.707636 -2.575511 0
M  V30 20 C -2.898244 1.672176 -3.153502 0
M  V30 21 C -3.934747 1.310857 -2.120326 0
M  V30 22 O -3.742454 0.076607 -1.557630 0
M  V30 23 C -0.836868 -0.662896 -2.856353 0
M  V30 24 Cl -0.847686 -0.354904 -4.579401 0
M  V30 25 C -0.510108 -1.891795 -2.336124 0
M  V30 26 C -0.521166 -2.059468 -0.973005 0
M  V30 27 N -0.124629 -3.425487 -0.651650 0
M  V30 28 C 0.880410 -4.059025 0.177125 0
M  V30 29 O 0.939167 -2.807610 0.210245 0
M  V30 30 N 1.954892 -4.361422 1.059572 0
M  V30 31 H 4.447437 -4.858874 1.515851 0
M  V30 32 H 1.525838 -0.447247 1.480706 0
M  V30 33 H 2.775455 0.676847 1.981070 0
M  V30 34 H 0.677397 1.860131 1.814481 0
M  V30 35 H 1.540237 1.992306 3.331716 0
M  V30 36 H -0.742338 1.988034 3.880018 0
M  V30 37 H -0.090814 0.484562 4.500182 0
M  V30 38 H -2.087805 1.017480 2.179771 0
M  V30 39 H -2.371751 0.262259 3.732713 0
M  V30 40 H -1.117063 -1.701310 3.257992 0
M  V30 41 H -2.591573 -1.449281 2.315351 0
M  V30 42 H -1.418299 0.970610 -0.042239 0
M  V30 43 H -1.472598 2.486593 -1.777857 0
M  V30 44 H -0.799921 1.940121 -3.392867 0
M  V30 45 H -3.182909 2.658767 -3.603921 0
M  V30 46 H -2.964021 0.909525 -3.959158 0
M  V30 47 H -3.957586 2.079900 -1.297412 0
M  V30 48 H -4.936311 1.324754 -2.598757 0
M  V30 49 H -4.076809 0.067788 -0.626327 0
M  V30 50 H -0.267588 -2.638661 -3.074031 0
M  V30 51 H -0.678197 -4.189917 -1.118420 0
M  V30 52 H 2.037625 -5.394703 1.136916 0
M  V30 END ATOM
M  V30 BEGIN BOND
M  V30 1 3 1 2
M  V30 2 1 2 3
M  V30 3 2 3 4
M  V30 4 1 4 5
M  V30 5 2 5 6
M  V30 6 1 6 7
M  V30 7 2 7 8
M  V30 8 1 8 9
M  V30 9 1 9 10
M  V30 10 1 10 11
M  V30 11 1 11 12
M  V30 12 1 12 13
M  V30 13 1 13 14
M  V30 14 1 14 15
M  V30 15 1 15 16
M  V30 16 2 16 17
M  V30 17 1 17 18
M  V30 18 1 18 19
M  V30 19 1 19 20
M  V30 20 1 20 21
M  V30 21 1 21 22
M  V30 22 2 18 23
M  V30 23 1 23 24
M  V30 24 1 23 25
M  V30 25 2 25 26
M  V30 26 1 26 27
M  V30 27 1 27 28
M  V30 28 2 28 29
M  V30 29 1 28 30
M  V30 30 1 8 3
M  V30 31 1 26 16
M  V30 32 1 30 6
M  V30 33 1 5 31
M  V30 34 1 10 32
M  V30 35 1 10 33
M  V30 36 1 11 34
M  V30 37 1 11 35
M  V30 38 1 12 36
M  V30 39 1 12 37
M  V30 40 1 13 38
M  V30 41 1 13 39
M  V30 42 1 14 40
M  V30 43 1 14 41
M  V30 44 1 17 42
M  V30 45 1 19 43
M  V30 46 1 19 44
M  V30 47 1 20 45
M  V30 48 1 20 46
M  V30 49 1 21 47
M  V30 50 1 21 48
M  V30 51 1 22 49
M  V30 52 1 25 50
M  V30 53 1 27 51
M  V30 54 1 30 52
M  V30 END BOND
M  V30 END CTAB
M  END
>  <Dataset>  (146) 
ChEMBL_Kinases

>  <Ligand_Instance>  (146) 
nan

>  <PDB_ID>  (146) 
nan

>  <Standardized_SMILES>  (146) 
N#Cc1ncc2nc1OCCCCCOc1cc(CCCO)c(Cl)cc1NC(=O)N2

>  <Name>  (146) 
nan

>  <Pocket>  (146) 
nan

>  <ATP_Site>  (146) 
nan

>  <Peripheral>  (146) 
nan

>  <Num_H_Atoms_ProtBoundConf>  (146) 
nan

>  <Num_Resolved_Atoms>  (146) 
nan

>  <Num_Not_Resolved_Atoms>  (146) 
nan

$$$$
CHEMBL1976040
     RDKit          3D

  0  0  0  0  0  0  0  0  0  0999 V3000
M  V30 BEGIN CTAB
M  V30 COUNTS 69 73 0 0 0
M  V30 BEGIN ATOM
M  V30 1 C 3.121232 -4.591905 5.453962 0
M  V30 2 C 4.047239 -3.775717 4.982213 0
M  V30 3 C 4.393202 -3.628002 3.539250 0
M  V30 4 N 4.193158 -2.279330 3.056583 0
M  V30 5 C 5.097440 -1.269271 3.053209 0
M  V30 6 O 6.285262 -1.301348 3.467569 0
M  V30 7 C 4.504739 -0.150406 2.506575 0
M  V30 8 C 4.866781 1.148756 2.229110 0
M  V30 9 N 3.985423 1.987352 1.670143 0
M  V30 10 C 2.734507 1.628996 1.354604 0
M  V30 11 N 1.868011 2.577498 0.764468 0
M  V30 12 C 0.518996 2.428057 0.353291 0
M  V30 13 C -0.178380 3.463146 -0.232346 0
M  V30 14 C -1.486150 3.348846 -0.641578 0
M  V30 15 C -2.173923 2.184807 -0.486794 0
M  V30 16 N -3.530084 2.049098 -0.910817 0
M  V30 17 C -4.411337 0.930745 -0.747010 0
M  V30 18 C -4.798261 0.320278 -2.098311 0
M  V30 19 N -4.849127 1.355638 -3.116825 0
M  V30 20 C -5.765883 1.022794 -4.179141 0
M  V30 21 C -5.314411 2.589115 -2.497470 0
M  V30 22 C -4.218388 3.117280 -1.616984 0
M  V30 23 C -1.535057 1.126821 0.086492 0
M  V30 24 C -0.225216 1.277701 0.484300 0
M  V30 25 N 2.415836 0.362578 1.636832 0
M  V30 26 C 3.225587 -0.547125 2.193288 0
M  V30 27 N 3.048118 -1.839348 2.531082 0
M  V30 28 C 1.803672 -2.522817 2.318007 0
M  V30 29 C 0.897251 -2.977788 3.251418 0
M  V30 30 C -0.239607 -3.612588 2.794197 0
M  V30 31 C -0.428257 -3.768668 1.436862 0
M  V30 32 C 0.491187 -3.307218 0.490978 0
M  V30 33 C 0.240895 -3.500346 -0.947587 0
M  V30 34 C -0.533861 -2.261974 -1.407229 0
M  V30 35 C 1.570765 -3.446258 -1.685751 0
M  V30 36 O -0.408606 -4.674464 -1.258108 0
M  V30 37 N 1.573467 -2.699733 1.002740 0
M  V30 38 H 2.716419 -5.083020 4.577878 0
M  V30 39 H 2.456399 -5.282844 4.948012 0
M  V30 40 H 4.534331 -3.217346 5.774573 0
M  V30 41 H 3.755480 -4.363031 3.007294 0
M  V30 42 H 5.483999 -3.907095 3.469912 0
M  V30 43 H 5.871031 1.469716 2.472044 0
M  V30 44 H 2.269621 3.543276 0.599515 0
M  V30 45 H 0.338776 4.425386 -0.377588 0
M  V30 46 H -1.933377 4.233715 -1.089489 0
M  V30 47 H -4.059580 0.118486 -0.117968 0
M  V30 48 H -5.392630 1.274794 -0.307102 0
M  V30 49 H -5.773570 -0.173359 -2.051092 0
M  V30 50 H -4.002602 -0.386432 -2.380755 0
M  V30 51 H -6.004310 -0.065285 -4.204103 0
M  V30 52 H -5.313889 1.324483 -5.153425 0
M  V30 53 H -6.712884 1.588746 -4.072269 0
M  V30 54 H -5.446023 3.305380 -3.358843 0
M  V30 55 H -6.229074 2.461570 -1.919197 0
M  V30 56 H -4.638785 3.850145 -0.878790 0
M  V30 57 H -3.462023 3.613253 -2.260929 0
M  V30 58 H -2.061254 0.196157 0.217951 0
M  V30 59 H 0.210168 0.400885 0.927715 0
M  V30 60 H 1.196990 -2.774742 4.271142 0
M  V30 61 H -0.914838 -3.948740 3.552769 0
M  V30 62 H -1.316831 -4.264659 1.086727 0
M  V30 63 H -0.443422 -2.115616 -2.507059 0
M  V30 64 H -0.030672 -1.392351 -0.912702 0
M  V30 65 H -1.577261 -2.334107 -1.066032 0
M  V30 66 H 2.391625 -3.800819 -1.006241 0
M  V30 67 H 1.565330 -4.152312 -2.534035 0
M  V30 68 H 1.854852 -2.430011 -1.990444 0
M  V30 69 H -0.509382 -4.685201 -2.244366 0
M  V30 END ATOM
M  V30 BEGIN BOND
M  V30 1 2 1 2
M  V30 2 1 2 3
M  V30 3 1 3 4
M  V30 4 1 4 5
M  V30 5 2 5 6
M  V30 6 1 5 7
M  V30 7 2 7 8
M  V30 8 1 8 9
M  V30 9 2 9 10
M  V30 10 1 10 11
M  V30 11 1 11 12
M  V30 12 2 12 13
M  V30 13 1 13 14
M  V30 14 2 14 15
M  V30 15 1 15 16
M  V30 16 1 16 17
M  V30 17 1 17 18
M  V30 18 1 18 19
M  V30 19 1 19 20
M  V30 20 1 19 21
M  V30 21 1 21 22
M  V30 22 1 15 23
M  V30 23 2 23 24
M  V30 24 1 10 25
M  V30 25 2 25 26
M  V30 26 1 26 27
M  V30 27 1 27 28
M  V30 28 2 28 29
M  V30 29 1 29 30
M  V30 30 2 30 31
M  V30 31 1 31 32
M  V30 32 1 32 33
M  V30 33 1 33 34
M  V30 34 1 33 35
M  V30 35 1 33 36
M  V30 36 2 32 37
M  V30 37 1 27 4
M  V30 38 1 37 28
M  V30 39 1 26 7
M  V30 40 1 24 12
M  V30 41 1 22 16
M  V30 42 1 1 38
M  V30 43 1 1 39
M  V30 44 1 2 40
M  V30 45 1 3 41
M  V30 46 1 3 42
M  V30 47 1 8 43
M  V30 48 1 11 44
M  V30 49 1 13 45
M  V30 50 1 14 46
M  V30 51 1 17 47
M  V30 52 1 17 48
M  V30 53 1 18 49
M  V30 54 1 18 50
M  V30 55 1 20 51
M  V30 56 1 20 52
M  V30 57 1 20 53
M  V30 58 1 21 54
M  V30 59 1 21 55
M  V30 60 1 22 56
M  V30 61 1 22 57
M  V30 62 1 23 58
M  V30 63 1 24 59
M  V30 64 1 29 60
M  V30 65 1 30 61
M  V30 66 1 31 62
M  V30 67 1 34 63
M  V30 68 1 34 64
M  V30 69 1 34 65
M  V30 70 1 35 66
M  V30 71 1 35 67
M  V30 72 1 35 68
M  V30 73 1 36 69
M  V30 END BOND
M  V30 END CTAB
M  END
>  <Dataset>  (147) 
ChEMBL_Kinases

>  <Ligand_Instance>  (147) 
nan

>  <PDB_ID>  (147) 
nan

>  <Standardized_SMILES>  (147) 
C=CCn1c(=O)c2cnc(Nc3ccc(N4CCN(C)CC4)cc3)nc2n1-c1cccc(C(C)(C)O)n1

>  <Name>  (147) 
ADAVOSERTIB

>  <Pocket>  (147) 
nan

>  <ATP_Site>  (147) 
nan

>  <Peripheral>  (147) 
nan

>  <Num_H_Atoms_ProtBoundConf>  (147) 
nan

>  <Num_Resolved_Atoms>  (147) 
nan

>  <Num_Not_Resolved_Atoms>  (147) 
nan

$$$$
CHEMBL1349996
     RDKit          3D

  0  0  0  0  0  0  0  0  0  0999 V3000
M  V30 BEGIN CTAB
M  V30 COUNTS 32 33 0 0 0
M  V30 BEGIN ATOM
M  V30 1 C -2.050578 -1.857965 0.713502 0
M  V30 2 C -0.850011 -1.396936 1.475943 0
M  V30 3 N 0.235216 -1.052879 0.569456 0
M  V30 4 C 0.974865 -1.975986 -0.205988 0
M  V30 5 C 0.887810 -3.273754 -0.045491 0
M  V30 6 C 0.102890 -4.103139 0.871451 0
M  V30 7 C 0.372830 -5.547320 0.637555 0
M  V30 8 O -0.709527 -4.377762 1.793438 0
M  V30 9 S 2.045208 -1.105415 -1.340140 0
M  V30 10 C 1.669718 0.498824 -0.601866 0
M  V30 11 C 2.224697 1.684776 -0.923456 0
M  V30 12 C 1.772224 2.808795 -0.303993 0
M  V30 13 C 0.773384 2.687157 0.618593 0
M  V30 14 O 0.335571 3.862563 1.231546 0
M  V30 15 C -0.695922 3.760949 2.188196 0
M  V30 16 C 0.262873 1.454430 0.891660 0
M  V30 17 C 0.673068 0.266616 0.303000 0
M  V30 18 H -1.827468 -2.308075 -0.281357 0
M  V30 19 H -2.677269 -2.514545 1.351784 0
M  V30 20 H -2.698135 -0.989382 0.470668 0
M  V30 21 H -1.209317 -0.434936 1.976063 0
M  V30 22 H -0.536491 -1.955665 2.346564 0
M  V30 23 H 1.550454 -3.790389 -0.761041 0
M  V30 24 H -0.547598 -6.002311 0.198338 0
M  V30 25 H 1.216388 -5.681035 -0.125834 0
M  V30 26 H 0.655124 -6.125394 1.527629 0
M  V30 27 H 3.010314 1.767104 -1.650852 0
M  V30 28 H 2.203041 3.770100 -0.546634 0
M  V30 29 H -0.369140 3.109659 3.033925 0
M  V30 30 H -0.970000 4.730143 2.620842 0
M  V30 31 H -1.590607 3.258801 1.722409 0
M  V30 32 H -0.535726 1.488673 1.651464 0
M  V30 END ATOM
M  V30 BEGIN BOND
M  V30 1 1 1 2
M  V30 2 1 2 3
M  V30 3 1 3 4
M  V30 4 2 4 5
M  V30 5 1 5 6
M  V30 6 1 6 7
M  V30 7 2 6 8
M  V30 8 1 4 9
M  V30 9 1 9 10
M  V30 10 2 10 11
M  V30 11 1 11 12
M  V30 12 2 12 13
M  V30 13 1 13 14
M  V30 14 1 14 15
M  V30 15 1 13 16
M  V30 16 2 16 17
M  V30 17 1 17 3
M  V30 18 1 17 10
M  V30 19 1 1 18
M  V30 20 1 1 19
M  V30 21 1 1 20
M  V30 22 1 2 21
M  V30 23 1 2 22
M  V30 24 1 5 23
M  V30 25 1 7 24
M  V30 26 1 7 25
M  V30 27 1 7 26
M  V30 28 1 11 27
M  V30 29 1 12 28
M  V30 30 1 15 29
M  V30 31 1 15 30
M  V30 32 1 15 31
M  V30 33 1 16 32
M  V30 END BOND
M  V30 END CTAB
M  END
>  <Dataset>  (148) 
ChEMBL_Kinases

>  <Ligand_Instance>  (148) 
nan

>  <PDB_ID>  (148) 
nan

>  <Standardized_SMILES>  (148) 
CCN1/C(=C\C(C)=O)Sc2ccc(OC)cc21

>  <Name>  (148) 
nan

>  <Pocket>  (148) 
nan

>  <ATP_Site>  (148) 
nan

>  <Peripheral>  (148) 
nan

>  <Num_H_Atoms_ProtBoundConf>  (148) 
nan

>  <Num_Resolved_Atoms>  (148) 
nan

>  <Num_Not_Resolved_Atoms>  (148) 
nan

$$$$
CHEMBL1231124
     RDKit          3D

  0  0  0  0  0  0  0  0  0  0999 V3000
M  V30 BEGIN CTAB
M  V30 COUNTS 38 40 0 0 0
M  V30 BEGIN ATOM
M  V30 1 C -0.149377 -6.409000 2.449695 0
M  V30 2 C 0.489317 -5.069037 2.392908 0
M  V30 3 C -0.269460 -3.916053 2.600213 0
M  V30 4 C 0.551509 -2.818054 2.495150 0
M  V30 5 N 0.341253 -1.390262 2.615092 0
M  V30 6 C -0.548543 -0.650226 1.761959 0
M  V30 7 N -0.400905 -0.317888 0.473413 0
M  V30 8 C -1.226248 0.371755 -0.291438 0
M  V30 9 N -0.706201 0.505034 -1.601402 0
M  V30 10 C 0.016639 1.607497 -2.236511 0 CFG=1
M  V30 11 C -0.963236 2.756654 -2.292418 0
M  V30 12 C 1.181981 1.954326 -1.373671 0
M  V30 13 N 0.759068 2.048204 -0.069877 0
M  V30 14 C 1.758311 2.368718 0.812497 0
M  V30 15 C 3.073109 2.603353 0.603706 0
M  V30 16 F 3.938558 2.907085 1.577887 0
M  V30 17 C 3.392966 2.481318 -0.759033 0
M  V30 18 N 2.471009 2.165319 -1.718099 0
M  V30 19 N -2.390940 0.819565 0.281169 0
M  V30 20 C -2.600150 0.512656 1.596444 0
M  V30 21 C -1.723187 -0.205901 2.359119 0
M  V30 22 Cl -2.121718 -0.520331 4.049306 0
M  V30 23 N 1.782760 -3.309054 2.228515 0
M  V30 24 N 1.748215 -4.647851 2.167575 0
M  V30 25 H -0.244372 -6.727408 3.489597 0
M  V30 26 H -1.199967 -6.347030 2.040988 0
M  V30 27 H 0.366343 -7.148033 1.804687 0
M  V30 28 H -1.316805 -3.805222 2.811714 0
M  V30 29 H 0.749023 -0.724036 3.283441 0
M  V30 30 H -0.948114 -0.396486 -2.100100 0
M  V30 31 H 0.392858 1.322556 -3.223299 0
M  V30 32 H -2.028432 2.387614 -2.225160 0
M  V30 33 H -0.925316 3.212243 -3.317705 0
M  V30 34 H -0.839997 3.468991 -1.479706 0
M  V30 35 H 1.445438 2.447279 1.870276 0
M  V30 36 H 4.421415 2.647944 -1.074050 0
M  V30 37 H -3.526046 0.878930 2.014570 0
M  V30 38 H 2.723964 -2.886303 2.064726 0
M  V30 END ATOM
M  V30 BEGIN BOND
M  V30 1 1 1 2
M  V30 2 1 2 3
M  V30 3 2 3 4
M  V30 4 1 4 5
M  V30 5 1 5 6
M  V30 6 2 6 7
M  V30 7 1 7 8
M  V30 8 1 8 9
M  V30 9 1 9 10
M  V30 10 1 10 11
M  V30 11 1 10 12
M  V30 12 2 12 13
M  V30 13 1 13 14
M  V30 14 2 14 15
M  V30 15 1 15 16
M  V30 16 1 15 17
M  V30 17 2 17 18
M  V30 18 2 8 19
M  V30 19 1 19 20
M  V30 20 2 20 21
M  V30 21 1 21 22
M  V30 22 1 4 23
M  V30 23 1 23 24
M  V30 24 2 24 2
M  V30 25 1 21 6
M  V30 26 1 18 12
M  V30 27 1 1 25
M  V30 28 1 1 26
M  V30 29 1 1 27
M  V30 30 1 3 28
M  V30 31 1 5 29
M  V30 32 1 9 30
M  V30 33 1 10 31 CFG=3
M  V30 34 1 11 32
M  V30 35 1 11 33
M  V30 36 1 11 34
M  V30 37 1 14 35
M  V30 38 1 17 36
M  V30 39 1 20 37
M  V30 40 1 23 38
M  V30 END BOND
M  V30 END CTAB
M  END
>  <Dataset>  (149) 
ChEMBL_Kinases

>  <Ligand_Instance>  (149) 
nan

>  <PDB_ID>  (149) 
nan

>  <Standardized_SMILES>  (149) 
Cc1cc(Nc2nc(N[C@@H](C)c3ncc(F)cn3)ncc2Cl)[nH]n1

>  <Name>  (149) 
AZD-1480

>  <Pocket>  (149) 
nan

>  <ATP_Site>  (149) 
nan

>  <Peripheral>  (149) 
nan

>  <Num_H_Atoms_ProtBoundConf>  (149) 
nan

>  <Num_Resolved_Atoms>  (149) 
nan

>  <Num_Not_Resolved_Atoms>  (149) 
nan

$$$$
CHEMBL2334586
     RDKit          3D

  0  0  0  0  0  0  0  0  0  0999 V3000
M  V30 BEGIN CTAB
M  V30 COUNTS 45 48 0 0 0
M  V30 BEGIN ATOM
M  V30 1 C 2.913531 -3.929872 4.860221 0
M  V30 2 C 2.820631 -4.329918 3.403596 0
M  V30 3 C 1.653856 -5.286717 3.269223 0
M  V30 4 O 3.971182 -5.014970 3.016003 0
M  V30 5 C 2.625026 -3.116757 2.623229 0
M  V30 6 C 2.443620 -2.110756 1.981848 0
M  V30 7 C 2.206808 -0.910949 1.228014 0
M  V30 8 C 3.304765 -0.110446 0.940598 0
M  V30 9 C 3.155225 1.061766 0.218124 0
M  V30 10 C 1.905920 1.453432 -0.229049 0
M  V30 11 N 1.452986 2.513673 -0.938266 0
M  V30 12 C 0.121611 2.419548 -1.111404 0
M  V30 13 C -0.258838 1.253549 -0.482497 0
M  V30 14 C 0.836500 0.636022 0.073428 0
M  V30 15 C 0.962784 -0.513208 0.778105 0
M  V30 16 C -1.623783 0.750345 -0.414893 0
M  V30 17 N -1.801835 -0.256259 0.451478 0
M  V30 18 C -2.954628 -0.884353 0.694572 0
M  V30 19 N -3.097957 -1.950787 1.625380 0
M  V30 20 N -4.035939 -0.477856 0.015357 0
M  V30 21 C -3.957243 0.524787 -0.875684 0
M  V30 22 C -2.753166 1.147824 -1.099426 0
M  V30 23 C -2.752770 2.262349 -2.108882 0
M  V30 24 C -2.079711 3.496774 -1.501394 0
M  V30 25 C -0.609408 3.453027 -1.855268 0
M  V30 26 H 1.987301 -4.227788 5.419486 0
M  V30 27 H 3.771943 -4.440028 5.362574 0
M  V30 28 H 3.006822 -2.836364 4.971434 0
M  V30 29 H 1.425641 -5.836014 4.194702 0
M  V30 30 H 0.708386 -4.755505 3.005862 0
M  V30 31 H 1.879746 -5.970045 2.439012 0
M  V30 32 H 3.805976 -5.386851 2.109433 0
M  V30 33 H 4.318780 -0.334037 1.247543 0
M  V30 34 H 3.993633 1.707136 -0.021663 0
M  V30 35 H 2.082349 3.292343 -1.293537 0
M  V30 36 H 0.181730 -1.200096 1.049626 0
M  V30 37 H -2.374381 -2.211897 2.329996 0
M  V30 38 H -2.289068 -2.093264 2.270038 0
M  V30 39 H -4.797584 0.890353 -1.448769 0
M  V30 40 H -2.133565 1.945464 -2.966723 0
M  V30 41 H -3.758598 2.450388 -2.476333 0
M  V30 42 H -2.544026 4.413825 -1.916933 0
M  V30 43 H -2.206481 3.485630 -0.383701 0
M  V30 44 H -0.136572 4.453496 -1.784666 0
M  V30 45 H -0.542368 3.200005 -2.949646 0
M  V30 END ATOM
M  V30 BEGIN BOND
M  V30 1 1 1 2
M  V30 2 1 2 3
M  V30 3 1 2 4
M  V30 4 1 2 5
M  V30 5 3 5 6
M  V30 6 1 6 7
M  V30 7 2 7 8
M  V30 8 1 8 9
M  V30 9 2 9 10
M  V30 10 1 10 11
M  V30 11 1 11 12
M  V30 12 2 12 13
M  V30 13 1 13 14
M  V30 14 2 14 15
M  V30 15 1 13 16
M  V30 16 2 16 17
M  V30 17 1 17 18
M  V30 18 1 18 19
M  V30 19 2 18 20
M  V30 20 1 20 21
M  V30 21 2 21 22
M  V30 22 1 22 23
M  V30 23 1 23 24
M  V30 24 1 24 25
M  V30 25 1 15 7
M  V30 26 1 22 16
M  V30 27 1 14 10
M  V30 28 1 25 12
M  V30 29 1 1 26
M  V30 30 1 1 27
M  V30 31 1 1 28
M  V30 32 1 3 29
M  V30 33 1 3 30
M  V30 34 1 3 31
M  V30 35 1 4 32
M  V30 36 1 8 33
M  V30 37 1 9 34
M  V30 38 1 11 35
M  V30 39 1 15 36
M  V30 40 1 19 37
M  V30 41 1 19 38
M  V30 42 1 21 39
M  V30 43 1 23 40
M  V30 44 1 23 41
M  V30 45 1 24 42
M  V30 46 1 24 43
M  V30 47 1 25 44
M  V30 48 1 25 45
M  V30 END BOND
M  V30 END CTAB
M  END
>  <Dataset>  (150) 
ChEMBL_Kinases

>  <Ligand_Instance>  (150) 
nan

>  <PDB_ID>  (150) 
nan

>  <Standardized_SMILES>  (150) 
CC(C)(O)C#Cc1ccc2[nH]c3c(c2c1)-c1nc(N)ncc1CCC3

>  <Name>  (150) 
nan

>  <Pocket>  (150) 
nan

>  <ATP_Site>  (150) 
nan

>  <Peripheral>  (150) 
nan

>  <Num_H_Atoms_ProtBoundConf>  (150) 
nan

>  <Num_Resolved_Atoms>  (150) 
nan

>  <Num_Not_Resolved_Atoms>  (150) 
nan

$$$$
CHEMBL225519
     RDKit          3D

  0  0  0  0  0  0  0  0  0  0999 V3000
M  V30 BEGIN CTAB
M  V30 COUNTS 27 29 0 0 0
M  V30 BEGIN ATOM
M  V30 1 O 1.461854 -3.131475 3.241259 0
M  V30 2 C 0.669312 -2.130332 3.228671 0
M  V30 3 N -0.076720 -1.717419 4.391480 0
M  V30 4 C -1.373501 -1.118664 4.068810 0
M  V30 5 C -1.107712 0.106399 3.218162 0
M  V30 6 C -0.353561 -0.294858 2.006992 0
M  V30 7 N -0.370920 0.273339 0.794824 0
M  V30 8 C 0.464174 -0.398738 -0.041237 0
M  V30 9 C 0.757780 -0.124817 -1.467032 0
M  V30 10 C 1.648778 -0.945466 -2.129413 0
M  V30 11 C 1.874875 -0.624732 -3.471039 0
M  V30 12 N 1.277527 0.407337 -4.096004 0
M  V30 13 C 0.423275 1.154755 -3.373551 0
M  V30 14 C 0.100669 0.952756 -2.026406 0
M  V30 15 C 1.017457 -1.436635 0.719589 0
M  V30 16 C 0.509480 -1.368985 1.985013 0
M  V30 17 H 0.404615 -1.898514 5.322048 0
M  V30 18 H -2.004409 -1.816518 3.463516 0
M  V30 19 H -1.897873 -0.834976 5.002758 0
M  V30 20 H -2.047176 0.630864 2.966381 0
M  V30 21 H -0.432314 0.748955 3.842682 0
M  V30 22 H -0.920874 1.099818 0.493803 0
M  V30 23 H 2.136544 -1.777791 -1.642149 0
M  V30 24 H 2.583252 -1.285113 -3.980080 0
M  V30 25 H -0.046404 1.981381 -3.898518 0
M  V30 26 H -0.584826 1.582782 -1.513836 0
M  V30 27 H 1.732359 -2.177716 0.371513 0
M  V30 END ATOM
M  V30 BEGIN BOND
M  V30 1 2 1 2
M  V30 2 1 2 3
M  V30 3 1 3 4
M  V30 4 1 4 5
M  V30 5 1 5 6
M  V30 6 1 6 7
M  V30 7 1 7 8
M  V30 8 1 8 9
M  V30 9 2 9 10
M  V30 10 1 10 11
M  V30 11 2 11 12
M  V30 12 1 12 13
M  V30 13 2 13 14
M  V30 14 2 8 15
M  V30 15 1 15 16
M  V30 16 1 16 2
M  V30 17 2 16 6
M  V30 18 1 14 9
M  V30 19 1 3 17
M  V30 20 1 4 18
M  V30 21 1 4 19
M  V30 22 1 5 20
M  V30 23 1 5 21
M  V30 24 1 7 22
M  V30 25 1 10 23
M  V30 26 1 11 24
M  V30 27 1 13 25
M  V30 28 1 14 26
M  V30 29 1 15 27
M  V30 END BOND
M  V30 END CTAB
M  END
>  <Dataset>  (151) 
ChEMBL_Kinases

>  <Ligand_Instance>  (151) 
nan

>  <PDB_ID>  (151) 
nan

>  <Standardized_SMILES>  (151) 
O=C1NCCc2[nH]c(-c3ccncc3)cc21

>  <Name>  (151) 
nan

>  <Pocket>  (151) 
nan

>  <ATP_Site>  (151) 
nan

>  <Peripheral>  (151) 
nan

>  <Num_H_Atoms_ProtBoundConf>  (151) 
nan

>  <Num_Resolved_Atoms>  (151) 
nan

>  <Num_Not_Resolved_Atoms>  (151) 
nan

$$$$
CHEMBL4069365
     RDKit          3D

  0  0  0  0  0  0  0  0  0  0999 V3000
M  V30 BEGIN CTAB
M  V30 COUNTS 48 51 0 0 0
M  V30 BEGIN ATOM
M  V30 1 C 1.517963 -2.710712 -2.513072 0
M  V30 2 C 2.507881 -2.831894 -1.351525 0
M  V30 3 C 2.243336 -4.178936 -0.716335 0
M  V30 4 O 3.749837 -2.769709 -1.899659 0
M  V30 5 C 4.838875 -2.851972 -1.085208 0
M  V30 6 C 5.230207 -1.421550 -0.790153 0
M  V30 7 O 6.364204 -0.883044 -0.934060 0
M  V30 8 N 4.275402 -0.462037 -0.277472 0
M  V30 9 C 2.882917 -0.647028 0.063008 0
M  V30 10 C 2.378385 0.314989 0.913523 0
M  V30 11 C 1.049472 0.156196 1.256339 0
M  V30 12 N 0.464888 1.117397 2.127367 0
M  V30 13 C -0.877213 1.036702 2.587997 0
M  V30 14 N -1.939440 1.536081 1.937678 0
M  V30 15 C -3.203751 1.488496 2.328659 0
M  V30 16 N -4.306221 2.027899 1.619428 0
M  V30 17 C -4.244561 2.716034 0.348627 0
M  V30 18 C -3.717359 1.838622 -0.763170 0
M  V30 19 F -4.568883 0.742736 -0.884176 0
M  V30 20 F -3.787987 2.621672 -1.923399 0
M  V30 21 F -2.404361 1.496459 -0.627625 0
M  V30 22 C -3.396937 0.849732 3.534810 0
M  V30 23 O -4.505769 0.611854 4.234819 0
M  V30 24 C -4.224092 -0.033818 5.339466 0
M  V30 25 C -2.866722 -0.260842 5.423891 0
M  V30 26 C -2.366414 0.307468 4.270688 0
M  V30 27 N -1.129332 0.419663 3.768701 0
M  V30 28 C 0.296197 -0.893362 0.774653 0
M  V30 29 C 0.827849 -1.843540 -0.077051 0
M  V30 30 C 2.152432 -1.713399 -0.438628 0
M  V30 31 H 0.990365 -1.753816 -2.539611 0
M  V30 32 H 2.025005 -2.801927 -3.504390 0
M  V30 33 H 0.753128 -3.511422 -2.499192 0
M  V30 34 H 2.274399 -4.168224 0.387243 0
M  V30 35 H 1.266946 -4.594857 -1.024028 0
M  V30 36 H 3.023678 -4.873425 -1.088927 0
M  V30 37 H 5.703010 -3.395648 -1.517927 0
M  V30 38 H 4.616598 -3.273469 -0.076134 0
M  V30 39 H 4.608416 0.514457 -0.118521 0
M  V30 40 H 3.026493 1.090043 1.237986 0
M  V30 41 H 0.999148 1.940978 2.476887 0
M  V30 42 H -5.257567 1.927867 2.038751 0
M  V30 43 H -3.513314 3.572415 0.472736 0
M  V30 44 H -5.218858 3.113178 0.041920 0
M  V30 45 H -4.923608 -0.359872 6.100415 0
M  V30 46 H -2.303787 -0.762206 6.198932 0
M  V30 47 H -0.744554 -0.979826 1.070211 0
M  V30 48 H 0.177723 -2.631618 -0.409749 0
M  V30 END ATOM
M  V30 BEGIN BOND
M  V30 1 1 1 2
M  V30 2 1 2 3
M  V30 3 1 2 4
M  V30 4 1 4 5
M  V30 5 1 5 6
M  V30 6 2 6 7
M  V30 7 1 6 8
M  V30 8 1 8 9
M  V30 9 2 9 10
M  V30 10 1 10 11
M  V30 11 1 11 12
M  V30 12 1 12 13
M  V30 13 2 13 14
M  V30 14 1 14 15
M  V30 15 1 15 16
M  V30 16 1 16 17
M  V30 17 1 17 18
M  V30 18 1 18 19
M  V30 19 1 18 20
M  V30 20 1 18 21
M  V30 21 2 15 22
M  V30 22 1 22 23
M  V30 23 1 23 24
M  V30 24 2 24 25
M  V30 25 1 25 26
M  V30 26 2 26 27
M  V30 27 2 11 28
M  V30 28 1 28 29
M  V30 29 2 29 30
M  V30 30 1 30 2
M  V30 31 1 30 9
M  V30 32 1 27 13
M  V30 33 1 26 22
M  V30 34 1 1 31
M  V30 35 1 1 32
M  V30 36 1 1 33
M  V30 37 1 3 34
M  V30 38 1 3 35
M  V30 39 1 3 36
M  V30 40 1 5 37
M  V30 41 1 5 38
M  V30 42 1 8 39
M  V30 43 1 10 40
M  V30 44 1 12 41
M  V30 45 1 16 42
M  V30 46 1 17 43
M  V30 47 1 17 44
M  V30 48 1 24 45
M  V30 49 1 25 46
M  V30 50 1 28 47
M  V30 51 1 29 48
M  V30 END BOND
M  V30 END CTAB
M  END
>  <Dataset>  (152) 
ChEMBL_Kinases

>  <Ligand_Instance>  (152) 
nan

>  <PDB_ID>  (152) 
nan

>  <Standardized_SMILES>  (152) 
CC1(C)OCC(=O)Nc2cc(Nc3nc(NCC(F)(F)F)c4occc4n3)ccc21

>  <Name>  (152) 
nan

>  <Pocket>  (152) 
nan

>  <ATP_Site>  (152) 
nan

>  <Peripheral>  (152) 
nan

>  <Num_H_Atoms_ProtBoundConf>  (152) 
nan

>  <Num_Resolved_Atoms>  (152) 
nan

>  <Num_Not_Resolved_Atoms>  (152) 
nan

$$$$
CHEMBL2420911
     RDKit          3D

  0  0  0  0  0  0  0  0  0  0999 V3000
M  V30 BEGIN CTAB
M  V30 COUNTS 40 43 0 0 0
M  V30 BEGIN ATOM
M  V30 1 C -2.775445 -0.796580 3.441790 0
M  V30 2 N -1.473970 -0.991751 3.072745 0
M  V30 3 C -0.741491 0.016353 2.550004 0
M  V30 4 N 0.594405 -0.266437 2.194440 0
M  V30 5 C 1.193638 -1.583031 2.370218 0
M  V30 6 C 1.109023 -2.228828 0.983491 0
M  V30 7 C 1.571389 -1.191593 -0.030961 0
M  V30 8 C 2.340749 -1.942720 -1.081811 0
M  V30 9 C 1.305411 -2.663901 -1.931513 0
M  V30 10 C 0.506635 -1.693703 -2.777544 0
M  V30 11 N 0.526202 -0.417667 -2.123013 0
M  V30 12 C 0.424161 -0.494116 -0.690139 0
M  V30 13 C 2.454549 -0.155170 0.662139 0
M  V30 14 C 1.553180 0.611206 1.634739 0
M  V30 15 C -1.331958 1.254431 2.393495 0
M  V30 16 N -0.881992 2.399577 1.924188 0
M  V30 17 C -1.876728 3.285741 1.998568 0
M  V30 18 N -2.978414 2.716272 2.517991 0
M  V30 19 C -2.647412 1.447084 2.767802 0
M  V30 20 N -3.328431 0.420383 3.279019 0
M  V30 21 H -3.376720 -1.591805 3.861794 0
M  V30 22 H 0.560577 -2.166736 3.076833 0
M  V30 23 H 2.196256 -1.574297 2.789446 0
M  V30 24 H 1.759402 -3.105038 1.021605 0
M  V30 25 H 0.041351 -2.462453 0.826061 0
M  V30 26 H 2.982074 -1.305463 -1.696614 0
M  V30 27 H 2.916412 -2.772526 -0.577718 0
M  V30 28 H 1.770996 -3.383891 -2.627108 0
M  V30 29 H 0.557372 -3.139533 -1.259612 0
M  V30 30 H -0.569884 -2.010302 -2.859100 0
M  V30 31 H 0.907366 -1.599810 -3.787020 0
M  V30 32 H 1.237619 0.249549 -2.473218 0
M  V30 33 H -0.500250 -1.091529 -0.478218 0
M  V30 34 H 0.321591 0.553173 -0.336220 0
M  V30 35 H 2.816083 0.512395 -0.150799 0
M  V30 36 H 3.331236 -0.592506 1.144267 0
M  V30 37 H 1.219312 1.544918 1.203947 0
M  V30 38 H 2.256932 0.898179 2.469849 0
M  V30 39 H -1.835289 4.325418 1.692087 0
M  V30 40 H -3.932456 3.138259 2.709920 0
M  V30 END ATOM
M  V30 BEGIN BOND
M  V30 1 2 1 2
M  V30 2 1 2 3
M  V30 3 1 3 4
M  V30 4 1 4 5
M  V30 5 1 5 6
M  V30 6 1 6 7
M  V30 7 1 7 8
M  V30 8 1 8 9
M  V30 9 1 9 10
M  V30 10 1 10 11
M  V30 11 1 11 12
M  V30 12 1 7 13
M  V30 13 1 13 14
M  V30 14 2 3 15
M  V30 15 1 15 16
M  V30 16 2 16 17
M  V30 17 1 17 18
M  V30 18 1 18 19
M  V30 19 2 19 20
M  V30 20 1 20 1
M  V30 21 1 14 4
M  V30 22 1 19 15
M  V30 23 1 12 7
M  V30 24 1 1 21
M  V30 25 1 5 22
M  V30 26 1 5 23
M  V30 27 1 6 24
M  V30 28 1 6 25
M  V30 29 1 8 26
M  V30 30 1 8 27
M  V30 31 1 9 28
M  V30 32 1 9 29
M  V30 33 1 10 30
M  V30 34 1 10 31
M  V30 35 1 11 32
M  V30 36 1 12 33
M  V30 37 1 12 34
M  V30 38 1 13 35
M  V30 39 1 13 36
M  V30 40 1 14 37
M  V30 41 1 14 38
M  V30 42 1 17 39
M  V30 43 1 18 40
M  V30 END BOND
M  V30 END CTAB
M  END
>  <Dataset>  (153) 
ChEMBL_Kinases

>  <Ligand_Instance>  (153) 
nan

>  <PDB_ID>  (153) 
nan

>  <Standardized_SMILES>  (153) 
c1nc(N2CCC3(CCCNC3)CC2)c2nc[nH]c2n1

>  <Name>  (153) 
nan

>  <Pocket>  (153) 
nan

>  <ATP_Site>  (153) 
nan

>  <Peripheral>  (153) 
nan

>  <Num_H_Atoms_ProtBoundConf>  (153) 
nan

>  <Num_Resolved_Atoms>  (153) 
nan

>  <Num_Not_Resolved_Atoms>  (153) 
nan

$$$$
CHEMBL2219422
     RDKit          3D

  0  0  0  0  0  0  0  0  0  0999 V3000
M  V30 BEGIN CTAB
M  V30 COUNTS 44 46 0 0 0
M  V30 BEGIN ATOM
M  V30 1 C 2.555478 -3.452686 1.517355 0
M  V30 2 N 2.508157 -4.306093 0.335953 0
M  V30 3 N 2.968233 -5.566350 0.450612 0
M  V30 4 C 2.845911 -6.183031 -0.726670 0
M  V30 5 C 2.292382 -5.208740 -1.517199 0
M  V30 6 Cl 2.008183 -5.734818 -3.145601 0
M  V30 7 C 2.064825 -4.022217 -0.895177 0
M  V30 8 C 1.515240 -2.790512 -1.386393 0
M  V30 9 C 1.346704 -1.688774 -0.625273 0
M  V30 10 C 0.844534 -0.553159 -1.087875 0
M  V30 11 C 0.506214 0.799488 -0.652273 0
M  V30 12 O 0.024593 1.627782 -1.427384 0
M  V30 13 N 0.715060 1.224597 0.681083 0
M  V30 14 C 0.393573 2.560836 1.159754 0 CFG=2
M  V30 15 C 1.699686 3.168445 1.641904 0
M  V30 16 N 2.205150 2.332454 2.692144 0
M  V30 17 C -0.498899 2.406347 2.360665 0
M  V30 18 C -1.758818 1.705021 2.105027 0
M  V30 19 C -1.972872 0.345495 2.201820 0
M  V30 20 C -3.180057 -0.269656 1.950463 0
M  V30 21 C -4.240999 0.554932 1.575222 0
M  V30 22 C -4.063515 1.926655 1.467330 0
M  V30 23 F -5.153456 2.636642 1.097339 0
M  V30 24 C -2.839228 2.498897 1.728083 0
M  V30 25 S 0.492615 -0.866971 -2.822818 0
M  V30 26 C 1.115299 -2.649139 -2.725090 0
M  V30 27 Cl 1.017053 -3.488268 -4.176539 0
M  V30 28 H 3.052273 -4.023958 2.359903 0
M  V30 29 H 3.211851 -2.572623 1.399920 0
M  V30 30 H 1.540422 -3.206892 1.831882 0
M  V30 31 H 3.169152 -7.201794 -0.807166 0
M  V30 32 H 1.529002 -1.433097 0.400109 0
M  V30 33 H 1.122182 0.554618 1.374665 0
M  V30 34 H -0.027603 3.185291 0.354940 0
M  V30 35 H 1.500116 4.178443 2.040163 0
M  V30 36 H 2.411918 3.304257 0.797279 0
M  V30 37 H 2.694528 2.847632 3.455501 0
M  V30 38 H 2.684345 1.475027 2.376823 0
M  V30 39 H 0.088762 1.788536 3.091703 0
M  V30 40 H -0.653012 3.381200 2.874871 0
M  V30 41 H -1.071120 -0.203651 2.503601 0
M  V30 42 H -3.257403 -1.353841 2.052467 0
M  V30 43 H -5.185490 0.042812 1.382047 0
M  V30 44 H -2.823083 3.560042 1.612415 0
M  V30 END ATOM
M  V30 BEGIN BOND
M  V30 1 1 1 2
M  V30 2 1 2 3
M  V30 3 2 3 4
M  V30 4 1 4 5
M  V30 5 1 5 6
M  V30 6 2 5 7
M  V30 7 1 7 8
M  V30 8 1 8 9
M  V30 9 2 9 10
M  V30 10 1 10 11
M  V30 11 2 11 12
M  V30 12 1 11 13
M  V30 13 1 13 14
M  V30 14 1 14 15
M  V30 15 1 15 16
M  V30 16 1 14 17
M  V30 17 1 17 18
M  V30 18 2 18 19
M  V30 19 1 19 20
M  V30 20 2 20 21
M  V30 21 1 21 22
M  V30 22 1 22 23
M  V30 23 2 22 24
M  V30 24 1 10 25
M  V30 25 1 25 26
M  V30 26 1 26 27
M  V30 27 1 7 2
M  V30 28 2 26 8
M  V30 29 1 24 18
M  V30 30 1 1 28
M  V30 31 1 1 29
M  V30 32 1 1 30
M  V30 33 1 4 31
M  V30 34 1 9 32
M  V30 35 1 13 33
M  V30 36 1 14 34 CFG=3
M  V30 37 1 15 35
M  V30 38 1 15 36
M  V30 39 1 16 37
M  V30 40 1 16 38
M  V30 41 1 17 39
M  V30 42 1 17 40
M  V30 43 1 19 41
M  V30 44 1 20 42
M  V30 45 1 21 43
M  V30 46 1 24 44
M  V30 END BOND
M  V30 END CTAB
M  END
>  <Dataset>  (154) 
ChEMBL_Kinases

>  <Ligand_Instance>  (154) 
nan

>  <PDB_ID>  (154) 
nan

>  <Standardized_SMILES>  (154) 
Cn1ncc(Cl)c1-c1cc(C(=O)N[C@H](CN)Cc2cccc(F)c2)sc1Cl

>  <Name>  (154) 
AFURESERTIB

>  <Pocket>  (154) 
nan

>  <ATP_Site>  (154) 
nan

>  <Peripheral>  (154) 
nan

>  <Num_H_Atoms_ProtBoundConf>  (154) 
nan

>  <Num_Resolved_Atoms>  (154) 
nan

>  <Num_Not_Resolved_Atoms>  (154) 
nan

$$$$
CHEMBL5093741
     RDKit          3D

  0  0  0  0  0  0  0  0  0  0999 V3000
M  V30 BEGIN CTAB
M  V30 COUNTS 53 57 0 0 0
M  V30 BEGIN ATOM
M  V30 1 C 3.711468 -0.492178 1.284705 0
M  V30 2 N 2.235930 -0.640031 1.329461 0
M  V30 3 C 1.675751 0.577623 0.794219 0
M  V30 4 C 1.465684 0.681791 -0.629847 0
M  V30 5 N 2.552889 0.668616 -1.416195 0
M  V30 6 N 2.240615 0.781650 -2.702111 0
M  V30 7 C 2.978078 0.824308 -3.967022 0
M  V30 8 C 0.899861 0.874090 -2.793194 0
M  V30 9 C 0.035437 0.987661 -3.988025 0
M  V30 10 N -0.630761 1.095553 -4.900782 0
M  V30 11 C 0.390400 0.815335 -1.521012 0
M  V30 12 C -0.992436 0.872732 -1.042168 0
M  V30 13 C -1.757185 1.891949 -1.551885 0
M  V30 14 N -3.058162 2.095791 -1.175560 0
M  V30 15 C -3.605653 1.239441 -0.246283 0
M  V30 16 N -4.744726 1.033888 0.431782 0
M  V30 17 C -4.605506 -0.036153 1.281362 0
M  V30 18 C -3.328794 -0.482746 1.093622 0
M  V30 19 C -2.720586 0.311202 0.136182 0
M  V30 20 C -1.431141 -0.071730 -0.098594 0
M  V30 21 C -2.474741 -1.484816 1.759000 0
M  V30 22 C -1.819432 -2.605121 1.384814 0
M  V30 23 N -1.088238 -3.007336 2.490099 0
M  V30 24 N -1.328063 -2.134281 3.485525 0
M  V30 25 C -2.176981 -1.171037 3.098363 0
M  V30 26 C -2.611639 -0.085905 4.035786 0
M  V30 27 F -1.985401 -0.259897 5.241781 0
M  V30 28 F -3.961588 -0.268054 4.283672 0
M  V30 29 F -2.368603 1.153921 3.498599 0
M  V30 30 C -0.190665 -4.083184 2.739821 0
M  V30 31 C 1.151658 -4.193668 2.188743 0
M  V30 32 C 2.272603 -3.251812 2.432734 0
M  V30 33 C 2.219408 -1.919917 1.867766 0
M  V30 34 O 1.054941 -1.665161 1.682465 0
M  V30 35 H 4.193993 -1.336545 0.770993 0
M  V30 36 H 4.096442 -0.417773 2.312570 0
M  V30 37 H 4.012705 0.458762 0.783067 0
M  V30 38 H 0.681655 0.705561 1.322666 0
M  V30 39 H 2.252487 1.465233 1.176394 0
M  V30 40 H 2.579204 0.109688 -4.714666 0
M  V30 41 H 2.940043 1.834129 -4.417645 0
M  V30 42 H 4.011183 0.496314 -3.728119 0
M  V30 43 H -1.345213 2.598187 -2.309212 0
M  V30 44 H -5.593904 1.602719 0.309764 0
M  V30 45 H -5.255843 -0.517884 1.983956 0
M  V30 46 H -0.697215 -0.782955 0.108942 0
M  V30 47 H -1.615846 -3.336677 0.633415 0
M  V30 48 H -0.775287 -5.000404 2.266409 0
M  V30 49 H -0.181647 -4.372212 3.848922 0
M  V30 50 H 1.524137 -5.256374 2.488551 0
M  V30 51 H 1.054424 -4.365063 1.061408 0
M  V30 52 H 2.485020 -3.148577 3.562462 0
M  V30 53 H 3.215308 -3.802632 2.099901 0
M  V30 END ATOM
M  V30 BEGIN BOND
M  V30 1 1 1 2
M  V30 2 1 2 3
M  V30 3 1 3 4
M  V30 4 2 4 5
M  V30 5 1 5 6
M  V30 6 1 6 7
M  V30 7 1 6 8
M  V30 8 1 8 9
M  V30 9 3 9 10
M  V30 10 2 8 11
M  V30 11 1 11 12
M  V30 12 2 12 13
M  V30 13 1 13 14
M  V30 14 2 14 15
M  V30 15 1 15 16
M  V30 16 1 16 17
M  V30 17 2 17 18
M  V30 18 1 18 19
M  V30 19 2 19 20
M  V30 20 1 18 21
M  V30 21 2 21 22
M  V30 22 1 22 23
M  V30 23 1 23 24
M  V30 24 2 24 25
M  V30 25 1 25 26
M  V30 26 1 26 27
M  V30 27 1 26 28
M  V30 28 1 26 29
M  V30 29 1 23 30
M  V30 30 1 30 31
M  V30 31 1 31 32
M  V30 32 1 32 33
M  V30 33 2 33 34
M  V30 34 1 33 2
M  V30 35 1 11 4
M  V30 36 1 20 12
M  V30 37 1 25 21
M  V30 38 1 19 15
M  V30 39 1 1 35
M  V30 40 1 1 36
M  V30 41 1 1 37
M  V30 42 1 3 38
M  V30 43 1 3 39
M  V30 44 1 7 40
M  V30 45 1 7 41
M  V30 46 1 7 42
M  V30 47 1 13 43
M  V30 48 1 16 44
M  V30 49 1 17 45
M  V30 50 1 20 46
M  V30 51 1 22 47
M  V30 52 1 30 48
M  V30 53 1 30 49
M  V30 54 1 31 50
M  V30 55 1 31 51
M  V30 56 1 32 52
M  V30 57 1 32 53
M  V30 END BOND
M  V30 END CTAB
M  END
>  <Dataset>  (155) 
ChEMBL_Kinases

>  <Ligand_Instance>  (155) 
nan

>  <PDB_ID>  (155) 
nan

>  <Standardized_SMILES>  (155) 
CN1Cc2nn(C)c(C#N)c2-c2cnc3[nH]cc(c3c2)-c2cn(nc2C(F)(F)F)CCCC1=O

>  <Name>  (155) 
nan

>  <Pocket>  (155) 
nan

>  <ATP_Site>  (155) 
nan

>  <Peripheral>  (155) 
nan

>  <Num_H_Atoms_ProtBoundConf>  (155) 
nan

>  <Num_Resolved_Atoms>  (155) 
nan

>  <Num_Not_Resolved_Atoms>  (155) 
nan

$$$$
CHEMBL1950289
     RDKit          3D

  0  0  0  0  0  0  0  0  0  0999 V3000
M  V30 BEGIN CTAB
M  V30 COUNTS 55 59 0 0 0
M  V30 BEGIN ATOM
M  V30 1 O -1.577716 -5.614999 4.046196 0
M  V30 2 C -0.203192 -5.416245 3.954067 0 CFG=1
M  V30 3 C 0.158211 -4.996971 2.568309 0
M  V30 4 C 0.215249 -3.483726 2.439506 0
M  V30 5 C 1.365721 -2.922998 3.258320 0 CFG=2
M  V30 6 N 2.529947 -2.672351 2.469117 0
M  V30 7 C 2.523474 -1.734756 1.401028 0
M  V30 8 N 3.652054 -1.552681 0.691428 0
M  V30 9 C 3.726474 -0.679162 -0.328189 0
M  V30 10 C 2.554818 0.000944 -0.572914 0
M  V30 11 N 2.362867 0.925018 -1.520498 0
M  V30 12 C 1.068339 1.362318 -1.430064 0
M  V30 13 N 0.646148 2.354509 -2.323912 0
M  V30 14 C -0.442030 3.136471 -2.727235 0
M  V30 15 C -0.697972 4.349725 -2.092193 0
M  V30 16 F 0.142953 4.714569 -1.094987 0
M  V30 17 C -1.754610 5.210968 -2.410201 0
M  V30 18 C -2.544551 4.752129 -3.429714 0
M  V30 19 F -3.582366 5.565416 -3.765190 0
M  V30 20 C -2.414074 3.590518 -4.138833 0
M  V30 21 C -1.338318 2.819805 -3.740027 0
M  V30 22 F -1.131833 1.632964 -4.403369 0
M  V30 23 N 0.444779 0.721699 -0.435372 0
M  V30 24 C -0.918799 0.865702 0.024803 0 CFG=1
M  V30 25 C -1.866734 0.752419 -1.129413 0
M  V30 26 C -2.862899 -0.274492 -0.691524 0
M  V30 27 O -2.727858 -0.414922 0.688820 0
M  V30 28 C -1.346686 -0.278140 0.906872 0
M  V30 29 C 1.360782 -0.125970 0.103254 0
M  V30 30 N 1.424865 -1.026809 1.091890 0
M  V30 31 C 1.637754 -3.875475 4.400936 0
M  V30 32 C 0.330196 -4.445802 4.949188 0
M  V30 33 H -1.819268 -6.146409 3.231520 0
M  V30 34 H 0.276671 -6.401235 4.135641 0
M  V30 35 H 1.199141 -5.345888 2.368008 0
M  V30 36 H -0.472130 -5.404026 1.778967 0
M  V30 37 H 0.319252 -3.178055 1.391528 0
M  V30 38 H -0.720933 -3.089239 2.867395 0
M  V30 39 H 1.026144 -1.955018 3.674326 0
M  V30 40 H 3.387733 -3.204297 2.706018 0
M  V30 41 H 4.624570 -0.524951 -0.903555 0
M  V30 42 H 1.244214 2.789296 -3.028095 0
M  V30 43 H -1.902178 6.135406 -1.884660 0
M  V30 44 H -3.077989 3.307126 -4.923434 0
M  V30 45 H -1.013784 1.847746 0.553751 0
M  V30 46 H -2.427577 1.697818 -1.311786 0
M  V30 47 H -1.305824 0.392046 -2.019052 0
M  V30 48 H -3.889302 0.014559 -0.988983 0
M  V30 49 H -2.673443 -1.256591 -1.188275 0
M  V30 50 H -1.210693 -0.107026 1.985305 0
M  V30 51 H -0.838311 -1.226813 0.646932 0
M  V30 52 H 2.317785 -4.688767 4.090633 0
M  V30 53 H 2.085099 -3.310165 5.234971 0
M  V30 54 H -0.411276 -3.603489 5.010429 0
M  V30 55 H 0.492191 -4.922637 5.919564 0
M  V30 END ATOM
M  V30 BEGIN BOND
M  V30 1 1 1 2
M  V30 2 1 2 3
M  V30 3 1 3 4
M  V30 4 1 4 5
M  V30 5 1 5 6
M  V30 6 1 6 7
M  V30 7 2 7 8
M  V30 8 1 8 9
M  V30 9 2 9 10
M  V30 10 1 10 11
M  V30 11 2 11 12
M  V30 12 1 12 13
M  V30 13 1 13 14
M  V30 14 2 14 15
M  V30 15 1 15 16
M  V30 16 1 15 17
M  V30 17 2 17 18
M  V30 18 1 18 19
M  V30 19 1 18 20
M  V30 20 2 20 21
M  V30 21 1 21 22
M  V30 22 1 12 23
M  V30 23 1 23 24
M  V30 24 1 24 25
M  V30 25 1 25 26
M  V30 26 1 26 27
M  V30 27 1 27 28
M  V30 28 1 23 29
M  V30 29 2 29 30
M  V30 30 1 5 31
M  V30 31 1 31 32
M  V30 32 1 32 2
M  V30 33 1 30 7
M  V30 34 1 29 10
M  V30 35 1 21 14
M  V30 36 1 28 24
M  V30 37 1 1 33
M  V30 38 1 2 34 CFG=1
M  V30 39 1 3 35
M  V30 40 1 3 36
M  V30 41 1 4 37
M  V30 42 1 4 38
M  V30 43 1 5 39 CFG=1
M  V30 44 1 6 40
M  V30 45 1 9 41
M  V30 46 1 13 42
M  V30 47 1 17 43
M  V30 48 1 20 44
M  V30 49 1 24 45 CFG=1
M  V30 50 1 25 46
M  V30 51 1 25 47
M  V30 52 1 26 48
M  V30 53 1 26 49
M  V30 54 1 28 50
M  V30 55 1 28 51
M  V30 56 1 31 52
M  V30 57 1 31 53
M  V30 58 1 32 54
M  V30 59 1 32 55
M  V30 END BOND
M  V30 END CTAB
M  END
>  <Dataset>  (156) 
ChEMBL_Kinases

>  <Ligand_Instance>  (156) 
nan

>  <PDB_ID>  (156) 
nan

>  <Standardized_SMILES>  (156) 
O[C@H]1CC[C@H](Nc2ncc3nc(Nc4c(F)cc(F)cc4F)n([C@H]4CCOC4)c3n2)CC1

>  <Name>  (156) 
TANZISERTIB

>  <Pocket>  (156) 
nan

>  <ATP_Site>  (156) 
nan

>  <Peripheral>  (156) 
nan

>  <Num_H_Atoms_ProtBoundConf>  (156) 
nan

>  <Num_Resolved_Atoms>  (156) 
nan

>  <Num_Not_Resolved_Atoms>  (156) 
nan

$$$$
CHEMBL4784318
     RDKit          3D

  0  0  0  0  0  0  0  0  0  0999 V3000
M  V30 BEGIN CTAB
M  V30 COUNTS 57 61 0 0 0
M  V30 BEGIN ATOM
M  V30 1 C 4.662440 -6.581143 3.602667 0
M  V30 2 N 4.537784 -5.463151 2.720772 0
M  V30 3 C 5.782571 -4.753100 2.482849 0
M  V30 4 C 5.611743 -3.923321 1.230671 0
M  V30 5 N 4.482553 -3.040358 1.447908 0
M  V30 6 C 4.051048 -2.184526 0.395095 0
M  V30 7 C 3.005710 -1.296899 0.457628 0
M  V30 8 C 2.632334 -0.494514 -0.595566 0
M  V30 9 C 1.504039 0.408351 -0.411703 0
M  V30 10 O 0.893260 0.441442 0.688384 0
M  V30 11 N 1.021590 1.283958 -1.408711 0
M  V30 12 C -0.092060 2.055241 -0.967833 0
M  V30 13 C -1.319503 1.437521 -1.216453 0
M  V30 14 C -2.453382 2.138886 -0.809135 0
M  V30 15 C -3.700517 1.561983 -1.036168 0
M  V30 16 C -4.881981 2.173675 -0.671344 0
M  V30 17 C -6.117601 1.459358 -0.968376 0
M  V30 18 C -6.226306 0.630012 -2.082368 0
M  V30 19 N -7.480838 0.097925 -2.110204 0
M  V30 20 N -8.156323 0.558162 -1.065374 0
M  V30 21 C -9.521790 0.216914 -0.758167 0
M  V30 22 C -7.355325 1.378511 -0.365386 0
M  V30 23 C -4.811617 3.409736 -0.055998 0
M  V30 24 C -3.574692 4.014279 0.185404 0
M  V30 25 C -2.421368 3.373342 -0.192565 0
M  V30 26 C -1.154390 3.921666 0.019360 0
M  V30 27 N -0.017686 3.274962 -0.360766 0
M  V30 28 C 3.311147 -0.548404 -1.793807 0
M  V30 29 C 4.356600 -1.448602 -1.828341 0
M  V30 30 N 4.697499 -2.219698 -0.781537 0
M  V30 31 C 3.868881 -3.105685 2.758882 0
M  V30 32 C 3.495083 -4.532931 3.112130 0
M  V30 33 H 4.378912 -7.508909 3.040832 0
M  V30 34 H 3.955636 -6.536084 4.470274 0
M  V30 35 H 5.696642 -6.738134 3.946239 0
M  V30 36 H 6.583873 -5.509418 2.375150 0
M  V30 37 H 5.945485 -4.085873 3.349242 0
M  V30 38 H 6.542200 -3.352158 1.008825 0
M  V30 39 H 5.429531 -4.632633 0.392822 0
M  V30 40 H 2.452129 -1.225690 1.375796 0
M  V30 41 H 1.479460 1.310755 -2.344793 0
M  V30 42 H -1.424129 0.485849 -1.687323 0
M  V30 43 H -3.725212 0.582527 -1.525339 0
M  V30 44 H -5.539017 0.357327 -2.867488 0
M  V30 45 H -9.729680 -0.873553 -0.888136 0
M  V30 46 H -9.827069 0.505809 0.248373 0
M  V30 47 H -10.172410 0.718184 -1.506162 0
M  V30 48 H -7.561265 1.930772 0.537849 0
M  V30 49 H -5.748825 3.873224 0.222876 0
M  V30 50 H -3.529399 4.982196 0.667970 0
M  V30 51 H -1.068277 4.886787 0.498273 0
M  V30 52 H 3.052196 0.062145 -2.643395 0
M  V30 53 H 4.917144 -1.519513 -2.759387 0
M  V30 54 H 4.527937 -2.634055 3.542940 0
M  V30 55 H 2.923829 -2.533367 2.836091 0
M  V30 56 H 2.567529 -4.776405 2.572862 0
M  V30 57 H 3.305891 -4.527127 4.204752 0
M  V30 END ATOM
M  V30 BEGIN BOND
M  V30 1 1 1 2
M  V30 2 1 2 3
M  V30 3 1 3 4
M  V30 4 1 4 5
M  V30 5 1 5 6
M  V30 6 2 6 7
M  V30 7 1 7 8
M  V30 8 1 8 9
M  V30 9 2 9 10
M  V30 10 1 9 11
M  V30 11 1 11 12
M  V30 12 2 12 13
M  V30 13 1 13 14
M  V30 14 2 14 15
M  V30 15 1 15 16
M  V30 16 1 16 17
M  V30 17 1 17 18
M  V30 18 2 18 19
M  V30 19 1 19 20
M  V30 20 1 20 21
M  V30 21 1 20 22
M  V30 22 2 16 23
M  V30 23 1 23 24
M  V30 24 2 24 25
M  V30 25 1 25 26
M  V30 26 2 26 27
M  V30 27 2 8 28
M  V30 28 1 28 29
M  V30 29 2 29 30
M  V30 30 1 5 31
M  V30 31 1 31 32
M  V30 32 1 32 2
M  V30 33 1 30 6
M  V30 34 1 27 12
M  V30 35 1 25 14
M  V30 36 2 22 17
M  V30 37 1 1 33
M  V30 38 1 1 34
M  V30 39 1 1 35
M  V30 40 1 3 36
M  V30 41 1 3 37
M  V30 42 1 4 38
M  V30 43 1 4 39
M  V30 44 1 7 40
M  V30 45 1 11 41
M  V30 46 1 13 42
M  V30 47 1 15 43
M  V30 48 1 18 44
M  V30 49 1 21 45
M  V30 50 1 21 46
M  V30 51 1 21 47
M  V30 52 1 22 48
M  V30 53 1 23 49
M  V30 54 1 24 50
M  V30 55 1 26 51
M  V30 56 1 28 52
M  V30 57 1 29 53
M  V30 58 1 31 54
M  V30 59 1 31 55
M  V30 60 1 32 56
M  V30 61 1 32 57
M  V30 END BOND
M  V30 END CTAB
M  END
>  <Dataset>  (157) 
ChEMBL_Kinases

>  <Ligand_Instance>  (157) 
nan

>  <PDB_ID>  (157) 
nan

>  <Standardized_SMILES>  (157) 
CN1CCN(c2cc(C(=O)Nc3cc4cc(-c5cnn(C)c5)ccc4cn3)ccn2)CC1

>  <Name>  (157) 
nan

>  <Pocket>  (157) 
nan

>  <ATP_Site>  (157) 
nan

>  <Peripheral>  (157) 
nan

>  <Num_H_Atoms_ProtBoundConf>  (157) 
nan

>  <Num_Resolved_Atoms>  (157) 
nan

>  <Num_Not_Resolved_Atoms>  (157) 
nan

$$$$
CHEMBL4647659
     RDKit          3D

  0  0  0  0  0  0  0  0  0  0999 V3000
M  V30 BEGIN CTAB
M  V30 COUNTS 63 66 0 0 0
M  V30 BEGIN ATOM
M  V30 1 C 3.904583 -1.986937 4.281956 0
M  V30 2 C 4.158747 -1.664971 2.820694 0
M  V30 3 C 4.232933 -3.026486 2.112981 0
M  V30 4 O 3.161766 -0.886678 2.254982 0
M  V30 5 C 3.278219 0.327204 1.612937 0
M  V30 6 C 4.468860 0.990222 1.424094 0
M  V30 7 C 4.454750 2.200038 0.765581 0
M  V30 8 C 3.252073 2.698569 0.322411 0
M  V30 9 F 3.328027 3.869862 -0.302355 0
M  V30 10 C 2.034219 2.083169 0.481507 0
M  V30 11 C 0.751556 2.577477 0.029098 0
M  V30 12 C 0.487813 3.742792 -0.637912 0
M  V30 13 N -0.741799 4.127066 -1.022767 0
M  V30 14 C -1.827990 3.340999 -0.755271 0
M  V30 15 N -3.119855 3.762280 -1.168180 0
M  V30 16 C -1.571938 2.169787 -0.086252 0
M  V30 17 C -2.753078 1.367434 0.174919 0
M  V30 18 O -3.879249 1.725844 -0.184657 0
M  V30 19 N -2.630852 0.144209 0.855525 0
M  V30 20 C -3.290126 -0.989278 1.372571 0
M  V30 21 C -3.768531 -0.701989 2.657747 0
M  V30 22 N -4.432322 -1.649140 3.388310 0
M  V30 23 C -4.606473 -2.844556 2.839360 0
M  V30 24 C -4.147011 -3.151954 1.580497 0
M  V30 25 C -3.476781 -2.227698 0.817908 0
M  V30 26 N -3.009387 -2.509998 -0.482428 0
M  V30 27 C -2.913236 -3.953251 -0.757921 0
M  V30 28 C -1.901983 -4.197032 -1.838881 0
M  V30 29 C -0.682980 -3.304878 -1.756011 0
M  V30 30 C -1.082109 -1.841795 -1.694516 0 CFG=1
M  V30 31 C -0.538413 -1.062561 -2.835412 0
M  V30 32 O 0.248671 -0.058187 -2.789367 0
M  V30 33 O -0.911671 -1.445891 -4.133186 0
M  V30 34 C -2.615154 -1.737636 -1.631847 0
M  V30 35 N -0.330147 1.821558 0.280945 0
M  V30 36 C 2.077047 0.874067 1.143746 0
M  V30 37 H 3.202017 -2.833637 4.401302 0
M  V30 38 H 3.489356 -1.123316 4.819201 0
M  V30 39 H 4.880723 -2.322327 4.712810 0
M  V30 40 H 5.137405 -1.169375 2.689889 0
M  V30 41 H 5.095549 -3.581789 2.521802 0
M  V30 42 H 3.296507 -3.583827 2.207275 0
M  V30 43 H 4.407853 -2.835059 1.034548 0
M  V30 44 H 5.405064 0.585892 1.777904 0
M  V30 45 H 5.388422 2.700339 0.628081 0
M  V30 46 H 1.285723 4.395281 -0.874906 0
M  V30 47 H -3.520013 4.032162 -0.243917 0
M  V30 48 H -3.518837 4.034881 -0.219835 0
M  V30 49 H -1.644676 -0.134646 1.147579 0
M  V30 50 H -3.680204 0.244084 3.201888 0
M  V30 51 H -5.133064 -3.600527 3.414918 0
M  V30 52 H -4.346634 -4.153991 1.229257 0
M  V30 53 H -2.690849 -4.536546 0.163694 0
M  V30 54 H -3.919642 -4.255932 -1.113579 0
M  V30 55 H -2.345529 -4.211585 -2.845536 0
M  V30 56 H -1.507148 -5.237178 -1.653539 0
M  V30 57 H -0.085642 -3.598738 -0.872721 0
M  V30 58 H -0.125982 -3.439624 -2.706294 0
M  V30 59 H -0.694689 -1.430822 -0.748337 0
M  V30 60 H -0.896335 -0.775897 -4.875449 0
M  V30 61 H -2.963830 -0.710202 -1.653002 0
M  V30 62 H -2.932974 -2.287361 -2.577773 0
M  V30 63 H 1.153787 0.315515 1.314227 0
M  V30 END ATOM
M  V30 BEGIN BOND
M  V30 1 1 1 2
M  V30 2 1 2 3
M  V30 3 1 2 4
M  V30 4 1 4 5
M  V30 5 2 5 6
M  V30 6 1 6 7
M  V30 7 2 7 8
M  V30 8 1 8 9
M  V30 9 1 8 10
M  V30 10 1 10 11
M  V30 11 2 11 12
M  V30 12 1 12 13
M  V30 13 2 13 14
M  V30 14 1 14 15
M  V30 15 1 14 16
M  V30 16 1 16 17
M  V30 17 2 17 18
M  V30 18 1 17 19
M  V30 19 1 19 20
M  V30 20 2 20 21
M  V30 21 1 21 22
M  V30 22 2 22 23
M  V30 23 1 23 24
M  V30 24 2 24 25
M  V30 25 1 25 26
M  V30 26 1 26 27
M  V30 27 1 27 28
M  V30 28 1 28 29
M  V30 29 1 29 30
M  V30 30 1 30 31
M  V30 31 2 31 32
M  V30 32 1 31 33
M  V30 33 1 30 34
M  V30 34 2 16 35
M  V30 35 2 10 36
M  V30 36 1 36 5
M  V30 37 1 35 11
M  V30 38 1 25 20
M  V30 39 1 34 26
M  V30 40 1 1 37
M  V30 41 1 1 38
M  V30 42 1 1 39
M  V30 43 1 2 40
M  V30 44 1 3 41
M  V30 45 1 3 42
M  V30 46 1 3 43
M  V30 47 1 6 44
M  V30 48 1 7 45
M  V30 49 1 12 46
M  V30 50 1 15 47
M  V30 51 1 15 48
M  V30 52 1 19 49
M  V30 53 1 21 50
M  V30 54 1 23 51
M  V30 55 1 24 52
M  V30 56 1 27 53
M  V30 57 1 27 54
M  V30 58 1 28 55
M  V30 59 1 28 56
M  V30 60 1 29 57
M  V30 61 1 29 58
M  V30 62 1 30 59 CFG=1
M  V30 63 1 33 60
M  V30 64 1 34 61
M  V30 65 1 34 62
M  V30 66 1 36 63
M  V30 END BOND
M  V30 END CTAB
M  END
>  <Dataset>  (158) 
ChEMBL_Kinases

>  <Ligand_Instance>  (158) 
nan

>  <PDB_ID>  (158) 
nan

>  <Standardized_SMILES>  (158) 
CC(C)Oc1ccc(F)c(-c2cnc(N)c(C(=O)Nc3cnccc3N3CCC[C@@H](C(=O)O)C3)n2)c1

>  <Name>  (158) 
nan

>  <Pocket>  (158) 
nan

>  <ATP_Site>  (158) 
nan

>  <Peripheral>  (158) 
nan

>  <Num_H_Atoms_ProtBoundConf>  (158) 
nan

>  <Num_Resolved_Atoms>  (158) 
nan

>  <Num_Not_Resolved_Atoms>  (158) 
nan

$$$$
CHEMBL4538174
     RDKit          3D

  0  0  0  0  0  0  0  0  0  0999 V3000
M  V30 BEGIN CTAB
M  V30 COUNTS 40 42 0 0 0
M  V30 BEGIN ATOM
M  V30 1 C 0.684150 -4.552097 2.347095 0
M  V30 2 C -0.076584 -3.471908 1.664817 0 CFG=1
M  V30 3 N 0.744965 -2.500742 0.967157 0
M  V30 4 C 0.603234 -1.129055 1.256075 0
M  V30 5 O -0.228936 -0.805137 2.106882 0
M  V30 6 N 1.315296 -0.069862 0.673828 0
M  V30 7 C 1.253998 1.324427 0.882958 0
M  V30 8 C 0.446091 2.014092 1.751422 0
M  V30 9 C 0.433396 3.382888 1.905928 0
M  V30 10 N -0.273182 4.215779 2.689093 0
M  V30 11 N 0.129084 5.458621 2.421027 0
M  V30 12 C 1.083243 5.444638 1.478520 0
M  V30 13 C 1.303340 4.115471 1.123833 0
M  V30 14 C 2.122475 3.436566 0.245570 0
M  V30 15 C 3.061847 4.215052 -0.601852 0
M  V30 16 O 2.395821 4.835980 -1.656578 0
M  V30 17 N 2.057508 2.118610 0.172968 0
M  V30 18 C -1.015533 -4.011034 0.615052 0
M  V30 19 C -0.588858 -4.379333 -0.651234 0
M  V30 20 C -1.486276 -4.862576 -1.565556 0
M  V30 21 C -2.821137 -5.004526 -1.284936 0
M  V30 22 C -3.287379 -4.647300 -0.029686 0
M  V30 23 C -2.368402 -4.163176 0.876199 0
M  V30 24 H -0.055027 -5.198579 2.866971 0
M  V30 25 H 1.228802 -5.218496 1.664345 0
M  V30 26 H 1.295923 -4.099532 3.132958 0
M  V30 27 H -0.717720 -2.938832 2.383989 0
M  V30 28 H 1.452026 -2.771623 0.245728 0
M  V30 29 H 1.986911 -0.449413 -0.024924 0
M  V30 30 H -0.238495 1.455139 2.369355 0
M  V30 31 H -1.011841 3.939424 3.389202 0
M  V30 32 H 1.663383 6.216341 0.986041 0
M  V30 33 H 3.886135 3.601893 -1.009135 0
M  V30 34 H 3.528866 5.024300 -0.013953 0
M  V30 35 H 2.969118 5.021679 -2.421162 0
M  V30 36 H 0.466558 -4.258311 -0.848780 0
M  V30 37 H -1.161034 -5.150026 -2.550454 0
M  V30 38 H -3.546569 -5.382577 -1.988323 0
M  V30 39 H -4.344801 -4.735707 0.260954 0
M  V30 40 H -2.686915 -3.869506 1.874434 0
M  V30 END ATOM
M  V30 BEGIN BOND
M  V30 1 1 1 2
M  V30 2 1 2 3
M  V30 3 1 3 4
M  V30 4 2 4 5
M  V30 5 1 4 6
M  V30 6 1 6 7
M  V30 7 2 7 8
M  V30 8 1 8 9
M  V30 9 1 9 10
M  V30 10 1 10 11
M  V30 11 2 11 12
M  V30 12 1 12 13
M  V30 13 1 13 14
M  V30 14 1 14 15
M  V30 15 1 15 16
M  V30 16 2 14 17
M  V30 17 1 2 18
M  V30 18 2 18 19
M  V30 19 1 19 20
M  V30 20 2 20 21
M  V30 21 1 21 22
M  V30 22 2 22 23
M  V30 23 1 17 7
M  V30 24 1 23 18
M  V30 25 2 13 9
M  V30 26 1 1 24
M  V30 27 1 1 25
M  V30 28 1 1 26
M  V30 29 1 2 27 CFG=1
M  V30 30 1 3 28
M  V30 31 1 6 29
M  V30 32 1 8 30
M  V30 33 1 10 31
M  V30 34 1 12 32
M  V30 35 1 15 33
M  V30 36 1 15 34
M  V30 37 1 16 35
M  V30 38 1 19 36
M  V30 39 1 20 37
M  V30 40 1 21 38
M  V30 41 1 22 39
M  V30 42 1 23 40
M  V30 END BOND
M  V30 END CTAB
M  END
>  <Dataset>  (159) 
ChEMBL_Kinases

>  <Ligand_Instance>  (159) 
nan

>  <PDB_ID>  (159) 
nan

>  <Standardized_SMILES>  (159) 
C[C@@H](NC(=O)Nc1cc2[nH]ncc2c(CO)n1)c1ccccc1

>  <Name>  (159) 
ERKi

>  <Pocket>  (159) 
nan

>  <ATP_Site>  (159) 
nan

>  <Peripheral>  (159) 
nan

>  <Num_H_Atoms_ProtBoundConf>  (159) 
nan

>  <Num_Resolved_Atoms>  (159) 
nan

>  <Num_Not_Resolved_Atoms>  (159) 
nan

$$$$
CHEMBL1289926
     RDKit          3D

  0  0  0  0  0  0  0  0  0  0999 V3000
M  V30 BEGIN CTAB
M  V30 COUNTS 46 49 0 0 0
M  V30 BEGIN ATOM
M  V30 1 C 2.052638 0.191731 -1.326533 0
M  V30 2 N 2.536367 1.278925 -0.512884 0
M  V30 3 C 1.867821 2.323876 0.152905 0
M  V30 4 O 0.593324 2.387493 0.072788 0
M  V30 5 C 2.582619 3.352169 0.936687 0
M  V30 6 C 3.107897 4.307067 0.033191 0
M  V30 7 C 3.815353 5.270543 0.785211 0
M  V30 8 C 3.993424 5.326302 2.118341 0
M  V30 9 C 3.422824 4.322100 2.902718 0
M  V30 10 C 2.690910 3.299119 2.281542 0
M  V30 11 S 2.066558 2.113691 3.386971 0
M  V30 12 C 0.988945 0.885236 2.724305 0
M  V30 13 C 1.362458 -0.307916 2.136739 0
M  V30 14 C 0.442934 -1.254788 1.657561 0
M  V30 15 C -0.863513 -0.808902 1.865522 0
M  V30 16 C -1.927671 -1.590466 1.447723 0
M  V30 17 C -2.170753 -2.875752 0.829271 0
M  V30 18 C -3.151889 -3.574681 0.354608 0
M  V30 19 C -2.819052 -4.867703 -0.179195 0
M  V30 20 C -3.795161 -5.653036 -0.781850 0
M  V30 21 C -3.451404 -6.930658 -1.287346 0
M  V30 22 C -2.116160 -7.326239 -1.143263 0
M  V30 23 C -1.132742 -6.537436 -0.538432 0
M  V30 24 N -1.621730 -5.410969 -0.137396 0
M  V30 25 N -3.054733 -0.879572 1.773746 0
M  V30 26 N -2.670768 0.241833 2.344705 0
M  V30 27 C -1.349062 0.335145 2.426745 0
M  V30 28 C -0.366545 1.229114 2.880098 0
M  V30 29 H 1.886267 -0.734283 -0.743195 0
M  V30 30 H 2.823892 -0.107729 -2.093482 0
M  V30 31 H 1.114568 0.446847 -1.858411 0
M  V30 32 H 3.583794 1.304928 -0.385534 0
M  V30 33 H 2.993248 4.308780 -1.024668 0
M  V30 34 H 4.278216 6.073103 0.171298 0
M  V30 35 H 4.560093 6.117918 2.584322 0
M  V30 36 H 3.593008 4.411088 3.962526 0
M  V30 37 H 2.411575 -0.402056 2.098842 0
M  V30 38 H 0.776417 -2.162015 1.214273 0
M  V30 39 H -1.161982 -3.345007 0.798854 0
M  V30 40 H -4.030260 -3.008865 0.478707 0
M  V30 41 H -4.780746 -5.211802 -0.828875 0
M  V30 42 H -4.219124 -7.529311 -1.750000 0
M  V30 43 H -1.812353 -8.305242 -1.522801 0
M  V30 44 H -0.118619 -6.868072 -0.444050 0
M  V30 45 H -3.302862 0.993760 2.709526 0
M  V30 46 H -0.739724 2.125264 3.316092 0
M  V30 END ATOM
M  V30 BEGIN BOND
M  V30 1 1 1 2
M  V30 2 1 2 3
M  V30 3 2 3 4
M  V30 4 1 3 5
M  V30 5 2 5 6
M  V30 6 1 6 7
M  V30 7 2 7 8
M  V30 8 1 8 9
M  V30 9 2 9 10
M  V30 10 1 10 11
M  V30 11 1 11 12
M  V30 12 2 12 13
M  V30 13 1 13 14
M  V30 14 2 14 15
M  V30 15 1 15 16
M  V30 16 1 16 17
M  V30 17 2 17 18
M  V30 18 1 18 19
M  V30 19 2 19 20
M  V30 20 1 20 21
M  V30 21 2 21 22
M  V30 22 1 22 23
M  V30 23 2 23 24
M  V30 24 2 16 25
M  V30 25 1 25 26
M  V30 26 1 26 27
M  V30 27 2 27 28
M  V30 28 1 10 5
M  V30 29 1 28 12
M  V30 30 1 27 15
M  V30 31 1 24 19
M  V30 32 1 1 29
M  V30 33 1 1 30
M  V30 34 1 1 31
M  V30 35 1 2 32
M  V30 36 1 6 33
M  V30 37 1 7 34
M  V30 38 1 8 35
M  V30 39 1 9 36
M  V30 40 1 13 37
M  V30 41 1 14 38
M  V30 42 1 17 39
M  V30 43 1 18 40
M  V30 44 1 20 41
M  V30 45 1 21 42
M  V30 46 1 22 43
M  V30 47 1 23 44
M  V30 48 1 26 45
M  V30 49 1 28 46
M  V30 END BOND
M  V30 END CTAB
M  END
>  <Dataset>  (160) 
ChEMBL_Kinases

>  <Ligand_Instance>  (160) 
nan

>  <PDB_ID>  (160) 
nan

>  <Standardized_SMILES>  (160) 
CNC(=O)c1ccccc1Sc1ccc2c(/C=C/c3ccccn3)n[nH]c2c1

>  <Name>  (160) 
AXITINIB

>  <Pocket>  (160) 
nan

>  <ATP_Site>  (160) 
nan

>  <Peripheral>  (160) 
nan

>  <Num_H_Atoms_ProtBoundConf>  (160) 
nan

>  <Num_Resolved_Atoms>  (160) 
nan

>  <Num_Not_Resolved_Atoms>  (160) 
nan

$$$$
CHEMBL4873449
     RDKit          3D

  0  0  0  0  0  0  0  0  0  0999 V3000
M  V30 BEGIN CTAB
M  V30 COUNTS 37 40 0 0 0
M  V30 BEGIN ATOM
M  V30 1 O 0.847782 -6.445190 1.420779 0
M  V30 2 C 1.354670 -5.146371 1.283782 0
M  V30 3 C 0.962767 -4.263451 0.299875 0
M  V30 4 C 1.498962 -2.997183 0.217696 0
M  V30 5 C 2.449528 -2.576176 1.124591 0
M  V30 6 C 2.962974 -1.229105 0.970255 0
M  V30 7 N 4.232834 -0.813062 1.020257 0
M  V30 8 N 4.339094 0.493394 0.837308 0
M  V30 9 C 3.104622 1.032084 0.650053 0
M  V30 10 N 2.628396 2.272815 0.426498 0
M  V30 11 C 1.316102 2.530909 0.274397 0
M  V30 12 C 0.402921 1.472452 0.350236 0
M  V30 13 C -1.045897 1.667965 0.195580 0
M  V30 14 C -1.678221 2.828092 0.596593 0
M  V30 15 C -3.059837 2.985291 0.436875 0
M  V30 16 C -3.709204 1.907469 -0.139913 0
M  V30 17 O -5.095916 2.097661 -0.286078 0
M  V30 18 C -3.101434 0.735584 -0.550109 0
M  V30 19 O -3.914476 -0.263415 -1.119616 0
M  V30 20 C -1.734496 0.617057 -0.375981 0
M  V30 21 C 0.911871 0.207668 0.580205 0
M  V30 22 C 2.243571 -0.067762 0.736472 0
M  V30 23 C 2.850161 -3.451924 2.114576 0
M  V30 24 C 2.315184 -4.741650 2.211904 0
M  V30 25 H -0.166268 -6.546539 1.527092 0
M  V30 26 H 0.215458 -4.687951 -0.359182 0
M  V30 27 H 1.084951 -2.439324 -0.605672 0
M  V30 28 H 5.203149 1.085681 0.825566 0
M  V30 29 H 0.940870 3.523278 0.096341 0
M  V30 30 H -1.081446 3.618442 1.039377 0
M  V30 31 H -3.558623 3.878263 0.743569 0
M  V30 32 H -5.711982 1.404858 0.166578 0
M  V30 33 H -3.535771 -1.216927 -1.007814 0
M  V30 34 H -1.314971 -0.318685 -0.714645 0
M  V30 35 H 0.195359 -0.594688 0.636207 0
M  V30 36 H 3.596565 -3.117326 2.824459 0
M  V30 37 H 2.648399 -5.398656 2.994861 0
M  V30 END ATOM
M  V30 BEGIN BOND
M  V30 1 1 1 2
M  V30 2 2 2 3
M  V30 3 1 3 4
M  V30 4 2 4 5
M  V30 5 1 5 6
M  V30 6 2 6 7
M  V30 7 1 7 8
M  V30 8 1 8 9
M  V30 9 2 9 10
M  V30 10 1 10 11
M  V30 11 2 11 12
M  V30 12 1 12 13
M  V30 13 2 13 14
M  V30 14 1 14 15
M  V30 15 2 15 16
M  V30 16 1 16 17
M  V30 17 1 16 18
M  V30 18 1 18 19
M  V30 19 2 18 20
M  V30 20 1 12 21
M  V30 21 2 21 22
M  V30 22 1 5 23
M  V30 23 2 23 24
M  V30 24 1 24 2
M  V30 25 1 22 6
M  V30 26 1 22 9
M  V30 27 1 20 13
M  V30 28 1 1 25
M  V30 29 1 3 26
M  V30 30 1 4 27
M  V30 31 1 8 28
M  V30 32 1 11 29
M  V30 33 1 14 30
M  V30 34 1 15 31
M  V30 35 1 17 32
M  V30 36 1 19 33
M  V30 37 1 20 34
M  V30 38 1 21 35
M  V30 39 1 23 36
M  V30 40 1 24 37
M  V30 END BOND
M  V30 END CTAB
M  END
>  <Dataset>  (161) 
ChEMBL_Kinases

>  <Ligand_Instance>  (161) 
nan

>  <PDB_ID>  (161) 
nan

>  <Standardized_SMILES>  (161) 
Oc1ccc(-c2n[nH]c3ncc(-c4ccc(O)c(O)c4)cc23)cc1

>  <Name>  (161) 
nan

>  <Pocket>  (161) 
nan

>  <ATP_Site>  (161) 
nan

>  <Peripheral>  (161) 
nan

>  <Num_H_Atoms_ProtBoundConf>  (161) 
nan

>  <Num_Resolved_Atoms>  (161) 
nan

>  <Num_Not_Resolved_Atoms>  (161) 
nan

$$$$
CHEMBL2347053
     RDKit          3D

  0  0  0  0  0  0  0  0  0  0999 V3000
M  V30 BEGIN CTAB
M  V30 COUNTS 37 40 0 0 0
M  V30 BEGIN ATOM
M  V30 1 O -0.991087 -1.690388 -0.539423 0
M  V30 2 C 0.242172 -1.664429 -0.608547 0
M  V30 3 N 1.082394 -2.798186 -0.725685 0
M  V30 4 C 2.441605 -2.333594 -0.780945 0
M  V30 5 C 3.591254 -3.129914 -0.897135 0
M  V30 6 C 4.769543 -2.421348 -0.926645 0
M  V30 7 C 4.888989 -1.050429 -0.853400 0
M  V30 8 C 3.742628 -0.306334 -0.738988 0
M  V30 9 C 2.522802 -0.955436 -0.703947 0
M  V30 10 C 1.134161 -0.527305 -0.594195 0
M  V30 11 C 0.682442 0.700510 -0.468348 0
M  V30 12 C -0.660892 1.227171 -0.316265 0
M  V30 13 C -1.351559 2.126994 -1.093862 0
M  V30 14 N -2.562054 2.401995 -0.581647 0
M  V30 15 N -2.661155 1.686762 0.525006 0
M  V30 16 C -1.551982 0.967187 0.730237 0
M  V30 17 C -1.448756 0.134366 1.919626 0
M  V30 18 C -0.337014 0.366903 2.716540 0
M  V30 19 C -0.161976 -0.376769 3.871152 0
M  V30 20 C -1.108848 -1.327051 4.184487 0
M  V30 21 C -2.230726 -1.603598 3.436195 0
M  V30 22 C -2.354630 -0.834481 2.298486 0
M  V30 23 N -3.470504 -1.047923 1.466357 0 CHG=1 VAL=4
M  V30 24 O -4.593408 -1.493755 1.854101 0
M  V30 25 O -3.922812 -0.958812 0.193258 0 CHG=-1 VAL=1
M  V30 26 H 0.751219 -3.775871 -0.761605 0
M  V30 27 H 3.546816 -4.205829 -0.958551 0
M  V30 28 H 5.662452 -3.040250 -1.017389 0
M  V30 29 H 5.866127 -0.585647 -0.885145 0
M  V30 30 H 3.754669 0.776645 -0.674576 0
M  V30 31 H 1.397510 1.533301 -0.470067 0
M  V30 32 H -0.997582 2.575385 -2.002278 0
M  V30 33 H -3.284182 3.047994 -0.974982 0
M  V30 34 H 0.428067 1.103878 2.504234 0
M  V30 35 H 0.680870 -0.229685 4.512280 0
M  V30 36 H -0.937020 -1.898215 5.106158 0
M  V30 37 H -2.961885 -2.350266 3.698483 0
M  V30 END ATOM
M  V30 BEGIN BOND
M  V30 1 2 1 2
M  V30 2 1 2 3
M  V30 3 1 3 4
M  V30 4 2 4 5
M  V30 5 1 5 6
M  V30 6 2 6 7
M  V30 7 1 7 8
M  V30 8 2 8 9
M  V30 9 1 9 10
M  V30 10 2 10 11
M  V30 11 1 11 12
M  V30 12 2 12 13
M  V30 13 1 13 14
M  V30 14 1 14 15
M  V30 15 2 15 16
M  V30 16 1 16 17
M  V30 17 2 17 18
M  V30 18 1 18 19
M  V30 19 2 19 20
M  V30 20 1 20 21
M  V30 21 2 21 22
M  V30 22 1 22 23
M  V30 23 2 23 24
M  V30 24 1 23 25
M  V30 25 1 10 2
M  V30 26 1 16 12
M  V30 27 1 22 17
M  V30 28 1 9 4
M  V30 29 1 3 26
M  V30 30 1 5 27
M  V30 31 1 6 28
M  V30 32 1 7 29
M  V30 33 1 8 30
M  V30 34 1 11 31
M  V30 35 1 13 32
M  V30 36 1 14 33
M  V30 37 1 18 34
M  V30 38 1 19 35
M  V30 39 1 20 36
M  V30 40 1 21 37
M  V30 END BOND
M  V30 END CTAB
M  END
>  <Dataset>  (162) 
ChEMBL_Kinases

>  <Ligand_Instance>  (162) 
nan

>  <PDB_ID>  (162) 
nan

>  <Standardized_SMILES>  (162) 
O=C1Nc2ccccc2/C1=C/c1c[nH]nc1-c1ccccc1[N+](=O)[O-]

>  <Name>  (162) 
nan

>  <Pocket>  (162) 
nan

>  <ATP_Site>  (162) 
nan

>  <Peripheral>  (162) 
nan

>  <Num_H_Atoms_ProtBoundConf>  (162) 
nan

>  <Num_Resolved_Atoms>  (162) 
nan

>  <Num_Not_Resolved_Atoms>  (162) 
nan

$$$$
CHEMBL1289601
     RDKit          3D

  0  0  0  0  0  0  0  0  0  0999 V3000
M  V30 BEGIN CTAB
M  V30 COUNTS 49 52 0 0 0
M  V30 BEGIN ATOM
M  V30 1 C 0.676452 -7.003814 2.908913 0
M  V30 2 O 0.508935 -6.164237 1.782199 0
M  V30 3 C 1.189126 -4.989005 1.599291 0
M  V30 4 C 2.094913 -4.600611 2.576594 0
M  V30 5 C 2.822198 -3.430264 2.470792 0
M  V30 6 N 3.720987 -2.988309 3.368000 0
M  V30 7 C 4.388292 -1.831412 3.171405 0
M  V30 8 C 4.139816 -1.084918 2.020045 0
M  V30 9 C 3.208308 -1.509016 1.055788 0
M  V30 10 O 3.186966 -0.578354 0.057052 0
M  V30 11 C 2.111390 0.184334 -0.316998 0
M  V30 12 C 1.126991 0.218356 -1.280039 0
M  V30 13 C 0.159572 1.191001 -1.343782 0
M  V30 14 C 0.123364 2.212259 -0.421456 0
M  V30 15 N -0.914055 3.175839 -0.564364 0
M  V30 16 C -2.183860 2.986886 0.091543 0
M  V30 17 O -2.350111 1.953150 0.790066 0
M  V30 18 N -3.221916 3.969009 -0.062374 0
M  V30 19 C -4.467790 3.746277 0.603799 0
M  V30 20 C -5.677903 3.858203 -0.358625 0
M  V30 21 C -5.507752 4.740227 0.835882 0
M  V30 22 C 1.085411 2.235495 0.571895 0
M  V30 23 Cl 0.917777 3.587902 1.671716 0
M  V30 24 C 2.066684 1.231799 0.620885 0
M  V30 25 C 2.578680 -2.696814 1.339470 0
M  V30 26 C 1.698960 -3.044540 0.358671 0
M  V30 27 C 0.977685 -4.205731 0.464200 0
M  V30 28 C 0.013150 -4.666931 -0.526811 0
M  V30 29 N -0.228107 -3.894633 -1.696118 0
M  V30 30 O -0.574897 -5.754288 -0.294257 0
M  V30 31 H 1.680451 -7.464308 2.882306 0
M  V30 32 H -0.071764 -7.808278 2.939259 0
M  V30 33 H 0.639275 -6.390149 3.853897 0
M  V30 34 H 2.256200 -5.212121 3.456557 0
M  V30 35 H 5.082201 -1.576935 3.953530 0
M  V30 36 H 4.769980 -0.181876 2.031631 0
M  V30 37 H 1.288226 -0.636610 -1.936822 0
M  V30 38 H -0.515045 1.059154 -2.148865 0
M  V30 39 H -0.725981 4.020779 -1.157534 0
M  V30 40 H -3.016219 4.802944 -0.656387 0
M  V30 41 H -4.487504 2.803598 1.185676 0
M  V30 42 H -5.517059 4.338465 -1.341947 0
M  V30 43 H -6.418202 3.049717 -0.360479 0
M  V30 44 H -5.395563 5.814309 0.660501 0
M  V30 45 H -6.211329 4.529425 1.667767 0
M  V30 46 H 2.706193 1.468049 1.488455 0
M  V30 47 H 1.517723 -2.479949 -0.520571 0
M  V30 48 H -0.244110 -4.229548 -2.703764 0
M  V30 49 H -0.413842 -2.861975 -1.540995 0
M  V30 END ATOM
M  V30 BEGIN BOND
M  V30 1 1 1 2
M  V30 2 1 2 3
M  V30 3 2 3 4
M  V30 4 1 4 5
M  V30 5 2 5 6
M  V30 6 1 6 7
M  V30 7 2 7 8
M  V30 8 1 8 9
M  V30 9 1 9 10
M  V30 10 1 10 11
M  V30 11 2 11 12
M  V30 12 1 12 13
M  V30 13 2 13 14
M  V30 14 1 14 15
M  V30 15 1 15 16
M  V30 16 2 16 17
M  V30 17 1 16 18
M  V30 18 1 18 19
M  V30 19 1 19 20
M  V30 20 1 20 21
M  V30 21 1 14 22
M  V30 22 1 22 23
M  V30 23 2 22 24
M  V30 24 2 9 25
M  V30 25 1 25 26
M  V30 26 2 26 27
M  V30 27 1 27 28
M  V30 28 1 28 29
M  V30 29 2 28 30
M  V30 30 1 27 3
M  V30 31 1 25 5
M  V30 32 1 24 11
M  V30 33 1 21 19
M  V30 34 1 1 31
M  V30 35 1 1 32
M  V30 36 1 1 33
M  V30 37 1 4 34
M  V30 38 1 7 35
M  V30 39 1 8 36
M  V30 40 1 12 37
M  V30 41 1 13 38
M  V30 42 1 15 39
M  V30 43 1 18 40
M  V30 44 1 19 41
M  V30 45 1 20 42
M  V30 46 1 20 43
M  V30 47 1 21 44
M  V30 48 1 21 45
M  V30 49 1 24 46
M  V30 50 1 26 47
M  V30 51 1 29 48
M  V30 52 1 29 49
M  V30 END BOND
M  V30 END CTAB
M  END
>  <Dataset>  (163) 
ChEMBL_Kinases

>  <Ligand_Instance>  (163) 
nan

>  <PDB_ID>  (163) 
nan

>  <Standardized_SMILES>  (163) 
COc1cc2nccc(Oc3ccc(NC(=O)NC4CC4)c(Cl)c3)c2cc1C(N)=O

>  <Name>  (163) 
LENVATINIB

>  <Pocket>  (163) 
nan

>  <ATP_Site>  (163) 
nan

>  <Peripheral>  (163) 
nan

>  <Num_H_Atoms_ProtBoundConf>  (163) 
nan

>  <Num_Resolved_Atoms>  (163) 
nan

>  <Num_Not_Resolved_Atoms>  (163) 
nan

$$$$
CHEMBL3991932
     RDKit          3D

  0  0  0  0  0  0  0  0  0  0999 V3000
M  V30 BEGIN CTAB
M  V30 COUNTS 74 78 0 0 0
M  V30 BEGIN ATOM
M  V30 1 C 3.339283 -7.528517 1.714301 0
M  V30 2 C 3.144152 -6.279992 0.919664 0
M  V30 3 C 2.361423 -6.181641 -0.212585 0
M  V30 4 C 2.232070 -4.986866 -0.890936 0
M  V30 5 C 2.893020 -3.857802 -0.440123 0
M  V30 6 N 2.820656 -2.586134 -1.071528 0
M  V30 7 N 3.189224 -2.411678 -2.346816 0
M  V30 8 C 3.025600 -1.115932 -2.707776 0
M  V30 9 C 3.321404 -0.522530 -4.040310 0
M  V30 10 C 2.044302 -0.635645 -4.872480 0
M  V30 11 C 4.449961 -1.277873 -4.681477 0
M  V30 12 C 3.589663 0.943350 -3.861300 0
M  V30 13 C 2.526066 -0.433088 -1.599905 0
M  V30 14 C 2.411481 -1.378580 -0.602037 0
M  V30 15 N 1.937561 -1.184745 0.748232 0
M  V30 16 C 0.550332 -1.331521 1.081656 0
M  V30 17 O -0.287628 -1.637729 0.184118 0
M  V30 18 N 0.045823 -1.147377 2.402463 0
M  V30 19 C -1.383274 -1.363063 2.421616 0
M  V30 20 C -2.000019 -1.190021 3.748938 0
M  V30 21 C -2.438206 -2.248513 4.511800 0
M  V30 22 C -3.010009 -1.966149 5.732881 0
M  V30 23 F -3.420280 -3.067233 6.431573 0
M  V30 24 C -3.138902 -0.670652 6.175683 0
M  V30 25 C -2.674484 0.367250 5.356523 0
M  V30 26 C -2.084532 0.132756 4.104481 0
M  V30 27 O -1.749353 1.333020 3.579589 0
M  V30 28 C -2.179640 1.901424 2.417139 0
M  V30 29 C -3.399440 2.541916 2.622312 0
M  V30 30 C -4.073968 3.213880 1.599715 0
M  V30 31 C -3.544551 3.266519 0.327956 0
M  V30 32 C -2.345369 2.638593 0.119302 0
M  V30 33 C -1.966237 2.787593 -1.190927 0
M  V30 34 N -2.943784 3.504031 -1.753549 0
M  V30 35 N -3.879570 3.790768 -0.863176 0
M  V30 36 C -5.091744 4.552680 -1.109591 0
M  V30 37 C -6.227023 3.640379 -1.536746 0
M  V30 38 O -6.431723 2.728750 -0.485647 0
M  V30 39 C -1.675343 1.975054 1.121838 0
M  V30 40 C 3.690714 -3.906246 0.692337 0
M  V30 41 C 3.795379 -5.117612 1.343309 0
M  V30 42 H 4.274338 -8.030978 1.350900 0
M  V30 43 H 3.491356 -7.280140 2.785099 0
M  V30 44 H 2.449711 -8.167209 1.672226 0
M  V30 45 H 1.851718 -7.077015 -0.549395 0
M  V30 46 H 1.619272 -4.904730 -1.779792 0
M  V30 47 H 1.212632 -0.370480 -4.170799 0
M  V30 48 H 2.087777 0.065432 -5.727417 0
M  V30 49 H 1.887665 -1.690354 -5.147504 0
M  V30 50 H 5.143113 -0.566319 -5.149707 0
M  V30 51 H 4.941325 -1.918253 -3.925346 0
M  V30 52 H 4.008748 -1.904711 -5.505734 0
M  V30 53 H 2.641080 1.381260 -3.461755 0
M  V30 54 H 3.699668 1.428725 -4.874456 0
M  V30 55 H 4.402421 1.194740 -3.178147 0
M  V30 56 H 2.274687 0.622838 -1.523728 0
M  V30 57 H 2.597891 -0.934735 1.498976 0
M  V30 58 H 0.710629 -0.893366 3.170484 0
M  V30 59 H -1.560558 -2.429777 2.063271 0
M  V30 60 H -1.951581 -0.760808 1.692060 0
M  V30 61 H -2.278566 -3.217295 4.050773 0
M  V30 62 H -3.594855 -0.588347 7.128918 0
M  V30 63 H -2.863721 1.319955 5.877443 0
M  V30 64 H -3.967660 2.605528 3.555942 0
M  V30 65 H -5.020784 3.722126 1.721464 0
M  V30 66 H -1.073948 2.410360 -1.669099 0
M  V30 67 H -4.910514 5.302411 -1.901447 0
M  V30 68 H -5.416046 5.092012 -0.207020 0
M  V30 69 H -7.122771 4.251093 -1.712964 0
M  V30 70 H -5.978318 3.105708 -2.486651 0
M  V30 71 H -6.667203 1.864494 -0.886075 0
M  V30 72 H -0.729123 1.446843 1.073751 0
M  V30 73 H 4.222659 -3.047687 1.076362 0
M  V30 74 H 4.432137 -5.137352 2.240312 0
M  V30 END ATOM
M  V30 BEGIN BOND
M  V30 1 1 1 2
M  V30 2 2 2 3
M  V30 3 1 3 4
M  V30 4 2 4 5
M  V30 5 1 5 6
M  V30 6 1 6 7
M  V30 7 2 7 8
M  V30 8 1 8 9
M  V30 9 1 9 10
M  V30 10 1 9 11
M  V30 11 1 9 12
M  V30 12 1 8 13
M  V30 13 2 13 14
M  V30 14 1 14 15
M  V30 15 1 15 16
M  V30 16 2 16 17
M  V30 17 1 16 18
M  V30 18 1 18 19
M  V30 19 1 19 20
M  V30 20 2 20 21
M  V30 21 1 21 22
M  V30 22 1 22 23
M  V30 23 2 22 24
M  V30 24 1 24 25
M  V30 25 2 25 26
M  V30 26 1 26 27
M  V30 27 1 27 28
M  V30 28 2 28 29
M  V30 29 1 29 30
M  V30 30 2 30 31
M  V30 31 1 31 32
M  V30 32 1 32 33
M  V30 33 2 33 34
M  V30 34 1 34 35
M  V30 35 1 35 36
M  V30 36 1 36 37
M  V30 37 1 37 38
M  V30 38 2 32 39
M  V30 39 1 5 40
M  V30 40 2 40 41
M  V30 41 1 41 2
M  V30 42 1 14 6
M  V30 43 1 26 20
M  V30 44 1 39 28
M  V30 45 1 35 31
M  V30 46 1 1 42
M  V30 47 1 1 43
M  V30 48 1 1 44
M  V30 49 1 3 45
M  V30 50 1 4 46
M  V30 51 1 10 47
M  V30 52 1 10 48
M  V30 53 1 10 49
M  V30 54 1 11 50
M  V30 55 1 11 51
M  V30 56 1 11 52
M  V30 57 1 12 53
M  V30 58 1 12 54
M  V30 59 1 12 55
M  V30 60 1 13 56
M  V30 61 1 15 57
M  V30 62 1 18 58
M  V30 63 1 19 59
M  V30 64 1 19 60
M  V30 65 1 21 61
M  V30 66 1 24 62
M  V30 67 1 25 63
M  V30 68 1 29 64
M  V30 69 1 30 65
M  V30 70 1 33 66
M  V30 71 1 36 67
M  V30 72 1 36 68
M  V30 73 1 37 69
M  V30 74 1 37 70
M  V30 75 1 38 71
M  V30 76 1 39 72
M  V30 77 1 40 73
M  V30 78 1 41 74
M  V30 END BOND
M  V30 END CTAB
M  END
>  <Dataset>  (164) 
ChEMBL_Kinases

>  <Ligand_Instance>  (164) 
nan

>  <PDB_ID>  (164) 
nan

>  <Standardized_SMILES>  (164) 
Cc1ccc(-n2nc(C(C)(C)C)cc2NC(=O)NCc2cc(F)ccc2Oc2ccc3c(cnn3CCO)c2)cc1

>  <Name>  (164) 
PEXMETINIB

>  <Pocket>  (164) 
nan

>  <ATP_Site>  (164) 
nan

>  <Peripheral>  (164) 
nan

>  <Num_H_Atoms_ProtBoundConf>  (164) 
nan

>  <Num_Resolved_Atoms>  (164) 
nan

>  <Num_Not_Resolved_Atoms>  (164) 
nan

$$$$
CHEMBL1667969
     RDKit          3D

  0  0  0  0  0  0  0  0  0  0999 V3000
M  V30 BEGIN CTAB
M  V30 COUNTS 34 36 0 0 0
M  V30 BEGIN ATOM
M  V30 1 O 1.950757 -0.128664 5.730272 0
M  V30 2 C 2.419582 -0.217363 4.565879 0
M  V30 3 N 3.771064 -0.238383 4.367897 0
M  V30 4 C 4.321415 -0.333595 3.121114 0
M  V30 5 C 3.506274 -0.414078 1.986839 0
M  V30 6 C 2.140705 -0.389745 2.228433 0
M  V30 7 C 1.351810 -0.469971 1.099044 0
M  V30 8 C -0.025330 -0.456914 1.188021 0
M  V30 9 O -1.004295 -0.522618 0.242145 0
M  V30 10 C -0.832232 -0.627287 -1.155724 0
M  V30 11 C -1.347045 -1.934288 -1.702399 0
M  V30 12 C -2.801414 -1.861276 -2.100290 0
M  V30 13 N -3.038255 -0.727028 -2.983874 0
M  V30 14 C -2.852176 0.457991 -2.174829 0
M  V30 15 C -1.378089 0.571935 -1.885694 0
M  V30 16 C -0.597323 -0.359440 2.463920 0
M  V30 17 C 0.196924 -0.277636 3.614831 0
M  V30 18 C 1.569221 -0.293971 3.481438 0
M  V30 19 H 4.400715 -0.177781 5.223030 0
M  V30 20 H 5.389124 -0.349344 2.975859 0
M  V30 21 H 3.911486 -0.490377 0.985517 0
M  V30 22 H 1.693768 -0.546232 0.094484 0
M  V30 23 H 0.261843 -0.645590 -1.338890 0
M  V30 24 H -1.267108 -2.729021 -0.927322 0
M  V30 25 H -0.778037 -2.302735 -2.585307 0
M  V30 26 H -3.019695 -2.761707 -2.711516 0
M  V30 27 H -3.469999 -1.798842 -1.225754 0
M  V30 28 H -4.018992 -0.779738 -3.307877 0
M  V30 29 H -3.147929 1.363445 -2.730053 0
M  V30 30 H -3.463527 0.311363 -1.267290 0
M  V30 31 H -1.122237 1.461928 -1.271241 0
M  V30 32 H -0.860642 0.661347 -2.863977 0
M  V30 33 H -1.665316 -0.335791 2.714555 0
M  V30 34 H -0.196655 -0.202083 4.606999 0
M  V30 END ATOM
M  V30 BEGIN BOND
M  V30 1 2 1 2
M  V30 2 1 2 3
M  V30 3 1 3 4
M  V30 4 2 4 5
M  V30 5 1 5 6
M  V30 6 2 6 7
M  V30 7 1 7 8
M  V30 8 1 8 9
M  V30 9 1 9 10
M  V30 10 1 10 11
M  V30 11 1 11 12
M  V30 12 1 12 13
M  V30 13 1 13 14
M  V30 14 1 14 15
M  V30 15 2 8 16
M  V30 16 1 16 17
M  V30 17 2 17 18
M  V30 18 1 18 2
M  V30 19 1 18 6
M  V30 20 1 15 10
M  V30 21 1 3 19
M  V30 22 1 4 20
M  V30 23 1 5 21
M  V30 24 1 7 22
M  V30 25 1 10 23
M  V30 26 1 11 24
M  V30 27 1 11 25
M  V30 28 1 12 26
M  V30 29 1 12 27
M  V30 30 1 13 28
M  V30 31 1 14 29
M  V30 32 1 14 30
M  V30 33 1 15 31
M  V30 34 1 15 32
M  V30 35 1 16 33
M  V30 36 1 17 34
M  V30 END BOND
M  V30 END CTAB
M  END
>  <Dataset>  (165) 
ChEMBL_Kinases

>  <Ligand_Instance>  (165) 
nan

>  <PDB_ID>  (165) 
nan

>  <Standardized_SMILES>  (165) 
O=c1[nH]ccc2cc(OC3CCNCC3)ccc12

>  <Name>  (165) 
SAR-407899

>  <Pocket>  (165) 
nan

>  <ATP_Site>  (165) 
nan

>  <Peripheral>  (165) 
nan

>  <Num_H_Atoms_ProtBoundConf>  (165) 
nan

>  <Num_Resolved_Atoms>  (165) 
nan

>  <Num_Not_Resolved_Atoms>  (165) 
nan

$$$$
CHEMBL3103192
     RDKit          3D

  0  0  0  0  0  0  0  0  0  0999 V3000
M  V30 BEGIN CTAB
M  V30 COUNTS 56 59 0 0 0
M  V30 BEGIN ATOM
M  V30 1 C -4.094141 -3.505002 2.295199 0
M  V30 2 C -2.644240 -3.391526 1.993842 0
M  V30 3 O -1.928215 -3.850271 2.931144 0
M  V30 4 N -2.257552 -2.812900 0.757614 0
M  V30 5 C -1.062245 -2.504122 0.053832 0
M  V30 6 C -0.460003 -1.285169 0.263205 0
M  V30 7 C 0.680829 -0.823570 -0.328318 0
M  V30 8 N 1.335229 0.416640 -0.143181 0
M  V30 9 C 0.887766 1.480268 0.682003 0
M  V30 10 C 1.617414 2.638469 0.818717 0
M  V30 11 C 1.300820 3.728672 1.571626 0
M  V30 12 N 2.057723 4.919386 1.697546 0
M  V30 13 C 3.256006 5.489434 1.197999 0
M  V30 14 C 4.497390 4.565279 1.425438 0
M  V30 15 C 4.081981 5.020054 0.088478 0
M  V30 16 N 0.119964 3.617200 2.249934 0
M  V30 17 N -0.522554 4.427671 3.063540 0
M  V30 18 C -1.668903 3.917200 3.516867 0
M  V30 19 C -1.755387 2.674115 2.936452 0
M  V30 20 C -2.794784 1.704414 3.089629 0
M  V30 21 N -3.647223 0.898879 3.200503 0
M  V30 22 C -0.628823 2.532306 2.162516 0
M  V30 23 N -0.247412 1.503537 1.400466 0
M  V30 24 C 1.252256 -1.727180 -1.232194 0
M  V30 25 C 0.712596 -2.959871 -1.495300 0
M  V30 26 C -0.437902 -3.359951 -0.863216 0
M  V30 27 N -1.108808 -4.627902 -1.041389 0
M  V30 28 C -1.221868 -5.545326 0.103040 0
M  V30 29 C -1.753398 -5.209751 -2.196785 0
M  V30 30 C -1.052582 -6.424613 -2.723065 0
M  V30 31 N 0.296885 -6.103338 -3.116772 0
M  V30 32 H -4.674990 -3.372635 1.370843 0
M  V30 33 H -4.332205 -4.463520 2.804808 0
M  V30 34 H -4.368809 -2.691273 3.010655 0
M  V30 35 H -3.001143 -2.485487 0.103149 0
M  V30 36 H -0.938679 -0.642972 0.960881 0
M  V30 37 H 2.230635 0.574138 -0.656441 0
M  V30 38 H 2.534595 2.659673 0.270324 0
M  V30 39 H 1.615064 5.626923 2.376363 0
M  V30 40 H 3.453272 6.562417 1.539738 0
M  V30 41 H 5.301123 5.000570 2.021599 0
M  V30 42 H 4.292611 3.504365 1.662682 0
M  V30 43 H 3.801000 4.300477 -0.674040 0
M  V30 44 H 4.790904 5.796031 -0.353032 0
M  V30 45 H -2.382600 4.363847 4.188758 0
M  V30 46 H 2.160373 -1.497489 -1.776722 0
M  V30 47 H 1.164081 -3.642359 -2.191611 0
M  V30 48 H -0.601479 -5.127114 0.910379 0
M  V30 49 H -0.670834 -6.475875 -0.224387 0
M  V30 50 H -2.263874 -5.762546 0.369014 0
M  V30 51 H -2.788155 -5.559716 -1.906310 0
M  V30 52 H -1.847006 -4.488823 -3.033511 0
M  V30 53 H -1.584163 -6.790298 -3.633422 0
M  V30 54 H -1.086052 -7.301882 -2.019639 0
M  V30 55 H 0.763452 -6.932824 -3.513768 0
M  V30 56 H 0.245563 -5.362525 -3.842834 0
M  V30 END ATOM
M  V30 BEGIN BOND
M  V30 1 1 1 2
M  V30 2 2 2 3
M  V30 3 1 2 4
M  V30 4 1 4 5
M  V30 5 2 5 6
M  V30 6 1 6 7
M  V30 7 1 7 8
M  V30 8 1 8 9
M  V30 9 1 9 10
M  V30 10 2 10 11
M  V30 11 1 11 12
M  V30 12 1 12 13
M  V30 13 1 13 14
M  V30 14 1 14 15
M  V30 15 1 11 16
M  V30 16 1 16 17
M  V30 17 2 17 18
M  V30 18 1 18 19
M  V30 19 1 19 20
M  V30 20 3 20 21
M  V30 21 2 19 22
M  V30 22 1 22 23
M  V30 23 2 7 24
M  V30 24 1 24 25
M  V30 25 2 25 26
M  V30 26 1 26 27
M  V30 27 1 27 28
M  V30 28 1 27 29
M  V30 29 1 29 30
M  V30 30 1 30 31
M  V30 31 1 26 5
M  V30 32 2 23 9
M  V30 33 1 15 13
M  V30 34 1 22 16
M  V30 35 1 1 32
M  V30 36 1 1 33
M  V30 37 1 1 34
M  V30 38 1 4 35
M  V30 39 1 6 36
M  V30 40 1 8 37
M  V30 41 1 10 38
M  V30 42 1 12 39
M  V30 43 1 13 40
M  V30 44 1 14 41
M  V30 45 1 14 42
M  V30 46 1 15 43
M  V30 47 1 15 44
M  V30 48 1 18 45
M  V30 49 1 24 46
M  V30 50 1 25 47
M  V30 51 1 28 48
M  V30 52 1 28 49
M  V30 53 1 28 50
M  V30 54 1 29 51
M  V30 55 1 29 52
M  V30 56 1 30 53
M  V30 57 1 30 54
M  V30 58 1 31 55
M  V30 59 1 31 56
M  V30 END BOND
M  V30 END CTAB
M  END
>  <Dataset>  (166) 
ChEMBL_Kinases

>  <Ligand_Instance>  (166) 
nan

>  <PDB_ID>  (166) 
nan

>  <Standardized_SMILES>  (166) 
CC(=O)Nc1cc(Nc2cc(NC3CC3)n3ncc(C#N)c3n2)ccc1N(C)CCN

>  <Name>  (166) 
nan

>  <Pocket>  (166) 
nan

>  <ATP_Site>  (166) 
nan

>  <Peripheral>  (166) 
nan

>  <Num_H_Atoms_ProtBoundConf>  (166) 
nan

>  <Num_Resolved_Atoms>  (166) 
nan

>  <Num_Not_Resolved_Atoms>  (166) 
nan

$$$$
CHEMBL490355
     RDKit          3D

  0  0  0  0  0  0  0  0  0  0999 V3000
M  V30 BEGIN CTAB
M  V30 COUNTS 30 32 0 0 0
M  V30 BEGIN ATOM
M  V30 1 O -2.676567 -0.520221 2.918710 0
M  V30 2 C -1.670600 -1.018211 2.384990 0
M  V30 3 C -0.843614 -0.350646 1.395780 0
M  V30 4 C -1.050589 0.886304 0.924879 0
M  V30 5 C -0.137396 1.435138 -0.063194 0
M  V30 6 C 1.186742 1.224242 0.376373 0
M  V30 7 C 2.266464 1.640570 -0.385326 0
M  V30 8 C 2.029538 2.273293 -1.604386 0
M  V30 9 O 3.021257 2.732358 -2.454522 0
M  V30 10 C 0.743309 2.480839 -2.040682 0
M  V30 11 O 0.313090 3.085279 -3.222459 0
M  V30 12 C -0.339032 2.075308 -1.293295 0
M  V30 13 O 0.167417 -1.278538 1.077694 0
M  V30 14 C -0.026033 -2.430817 1.817007 0
M  V30 15 C 0.730902 -3.610182 1.822989 0
M  V30 16 C 0.334466 -4.631990 2.655184 0
M  V30 17 O 0.974063 -5.868177 2.786217 0
M  V30 18 C -0.771351 -4.567085 3.490874 0
M  V30 19 C -1.507255 -3.392338 3.469156 0
M  V30 20 C -1.122690 -2.355355 2.638292 0
M  V30 21 H -1.876776 1.443781 1.287480 0
M  V30 22 H 1.546165 0.762091 1.291245 0
M  V30 23 H 3.305770 1.537134 -0.148888 0
M  V30 24 H 3.742434 2.191053 -2.888856 0
M  V30 25 H 0.296850 2.426530 -4.022852 0
M  V30 26 H -1.425931 2.133873 -1.453404 0
M  V30 27 H 1.607357 -3.782564 1.222151 0
M  V30 28 H 1.889284 -5.945667 2.349304 0
M  V30 29 H -1.125108 -5.339760 4.159850 0
M  V30 30 H -2.379291 -3.253384 4.092595 0
M  V30 END ATOM
M  V30 BEGIN BOND
M  V30 1 2 1 2
M  V30 2 1 2 3
M  V30 3 2 3 4
M  V30 4 1 4 5
M  V30 5 2 5 6
M  V30 6 1 6 7
M  V30 7 2 7 8
M  V30 8 1 8 9
M  V30 9 1 8 10
M  V30 10 1 10 11
M  V30 11 2 10 12
M  V30 12 1 3 13
M  V30 13 1 13 14
M  V30 14 2 14 15
M  V30 15 1 15 16
M  V30 16 1 16 17
M  V30 17 2 16 18
M  V30 18 1 18 19
M  V30 19 2 19 20
M  V30 20 1 20 2
M  V30 21 1 12 5
M  V30 22 1 20 14
M  V30 23 1 4 21
M  V30 24 1 6 22
M  V30 25 1 7 23
M  V30 26 1 9 24
M  V30 27 1 11 25
M  V30 28 1 12 26
M  V30 29 1 15 27
M  V30 30 1 17 28
M  V30 31 1 18 29
M  V30 32 1 19 30
M  V30 END BOND
M  V30 END CTAB
M  END
>  <Dataset>  (167) 
ChEMBL_Kinases

>  <Ligand_Instance>  (167) 
nan

>  <PDB_ID>  (167) 
nan

>  <Standardized_SMILES>  (167) 
O=C1/C(=C/c2ccc(O)c(O)c2)Oc2cc(O)ccc21

>  <Name>  (167) 
SULFURETIN

>  <Pocket>  (167) 
nan

>  <ATP_Site>  (167) 
nan

>  <Peripheral>  (167) 
nan

>  <Num_H_Atoms_ProtBoundConf>  (167) 
nan

>  <Num_Resolved_Atoms>  (167) 
nan

>  <Num_Not_Resolved_Atoms>  (167) 
nan

$$$$
CHEMBL3894571
     RDKit          3D

  0  0  0  0  0  0  0  0  0  0999 V3000
M  V30 BEGIN CTAB
M  V30 COUNTS 41 44 0 0 0
M  V30 BEGIN ATOM
M  V30 1 C 0.579640 -5.442480 2.428674 0
M  V30 2 O 1.163588 -4.516241 1.503105 0
M  V30 3 C 0.742006 -4.385933 0.213029 0
M  V30 4 N 0.329739 -5.427949 -0.369247 0
M  V30 5 C 0.729847 -3.127495 -0.553166 0
M  V30 6 N 0.408386 -2.705066 -1.616794 0
M  V30 7 C 0.526014 -1.466183 -2.038936 0
M  V30 8 C 0.151820 -0.951570 -3.285835 0
M  V30 9 C 0.349120 0.363664 -3.546245 0
M  V30 10 C 0.900070 1.296009 -2.688166 0
M  V30 11 N 1.106507 2.593362 -2.906999 0
M  V30 12 C 1.662153 3.353981 -1.929744 0
M  V30 13 N 2.024551 2.856048 -0.722289 0
M  V30 14 C 1.838845 1.552014 -0.447216 0
M  V30 15 N 2.211460 1.014033 0.813499 0
M  V30 16 C 1.245380 0.937982 1.853018 0
M  V30 17 C -0.030151 1.389859 1.587224 0
M  V30 18 C -0.994076 1.328847 2.570826 0
M  V30 19 C -0.680642 0.815545 3.819659 0
M  V30 20 O -1.623740 0.734086 4.844205 0
M  V30 21 C -2.942514 1.175189 4.640832 0
M  V30 22 C 0.612377 0.359263 4.084365 0
M  V30 23 C 1.581908 0.423131 3.087694 0
M  V30 24 F 2.828455 -0.026366 3.372033 0
M  V30 25 C 1.269280 0.803237 -1.466873 0
M  V30 26 C 1.083113 -0.557682 -1.151518 0
M  V30 27 S 1.388617 -1.610410 0.237961 0
M  V30 28 H 1.152675 -5.269718 3.386237 0
M  V30 29 H 0.755941 -6.496019 2.149192 0
M  V30 30 H -0.470686 -5.230653 2.615816 0
M  V30 31 H 0.274770 -6.379795 0.025571 0
M  V30 32 H -0.299229 -1.560145 -4.078338 0
M  V30 33 H 0.053612 0.765655 -4.527865 0
M  V30 34 H 1.821625 4.415552 -2.133656 0
M  V30 35 H 3.198640 0.678653 0.960008 0
M  V30 36 H -0.329032 1.794743 0.648033 0
M  V30 37 H -2.001916 1.679922 2.379553 0
M  V30 38 H -3.370723 0.655174 3.757353 0
M  V30 39 H -3.029250 2.254581 4.446782 0
M  V30 40 H -3.546459 0.869079 5.524047 0
M  V30 41 H 0.881115 -0.051956 5.069251 0
M  V30 END ATOM
M  V30 BEGIN BOND
M  V30 1 1 1 2
M  V30 2 1 2 3
M  V30 3 2 3 4 CFG=2
M  V30 4 1 3 5
M  V30 5 2 5 6
M  V30 6 1 6 7
M  V30 7 2 7 8
M  V30 8 1 8 9
M  V30 9 2 9 10
M  V30 10 1 10 11
M  V30 11 2 11 12
M  V30 12 1 12 13
M  V30 13 2 13 14
M  V30 14 1 14 15
M  V30 15 1 15 16
M  V30 16 2 16 17
M  V30 17 1 17 18
M  V30 18 2 18 19
M  V30 19 1 19 20
M  V30 20 1 20 21
M  V30 21 1 19 22
M  V30 22 2 22 23
M  V30 23 1 23 24
M  V30 24 1 14 25
M  V30 25 2 25 26
M  V30 26 1 26 27
M  V30 27 1 27 5
M  V30 28 1 26 7
M  V30 29 1 25 10
M  V30 30 1 23 16
M  V30 31 1 1 28
M  V30 32 1 1 29
M  V30 33 1 1 30
M  V30 34 1 4 31
M  V30 35 1 8 32
M  V30 36 1 9 33
M  V30 37 1 12 34
M  V30 38 1 15 35
M  V30 39 1 17 36
M  V30 40 1 18 37
M  V30 41 1 21 38
M  V30 42 1 21 39
M  V30 43 1 21 40
M  V30 44 1 22 41
M  V30 END BOND
M  V30 END CTAB
M  END
>  <Dataset>  (168) 
ChEMBL_Kinases

>  <Ligand_Instance>  (168) 
nan

>  <PDB_ID>  (168) 
nan

>  <Standardized_SMILES>  (168) 
COC(=N)c1nc2ccc3ncnc(Nc4ccc(OC)cc4F)c3c2s1

>  <Name>  (168) 
nan

>  <Pocket>  (168) 
nan

>  <ATP_Site>  (168) 
nan

>  <Peripheral>  (168) 
nan

>  <Num_H_Atoms_ProtBoundConf>  (168) 
nan

>  <Num_Resolved_Atoms>  (168) 
nan

>  <Num_Not_Resolved_Atoms>  (168) 
nan

$$$$
CHEMBL400402
     RDKit          3D

  0  0  0  0  0  0  0  0  0  0999 V3000
M  V30 BEGIN CTAB
M  V30 COUNTS 60 64 0 0 0
M  V30 BEGIN ATOM
M  V30 1 C 0.376076 2.254874 4.369846 0
M  V30 2 C 1.119135 2.519541 3.110878 0
M  V30 3 C 2.476100 2.824477 3.111716 0
M  V30 4 C 3.200774 3.076945 1.942793 0
M  V30 5 C 4.626823 3.388678 2.054592 0
M  V30 6 C 5.482464 2.660011 2.867049 0
M  V30 7 C 6.827649 2.945721 2.978534 0
M  V30 8 O 7.701009 2.234367 3.781429 0
M  V30 9 C 7.365499 3.995460 2.260835 0
M  V30 10 C 6.542159 4.741292 1.442670 0
M  V30 11 C 5.179228 4.442756 1.337406 0
M  V30 12 Cl 4.214868 5.433822 0.285305 0
M  V30 13 C 2.511588 3.013661 0.743744 0
M  V30 14 C 1.166009 2.709672 0.763864 0
M  V30 15 N 0.534994 2.657865 -0.422855 0
M  V30 16 N -0.771741 2.365006 -0.441900 0
M  V30 17 C -1.447460 2.126107 0.696942 0
M  V30 18 N -2.814062 1.841378 0.375962 0
M  V30 19 C -3.190786 0.485103 0.174968 0
M  V30 20 C -2.219929 -0.478741 0.342328 0
M  V30 21 C -2.538369 -1.804481 0.157132 0
M  V30 22 C -3.787671 -2.255405 -0.193261 0
M  V30 23 O -4.403351 -3.444886 -0.444375 0
M  V30 24 C -3.887672 -4.734585 -0.431015 0
M  V30 25 C -2.799128 -5.021602 -1.419622 0
M  V30 26 N -2.338003 -6.365215 -1.321721 0
M  V30 27 C -3.267572 -7.365764 -1.753990 0
M  V30 28 C -3.045206 -7.526648 -3.257456 0
M  V30 29 C -1.795597 -6.741546 -3.518125 0
M  V30 30 C -1.174085 -6.593160 -2.143569 0
M  V30 31 C -4.757676 -1.252505 -0.357374 0
M  V30 32 C -4.470053 0.108873 -0.176464 0
M  V30 33 N -0.869183 2.163409 1.915974 0
M  V30 34 C 0.452995 2.461222 1.915414 0
M  V30 35 H 1.045118 2.039730 5.219258 0
M  V30 36 H -0.271030 1.339281 4.248237 0
M  V30 37 H -0.343218 3.074068 4.602754 0
M  V30 38 H 2.966906 2.859393 4.094079 0
M  V30 39 H 5.069530 1.837971 3.431259 0
M  V30 40 H 8.096000 1.348138 3.470443 0
M  V30 41 H 8.405465 4.287873 2.288419 0
M  V30 42 H 6.946724 5.581362 0.860735 0
M  V30 43 H 3.059709 3.206391 -0.168467 0
M  V30 44 H -3.485969 2.645183 0.301778 0
M  V30 45 H -1.189212 -0.311169 0.615397 0
M  V30 46 H -1.856166 -2.627455 0.276045 0
M  V30 47 H -4.747108 -5.428397 -0.631319 0
M  V30 48 H -3.470119 -4.993533 0.588334 0
M  V30 49 H -1.928571 -4.359532 -1.245194 0
M  V30 50 H -3.153209 -4.822417 -2.467823 0
M  V30 51 H -2.957677 -8.325353 -1.255572 0
M  V30 52 H -4.318166 -7.145223 -1.528160 0
M  V30 53 H -3.931528 -7.120570 -3.805744 0
M  V30 54 H -2.908160 -8.599355 -3.475804 0
M  V30 55 H -2.022166 -5.729715 -3.888894 0
M  V30 56 H -1.090678 -7.282266 -4.188247 0
M  V30 57 H -0.485292 -5.729055 -2.090921 0
M  V30 58 H -0.722698 -7.553211 -1.825620 0
M  V30 59 H -5.811086 -1.333475 -0.628653 0
M  V30 60 H -5.140551 0.930672 -0.279109 0
M  V30 END ATOM
M  V30 BEGIN BOND
M  V30 1 1 1 2
M  V30 2 2 2 3
M  V30 3 1 3 4
M  V30 4 1 4 5
M  V30 5 2 5 6
M  V30 6 1 6 7
M  V30 7 1 7 8
M  V30 8 2 7 9
M  V30 9 1 9 10
M  V30 10 2 10 11
M  V30 11 1 11 12
M  V30 12 2 4 13
M  V30 13 1 13 14
M  V30 14 2 14 15
M  V30 15 1 15 16
M  V30 16 2 16 17
M  V30 17 1 17 18
M  V30 18 1 18 19
M  V30 19 2 19 20
M  V30 20 1 20 21
M  V30 21 2 21 22
M  V30 22 1 22 23
M  V30 23 1 23 24
M  V30 24 1 24 25
M  V30 25 1 25 26
M  V30 26 1 26 27
M  V30 27 1 27 28
M  V30 28 1 28 29
M  V30 29 1 29 30
M  V30 30 1 22 31
M  V30 31 2 31 32
M  V30 32 1 17 33
M  V30 33 2 33 34
M  V30 34 1 34 2
M  V30 35 1 11 5
M  V30 36 1 34 14
M  V30 37 1 32 19
M  V30 38 1 30 26
M  V30 39 1 1 35
M  V30 40 1 1 36
M  V30 41 1 1 37
M  V30 42 1 3 38
M  V30 43 1 6 39
M  V30 44 1 8 40
M  V30 45 1 9 41
M  V30 46 1 10 42
M  V30 47 1 13 43
M  V30 48 1 18 44
M  V30 49 1 20 45
M  V30 50 1 21 46
M  V30 51 1 24 47
M  V30 52 1 24 48
M  V30 53 1 25 49
M  V30 54 1 25 50
M  V30 55 1 27 51
M  V30 56 1 27 52
M  V30 57 1 28 53
M  V30 58 1 28 54
M  V30 59 1 29 55
M  V30 60 1 29 56
M  V30 61 1 30 57
M  V30 62 1 30 58
M  V30 63 1 31 59
M  V30 64 1 32 60
M  V30 END BOND
M  V30 END CTAB
M  END
>  <Dataset>  (169) 
ChEMBL_Kinases

>  <Ligand_Instance>  (169) 
nan

>  <PDB_ID>  (169) 
nan

>  <Standardized_SMILES>  (169) 
Cc1cc(-c2cc(O)ccc2Cl)cc2nnc(Nc3ccc(OCCN4CCCC4)cc3)nc12

>  <Name>  (169) 
nan

>  <Pocket>  (169) 
nan

>  <ATP_Site>  (169) 
nan

>  <Peripheral>  (169) 
nan

>  <Num_H_Atoms_ProtBoundConf>  (169) 
nan

>  <Num_Resolved_Atoms>  (169) 
nan

>  <Num_Not_Resolved_Atoms>  (169) 
nan

$$$$
CHEMBL1232500
     RDKit          3D

  0  0  0  0  0  0  0  0  0  0999 V3000
M  V30 BEGIN CTAB
M  V30 COUNTS 29 30 0 0 0
M  V30 BEGIN ATOM
M  V30 1 C -2.257259 -0.455617 2.385523 0
M  V30 2 C -0.899426 0.242837 2.417521 0
M  V30 3 N -0.033577 -0.266194 1.369393 0
M  V30 4 C 0.466401 -1.592480 1.442447 0
M  V30 5 C 0.290602 -2.515401 2.340840 0
M  V30 6 C 0.813232 -3.868094 2.390611 0
M  V30 7 C 1.689039 -4.548630 1.409991 0
M  V30 8 O 0.506703 -4.585524 3.374401 0
M  V30 9 S 1.485100 -1.871242 -0.003492 0
M  V30 10 C 1.211462 -0.218980 -0.688628 0
M  V30 11 C 1.691282 0.330140 -1.848220 0
M  V30 12 C 1.353896 1.621297 -2.177269 0
M  V30 13 C 0.535653 2.280276 -1.287412 0
M  V30 14 O 0.189976 3.593222 -1.615471 0
M  V30 15 C 0.070460 1.699560 -0.130122 0
M  V30 16 C 0.393931 0.404389 0.224068 0
M  V30 17 H -2.209816 -1.230748 1.569225 0
M  V30 18 H -2.547303 -0.878566 3.360580 0
M  V30 19 H -3.056032 0.243867 2.099131 0
M  V30 20 H -0.430607 0.063942 3.424706 0
M  V30 21 H -1.032688 1.338975 2.372150 0
M  V30 22 H -0.347640 -2.203939 3.165868 0
M  V30 23 H 1.325471 -4.353605 0.357667 0
M  V30 24 H 1.611453 -5.656931 1.503904 0
M  V30 25 H 2.730824 -4.172763 1.482730 0
M  V30 26 H 2.323024 -0.266248 -2.474203 0
M  V30 27 H 1.697557 2.108394 -3.074382 0
M  V30 28 H 0.718403 4.355398 -1.215632 0
M  V30 29 H -0.567227 2.350266 0.472768 0
M  V30 END ATOM
M  V30 BEGIN BOND
M  V30 1 1 1 2
M  V30 2 1 2 3
M  V30 3 1 3 4
M  V30 4 2 4 5
M  V30 5 1 5 6
M  V30 6 1 6 7
M  V30 7 2 6 8
M  V30 8 1 4 9
M  V30 9 1 9 10
M  V30 10 2 10 11
M  V30 11 1 11 12
M  V30 12 2 12 13
M  V30 13 1 13 14
M  V30 14 1 13 15
M  V30 15 2 15 16
M  V30 16 1 16 3
M  V30 17 1 16 10
M  V30 18 1 1 17
M  V30 19 1 1 18
M  V30 20 1 1 19
M  V30 21 1 2 20
M  V30 22 1 2 21
M  V30 23 1 5 22
M  V30 24 1 7 23
M  V30 25 1 7 24
M  V30 26 1 7 25
M  V30 27 1 11 26
M  V30 28 1 12 27
M  V30 29 1 14 28
M  V30 30 1 15 29
M  V30 END BOND
M  V30 END CTAB
M  END
>  <Dataset>  (170) 
ChEMBL_Kinases

>  <Ligand_Instance>  (170) 
nan

>  <PDB_ID>  (170) 
nan

>  <Standardized_SMILES>  (170) 
CCN1/C(=C/C(C)=O)Sc2ccc(O)cc21

>  <Name>  (170) 
nan

>  <Pocket>  (170) 
nan

>  <ATP_Site>  (170) 
nan

>  <Peripheral>  (170) 
nan

>  <Num_H_Atoms_ProtBoundConf>  (170) 
nan

>  <Num_Resolved_Atoms>  (170) 
nan

>  <Num_Not_Resolved_Atoms>  (170) 
nan

$$$$
CHEMBL5081787
     RDKit          3D

  0  0  0  0  0  0  0  0  0  0999 V3000
M  V30 BEGIN CTAB
M  V30 COUNTS 36 39 0 0 0
M  V30 BEGIN ATOM
M  V30 1 O 2.291458 1.124960 3.338322 0
M  V30 2 C 1.937873 0.475771 2.316972 0
M  V30 3 N 2.811229 0.150999 1.299342 0
M  V30 4 C 2.315984 -0.509953 0.320104 0
M  V30 5 N 3.129442 -0.896814 -0.776833 0
M  V30 6 C 3.890602 -0.071868 -1.602342 0
M  V30 7 C 3.936076 1.293752 -1.667565 0
M  V30 8 Cl 2.875697 2.180040 -0.616334 0
M  V30 9 C 4.733144 2.038589 -2.504319 0
M  V30 10 C 5.572333 1.386977 -3.367216 0
M  V30 11 C 5.565848 0.004878 -3.343485 0
M  V30 12 C 4.757828 -0.720109 -2.495591 0
M  V30 13 Cl 4.904964 -2.467131 -2.619001 0
M  V30 14 S 0.571852 -0.822103 0.567942 0
M  V30 15 C 0.559595 0.033501 2.168955 0
M  V30 16 C -0.526447 0.106835 2.884001 0
M  V30 17 C -1.804585 -0.457496 2.436797 0
M  V30 18 C -2.229187 -0.286166 1.126328 0
M  V30 19 C -3.405978 -0.810747 0.659151 0
M  V30 20 C -4.218011 -1.539434 1.501651 0
M  V30 21 N -5.387905 -2.086378 1.114046 0
M  V30 22 C -6.170481 -2.799556 1.954483 0
M  V30 23 C -5.709758 -2.948029 3.260590 0
M  V30 24 N -4.545578 -2.401026 3.637657 0
M  V30 25 C -3.761780 -1.692687 2.814598 0
M  V30 26 C -2.587362 -1.177161 3.304278 0
M  V30 27 H 3.107046 -1.947942 -0.957944 0
M  V30 28 H 4.712923 3.119098 -2.496497 0
M  V30 29 H 6.218639 1.925027 -4.045545 0
M  V30 30 H 6.248496 -0.479841 -4.047773 0
M  V30 31 H -0.378777 0.630966 3.841540 0
M  V30 32 H -1.679085 0.270085 0.384936 0
M  V30 33 H -3.763006 -0.695745 -0.355263 0
M  V30 34 H -7.086345 -3.194151 1.537621 0
M  V30 35 H -6.374738 -3.529688 3.894513 0
M  V30 36 H -2.298339 -1.334324 4.326864 0
M  V30 END ATOM
M  V30 BEGIN BOND
M  V30 1 2 1 2
M  V30 2 1 2 3
M  V30 3 2 3 4
M  V30 4 1 4 5
M  V30 5 1 5 6
M  V30 6 2 6 7
M  V30 7 1 7 8
M  V30 8 1 7 9
M  V30 9 2 9 10
M  V30 10 1 10 11
M  V30 11 2 11 12
M  V30 12 1 12 13
M  V30 13 1 4 14
M  V30 14 1 14 15
M  V30 15 2 15 16
M  V30 16 1 16 17
M  V30 17 2 17 18
M  V30 18 1 18 19
M  V30 19 2 19 20
M  V30 20 1 20 21
M  V30 21 2 21 22
M  V30 22 1 22 23
M  V30 23 2 23 24
M  V30 24 1 24 25
M  V30 25 2 25 26
M  V30 26 1 15 2
M  V30 27 1 26 17
M  V30 28 1 12 6
M  V30 29 1 25 20
M  V30 30 1 5 27
M  V30 31 1 9 28
M  V30 32 1 10 29
M  V30 33 1 11 30
M  V30 34 1 16 31
M  V30 35 1 18 32
M  V30 36 1 19 33
M  V30 37 1 22 34
M  V30 38 1 23 35
M  V30 39 1 26 36
M  V30 END BOND
M  V30 END CTAB
M  END
>  <Dataset>  (171) 
ChEMBL_Kinases

>  <Ligand_Instance>  (171) 
nan

>  <PDB_ID>  (171) 
nan

>  <Standardized_SMILES>  (171) 
O=C1N=C(Nc2c(Cl)cccc2Cl)S/C1=C\c1ccc2nccnc2c1

>  <Name>  (171) 
nan

>  <Pocket>  (171) 
nan

>  <ATP_Site>  (171) 
nan

>  <Peripheral>  (171) 
nan

>  <Num_H_Atoms_ProtBoundConf>  (171) 
nan

>  <Num_Resolved_Atoms>  (171) 
nan

>  <Num_Not_Resolved_Atoms>  (171) 
nan

$$$$
CHEMBL1952329
     RDKit          3D

  0  0  0  0  0  0  0  0  0  0999 V3000
M  V30 BEGIN CTAB
M  V30 COUNTS 51 54 0 0 0
M  V30 BEGIN ATOM
M  V30 1 C -0.442219 -3.891407 -1.035052 0
M  V30 2 N 0.140972 -4.301680 0.231180 0
M  V30 3 C -0.241290 -3.315573 1.229522 0
M  V30 4 C 0.695987 -2.108003 1.024456 0
M  V30 5 C 1.990628 -2.448547 1.672529 0
M  V30 6 C 3.186766 -1.679797 1.216156 0
M  V30 7 N 3.111151 -0.258360 1.387270 0
M  V30 8 C 2.361518 0.723192 0.691721 0
M  V30 9 C 3.247464 1.495292 -0.073199 0
M  V30 10 C 2.850200 2.557285 -0.895004 0
M  V30 11 C 1.483211 2.862935 -0.953071 0
M  V30 12 N 0.760677 3.783930 -1.611122 0
M  V30 13 C -0.543210 3.578955 -1.256081 0
M  V30 14 C -0.552408 2.511907 -0.374121 0
M  V30 15 C -1.785364 1.967797 0.232938 0
M  V30 16 C -2.831392 1.856375 -0.693795 0
M  V30 17 C -4.070334 1.364006 -0.374531 0
M  V30 18 C -4.256385 0.969517 0.931356 0
M  V30 19 C -3.245810 1.067547 1.863006 0
M  V30 20 O -3.417934 0.669783 3.190327 0
M  V30 21 C -3.143970 -0.640167 3.628253 0
M  V30 22 F -3.389243 -0.820420 4.985098 0
M  V30 23 F -3.783363 -1.620831 2.931349 0
M  V30 24 F -1.769839 -0.870297 3.456415 0
M  V30 25 C -1.991646 1.568567 1.533447 0
M  V30 26 N 0.704876 2.076828 -0.192616 0
M  V30 27 N 1.080395 1.089716 0.570919 0
M  V30 28 C 2.272723 -3.913604 1.382520 0
M  V30 29 C 1.584939 -4.397972 0.118611 0
M  V30 30 H -0.889887 -2.861347 -0.982619 0
M  V30 31 H 0.251401 -3.902197 -1.881293 0
M  V30 32 H -1.328547 -4.561289 -1.175816 0
M  V30 33 H -1.300789 -3.011234 1.121390 0
M  V30 34 H -0.079529 -3.687394 2.246274 0
M  V30 35 H 0.221097 -1.302182 1.638697 0
M  V30 36 H 0.722728 -1.920333 -0.047439 0
M  V30 37 H 1.839254 -2.373784 2.777446 0
M  V30 38 H 3.451042 -1.924282 0.142169 0
M  V30 39 H 4.055328 -2.074039 1.788270 0
M  V30 40 H 3.691551 0.195362 2.155911 0
M  V30 41 H 4.328897 1.393467 -0.142851 0
M  V30 42 H 3.482167 3.165964 -1.488575 0
M  V30 43 H -1.354359 4.180513 -1.635855 0
M  V30 44 H -2.736760 2.156380 -1.740482 0
M  V30 45 H -4.872202 1.283118 -1.095043 0
M  V30 46 H -5.183643 0.567202 1.299828 0
M  V30 47 H -1.135201 1.690385 2.174696 0
M  V30 48 H 1.947259 -4.565616 2.231980 0
M  V30 49 H 3.362588 -4.107575 1.240989 0
M  V30 50 H 1.933024 -3.862394 -0.765041 0
M  V30 51 H 1.835179 -5.482406 0.043543 0
M  V30 END ATOM
M  V30 BEGIN BOND
M  V30 1 1 1 2
M  V30 2 1 2 3
M  V30 3 1 3 4
M  V30 4 1 4 5
M  V30 5 1 5 6
M  V30 6 1 6 7
M  V30 7 1 7 8
M  V30 8 1 8 9
M  V30 9 2 9 10
M  V30 10 1 10 11
M  V30 11 2 11 12
M  V30 12 1 12 13
M  V30 13 2 13 14
M  V30 14 1 14 15
M  V30 15 2 15 16
M  V30 16 1 16 17
M  V30 17 2 17 18
M  V30 18 1 18 19
M  V30 19 1 19 20
M  V30 20 1 20 21
M  V30 21 1 21 22
M  V30 22 1 21 23
M  V30 23 1 21 24
M  V30 24 2 19 25
M  V30 25 1 14 26
M  V30 26 1 26 27
M  V30 27 1 5 28
M  V30 28 1 28 29
M  V30 29 1 29 2
M  V30 30 2 27 8
M  V30 31 1 26 11
M  V30 32 1 25 15
M  V30 33 1 1 30
M  V30 34 1 1 31
M  V30 35 1 1 32
M  V30 36 1 3 33
M  V30 37 1 3 34
M  V30 38 1 4 35
M  V30 39 1 4 36
M  V30 40 1 5 37
M  V30 41 1 6 38
M  V30 42 1 6 39
M  V30 43 1 7 40
M  V30 44 1 9 41
M  V30 45 1 10 42
M  V30 46 1 13 43
M  V30 47 1 16 44
M  V30 48 1 17 45
M  V30 49 1 18 46
M  V30 50 1 25 47
M  V30 51 1 28 48
M  V30 52 1 28 49
M  V30 53 1 29 50
M  V30 54 1 29 51
M  V30 END BOND
M  V30 END CTAB
M  END
>  <Dataset>  (172) 
ChEMBL_Kinases

>  <Ligand_Instance>  (172) 
nan

>  <PDB_ID>  (172) 
nan

>  <Standardized_SMILES>  (172) 
CN1CCC(CNc2ccc3ncc(-c4cccc(OC(F)(F)F)c4)n3n2)CC1

>  <Name>  (172) 
SGI-1776

>  <Pocket>  (172) 
nan

>  <ATP_Site>  (172) 
nan

>  <Peripheral>  (172) 
nan

>  <Num_H_Atoms_ProtBoundConf>  (172) 
nan

>  <Num_Resolved_Atoms>  (172) 
nan

>  <Num_Not_Resolved_Atoms>  (172) 
nan

$$$$
CHEMBL1803069
     RDKit          3D

  0  0  0  0  0  0  0  0  0  0999 V3000
M  V30 BEGIN CTAB
M  V30 COUNTS 39 42 0 0 0
M  V30 BEGIN ATOM
M  V30 1 C 3.724782 1.051914 1.370159 0
M  V30 2 N 2.500257 0.304961 1.199017 0
M  V30 3 C 1.815060 -0.372495 2.244692 0
M  V30 4 O 2.076126 -0.482856 3.470076 0
M  V30 5 C 0.616874 -1.008899 1.656342 0
M  V30 6 C -0.281956 -1.734842 2.299933 0
M  V30 7 C -1.391157 -2.276627 1.546733 0
M  V30 8 C -2.614610 -2.302918 2.225613 0
M  V30 9 C -3.717166 -2.802026 1.581924 0
M  V30 10 C -3.691459 -3.285578 0.289307 0
M  V30 11 C -2.468485 -3.257091 -0.383253 0
M  V30 12 C -1.341502 -2.752923 0.258856 0
M  V30 13 O -2.684259 -3.781063 -1.634598 0
M  V30 14 C -4.075449 -3.870765 -1.886054 0
M  V30 15 O -4.621124 -3.832123 -0.585493 0
M  V30 16 N 0.681403 -0.655514 0.281682 0
M  V30 17 C 1.719696 0.067946 0.033103 0
M  V30 18 N 2.065945 0.578895 -1.247256 0
M  V30 19 C 1.099859 0.956897 -2.216126 0
M  V30 20 C 1.556491 1.421111 -3.456663 0
M  V30 21 C 0.755238 1.827204 -4.499487 0
M  V30 22 C -0.615859 1.781019 -4.329872 0
M  V30 23 C -1.089908 1.328525 -3.119577 0
M  V30 24 C -0.267801 0.926544 -2.087948 0
M  V30 25 H 4.245547 0.753206 2.280755 0
M  V30 26 H 4.443549 0.886614 0.535117 0
M  V30 27 H 3.544629 2.146374 1.428655 0
M  V30 28 H -0.204163 -1.932159 3.381299 0
M  V30 29 H -2.806978 -1.959458 3.250350 0
M  V30 30 H -4.697751 -2.854210 2.044323 0
M  V30 31 H -0.377615 -2.719590 -0.242001 0
M  V30 32 H -4.289867 -4.880396 -2.341061 0
M  V30 33 H -4.441452 -3.045376 -2.528151 0
M  V30 34 H 3.074935 0.671532 -1.459841 0
M  V30 35 H 2.636694 1.468073 -3.618425 0
M  V30 36 H 1.171690 2.172218 -5.424346 0
M  V30 37 H -1.258377 2.096211 -5.138374 0
M  V30 38 H -2.167992 1.272459 -2.933873 0
M  V30 39 H -0.675957 0.585541 -1.169734 0
M  V30 END ATOM
M  V30 BEGIN BOND
M  V30 1 1 1 2
M  V30 2 1 2 3
M  V30 3 2 3 4
M  V30 4 1 3 5
M  V30 5 2 5 6
M  V30 6 1 6 7
M  V30 7 2 7 8
M  V30 8 1 8 9
M  V30 9 2 9 10
M  V30 10 1 10 11
M  V30 11 2 11 12
M  V30 12 1 11 13
M  V30 13 1 13 14
M  V30 14 1 14 15
M  V30 15 1 5 16
M  V30 16 2 16 17
M  V30 17 1 17 18
M  V30 18 1 18 19
M  V30 19 2 19 20
M  V30 20 1 20 21
M  V30 21 2 21 22
M  V30 22 1 22 23
M  V30 23 2 23 24
M  V30 24 1 17 2
M  V30 25 1 24 19
M  V30 26 1 12 7
M  V30 27 1 15 10
M  V30 28 1 1 25
M  V30 29 1 1 26
M  V30 30 1 1 27
M  V30 31 1 6 28
M  V30 32 1 8 29
M  V30 33 1 9 30
M  V30 34 1 12 31
M  V30 35 1 14 32
M  V30 36 1 14 33
M  V30 37 1 18 34
M  V30 38 1 20 35
M  V30 39 1 21 36
M  V30 40 1 22 37
M  V30 41 1 23 38
M  V30 42 1 24 39
M  V30 END BOND
M  V30 END CTAB
M  END
>  <Dataset>  (173) 
ChEMBL_Kinases

>  <Ligand_Instance>  (173) 
nan

>  <PDB_ID>  (173) 
nan

>  <Standardized_SMILES>  (173) 
CN1C(=O)/C(=C/c2ccc3c(c2)OCO3)N=C1Nc1ccccc1

>  <Name>  (173) 
nan

>  <Pocket>  (173) 
nan

>  <ATP_Site>  (173) 
nan

>  <Peripheral>  (173) 
nan

>  <Num_H_Atoms_ProtBoundConf>  (173) 
nan

>  <Num_Resolved_Atoms>  (173) 
nan

>  <Num_Not_Resolved_Atoms>  (173) 
nan

$$$$
CHEMBL2147538
     RDKit          3D

  0  0  0  0  0  0  0  0  0  0999 V3000
M  V30 BEGIN CTAB
M  V30 COUNTS 41 43 0 0 0
M  V30 BEGIN ATOM
M  V30 1 C -0.268514 -2.848341 3.483759 0
M  V30 2 C -0.134229 -3.648477 2.213141 0
M  V30 3 C -0.696966 -5.021952 2.479647 0
M  V30 4 N 1.253151 -3.784297 1.900094 0
M  V30 5 C -0.924082 -2.984669 1.101860 0
M  V30 6 N -0.565356 -1.689041 0.763764 0
M  V30 7 C -0.200597 -0.371912 0.420035 0
M  V30 8 N 0.975438 0.117699 0.006042 0
M  V30 9 C 1.209580 1.397486 -0.287709 0
M  V30 10 C 2.550587 1.738850 -0.717498 0
M  V30 11 C 2.893481 3.029373 -1.043191 0
M  V30 12 C 4.159116 3.396360 -1.454893 0
M  V30 13 N 5.115016 2.449565 -1.545588 0
M  V30 14 C 4.815317 1.155129 -1.230867 0
M  V30 15 C 3.548220 0.794764 -0.820076 0
M  V30 16 C 0.123732 2.209798 -0.131517 0
M  V30 17 C -1.137706 1.851962 0.282439 0
M  V30 18 C -2.124521 2.809662 0.383478 0
M  V30 19 N -3.336326 2.396269 0.791533 0
M  V30 20 C -3.573871 1.106496 1.087446 0
M  V30 21 C -2.574684 0.167419 0.979931 0
M  V30 22 C -1.289242 0.489933 0.567963 0
M  V30 23 H 0.336868 -1.916958 3.474269 0
M  V30 24 H 0.091702 -3.526312 4.307195 0
M  V30 25 H -1.319547 -2.555052 3.683215 0
M  V30 26 H -0.120194 -5.510952 3.284846 0
M  V30 27 H -0.747579 -5.645250 1.568411 0
M  V30 28 H -1.751903 -4.854353 2.817374 0
M  V30 29 H 1.892896 -3.652071 2.702900 0
M  V30 30 H 1.484416 -4.574122 1.282264 0
M  V30 31 H -2.007958 -3.030838 1.499614 0
M  V30 32 H -0.929745 -3.712095 0.233676 0
M  V30 33 H 0.397625 -2.127043 0.567616 0
M  V30 34 H 2.109629 3.752567 -0.958404 0
M  V30 35 H 4.421480 4.426284 -1.711730 0
M  V30 36 H 5.548613 0.350754 -1.285422 0
M  V30 37 H 3.288327 -0.241618 -0.562736 0
M  V30 38 H 0.273529 3.247335 -0.358659 0
M  V30 39 H -1.934462 3.832673 0.148314 0
M  V30 40 H -4.535829 0.741226 1.417423 0
M  V30 41 H -2.762576 -0.862301 1.215125 0
M  V30 END ATOM
M  V30 BEGIN BOND
M  V30 1 1 1 2
M  V30 2 1 2 3
M  V30 3 1 2 4
M  V30 4 1 2 5
M  V30 5 1 5 6
M  V30 6 1 6 7
M  V30 7 2 7 8
M  V30 8 1 8 9
M  V30 9 1 9 10
M  V30 10 2 10 11
M  V30 11 1 11 12
M  V30 12 2 12 13
M  V30 13 1 13 14
M  V30 14 2 14 15
M  V30 15 2 9 16
M  V30 16 1 16 17
M  V30 17 2 17 18
M  V30 18 1 18 19
M  V30 19 2 19 20
M  V30 20 1 20 21
M  V30 21 2 21 22
M  V30 22 1 22 7
M  V30 23 1 15 10
M  V30 24 1 22 17
M  V30 25 1 1 23
M  V30 26 1 1 24
M  V30 27 1 1 25
M  V30 28 1 3 26
M  V30 29 1 3 27
M  V30 30 1 3 28
M  V30 31 1 4 29
M  V30 32 1 4 30
M  V30 33 1 5 31
M  V30 34 1 5 32
M  V30 35 1 6 33
M  V30 36 1 11 34
M  V30 37 1 12 35
M  V30 38 1 14 36
M  V30 39 1 15 37
M  V30 40 1 16 38
M  V30 41 1 18 39
M  V30 42 1 20 40
M  V30 43 1 21 41
M  V30 END BOND
M  V30 END CTAB
M  END
>  <Dataset>  (174) 
ChEMBL_Kinases

>  <Ligand_Instance>  (174) 
nan

>  <PDB_ID>  (174) 
nan

>  <Standardized_SMILES>  (174) 
CC(C)(N)CNc1nc(-c2ccncc2)cc2cnccc12

>  <Name>  (174) 
nan

>  <Pocket>  (174) 
nan

>  <ATP_Site>  (174) 
nan

>  <Peripheral>  (174) 
nan

>  <Num_H_Atoms_ProtBoundConf>  (174) 
nan

>  <Num_Resolved_Atoms>  (174) 
nan

>  <Num_Not_Resolved_Atoms>  (174) 
nan

$$$$
CHEMBL1803085
     RDKit          3D

  0  0  0  0  0  0  0  0  0  0999 V3000
M  V30 BEGIN CTAB
M  V30 COUNTS 37 40 0 0 0
M  V30 BEGIN ATOM
M  V30 1 O -1.257092 2.213071 4.570040 0
M  V30 2 C -0.597161 1.403181 3.853719 0
M  V30 3 N 0.751361 1.023134 4.201321 0
M  V30 4 C 1.088211 0.123744 3.143253 0
M  V30 5 N 2.330682 -0.578586 2.974477 0
M  V30 6 C 2.983184 -0.802771 1.734253 0
M  V30 7 C 4.101742 -1.600541 1.660320 0
M  V30 8 C 4.740873 -1.814001 0.459312 0
M  V30 9 C 4.290964 -1.242642 -0.707533 0
M  V30 10 O 4.891602 -1.419570 -1.947713 0
M  V30 11 C 3.165131 -0.431174 -0.674184 0
M  V30 12 C 2.549764 -0.240809 0.555282 0
M  V30 13 N 0.124659 -0.042245 2.270839 0
M  V30 14 C -1.000768 0.739506 2.643000 0
M  V30 15 C -2.187094 0.850445 2.033464 0
M  V30 16 C -2.449768 0.111164 0.805980 0
M  V30 17 C -3.718967 -0.416124 0.685422 0
M  V30 18 C -4.108920 -1.144319 -0.439154 0
M  V30 19 C -3.180306 -1.340871 -1.467924 0
M  V30 20 C -1.893588 -0.804479 -1.343325 0
M  V30 21 C -1.569736 -0.093681 -0.206868 0
M  V30 22 O -1.208618 -1.165799 -2.519012 0
M  V30 23 C -1.854434 -2.360266 -2.982692 0
M  V30 24 O -3.205209 -1.997711 -2.707903 0
M  V30 25 H 1.390812 1.277047 4.985523 0
M  V30 26 H 2.786490 -0.947643 3.861960 0
M  V30 27 H 4.531106 -2.096134 2.540397 0
M  V30 28 H 5.633166 -2.455718 0.413828 0
M  V30 29 H 4.376879 -1.288009 -2.807575 0
M  V30 30 H 2.783342 0.032668 -1.571441 0
M  V30 31 H 1.684018 0.400250 0.539757 0
M  V30 32 H -2.902797 1.508873 2.512825 0
M  V30 33 H -4.525414 -0.336491 1.404753 0
M  V30 34 H -5.092002 -1.584832 -0.593704 0
M  V30 35 H -0.599782 0.316977 -0.106757 0
M  V30 36 H -1.654688 -2.581614 -4.037151 0
M  V30 37 H -1.599994 -3.170455 -2.293817 0
M  V30 END ATOM
M  V30 BEGIN BOND
M  V30 1 2 1 2
M  V30 2 1 2 3
M  V30 3 1 3 4
M  V30 4 1 4 5
M  V30 5 1 5 6
M  V30 6 2 6 7
M  V30 7 1 7 8
M  V30 8 2 8 9
M  V30 9 1 9 10
M  V30 10 1 9 11
M  V30 11 2 11 12
M  V30 12 2 4 13
M  V30 13 1 13 14
M  V30 14 2 14 15
M  V30 15 1 15 16
M  V30 16 2 16 17
M  V30 17 1 17 18
M  V30 18 2 18 19
M  V30 19 1 19 20
M  V30 20 2 20 21
M  V30 21 1 20 22
M  V30 22 1 22 23
M  V30 23 1 23 24
M  V30 24 1 14 2
M  V30 25 1 21 16
M  V30 26 1 12 6
M  V30 27 1 24 19
M  V30 28 1 3 25
M  V30 29 1 5 26
M  V30 30 1 7 27
M  V30 31 1 8 28
M  V30 32 1 10 29
M  V30 33 1 11 30
M  V30 34 1 12 31
M  V30 35 1 15 32
M  V30 36 1 17 33
M  V30 37 1 18 34
M  V30 38 1 21 35
M  V30 39 1 23 36
M  V30 40 1 23 37
M  V30 END BOND
M  V30 END CTAB
M  END
>  <Dataset>  (175) 
ChEMBL_Kinases

>  <Ligand_Instance>  (175) 
nan

>  <PDB_ID>  (175) 
nan

>  <Standardized_SMILES>  (175) 
O=C1NC(Nc2ccc(O)cc2)=N/C1=C\c1ccc2c(c1)OCO2

>  <Name>  (175) 
nan

>  <Pocket>  (175) 
nan

>  <ATP_Site>  (175) 
nan

>  <Peripheral>  (175) 
nan

>  <Num_H_Atoms_ProtBoundConf>  (175) 
nan

>  <Num_Resolved_Atoms>  (175) 
nan

>  <Num_Not_Resolved_Atoms>  (175) 
nan

$$$$
CHEMBL4754195
     RDKit          3D

  0  0  0  0  0  0  0  0  0  0999 V3000
M  V30 BEGIN CTAB
M  V30 COUNTS 43 47 0 0 0
M  V30 BEGIN ATOM
M  V30 1 C -1.009933 -4.454554 3.220024 0
M  V30 2 N -0.795984 -4.317822 1.772525 0
M  V30 3 C -0.216873 -3.236591 1.173035 0
M  V30 4 C -0.196530 -3.485272 -0.185892 0
M  V30 5 C 0.344685 -2.570338 -1.192310 0
M  V30 6 C 0.341260 -2.861803 -2.519279 0
M  V30 7 C 0.874494 -1.940297 -3.417278 0
M  V30 8 C 1.407040 -0.732732 -2.973497 0
M  V30 9 O 1.958149 0.286778 -3.588496 0
M  V30 10 C 2.316232 1.215687 -2.744346 0
M  V30 11 C 1.967389 0.760307 -1.468506 0
M  V30 12 C 2.125234 1.374287 -0.142174 0
M  V30 13 C 3.259491 2.010925 0.341280 0
M  V30 14 C 3.246252 2.537894 1.616262 0
M  V30 15 C 2.131103 2.449240 2.428390 0
M  V30 16 C 0.976952 1.827327 1.998497 0
M  V30 17 C -0.240918 1.692012 2.793180 0
M  V30 18 C -1.061882 0.593162 2.618409 0
M  V30 19 C -2.213904 0.428525 3.344258 0
M  V30 20 N -2.574255 1.338022 4.248864 0
M  V30 21 C -1.806994 2.439306 4.464601 0
M  V30 22 C -0.631458 2.609913 3.725773 0
M  V30 23 C 1.023102 1.308816 0.713566 0
M  V30 24 C 1.376798 -0.502677 -1.604912 0
M  V30 25 N 0.858425 -1.403660 -0.755998 0
M  V30 26 C -0.771342 -4.729304 -0.388099 0
M  V30 27 N -1.120007 -5.194940 0.837841 0
M  V30 28 H -0.939065 -5.498045 3.541041 0
M  V30 29 H -2.003924 -4.070070 3.519192 0
M  V30 30 H -0.254513 -3.836892 3.774695 0
M  V30 31 H 0.144041 -2.366427 1.715592 0
M  V30 32 H -0.062504 -3.785029 -2.891605 0
M  V30 33 H 0.889725 -2.136488 -4.481315 0
M  V30 34 H 2.792242 2.181803 -2.876237 0
M  V30 35 H 4.092822 2.043342 -0.346680 0
M  V30 36 H 4.146780 3.029531 1.966989 0
M  V30 37 H 2.131675 2.870690 3.437733 0
M  V30 38 H -0.820713 -0.176637 1.899409 0
M  V30 39 H -2.913275 -0.388134 3.279585 0
M  V30 40 H -2.033302 3.223254 5.182740 0
M  V30 41 H 0.021202 3.466191 3.852515 0
M  V30 42 H 0.109423 0.811909 0.362276 0
M  V30 43 H -0.892172 -5.190591 -1.362859 0
M  V30 END ATOM
M  V30 BEGIN BOND
M  V30 1 1 1 2
M  V30 2 1 2 3
M  V30 3 2 3 4
M  V30 4 1 4 5
M  V30 5 2 5 6
M  V30 6 1 6 7
M  V30 7 2 7 8
M  V30 8 1 8 9
M  V30 9 1 9 10
M  V30 10 2 10 11
M  V30 11 1 11 12
M  V30 12 2 12 13
M  V30 13 1 13 14
M  V30 14 2 14 15
M  V30 15 1 15 16
M  V30 16 1 16 17
M  V30 17 2 17 18
M  V30 18 1 18 19
M  V30 19 2 19 20
M  V30 20 1 20 21
M  V30 21 2 21 22
M  V30 22 2 16 23
M  V30 23 1 11 24
M  V30 24 2 24 25
M  V30 25 1 4 26
M  V30 26 2 26 27
M  V30 27 1 27 2
M  V30 28 1 25 5
M  V30 29 1 24 8
M  V30 30 1 23 12
M  V30 31 1 22 17
M  V30 32 1 1 28
M  V30 33 1 1 29
M  V30 34 1 1 30
M  V30 35 1 3 31
M  V30 36 1 6 32
M  V30 37 1 7 33
M  V30 38 1 10 34
M  V30 39 1 13 35
M  V30 40 1 14 36
M  V30 41 1 15 37
M  V30 42 1 18 38
M  V30 43 1 19 39
M  V30 44 1 21 40
M  V30 45 1 22 41
M  V30 46 1 23 42
M  V30 47 1 26 43
M  V30 END BOND
M  V30 END CTAB
M  END
>  <Dataset>  (176) 
ChEMBL_Kinases

>  <Ligand_Instance>  (176) 
nan

>  <PDB_ID>  (176) 
nan

>  <Standardized_SMILES>  (176) 
Cn1cc(-c2ccc3occ(-c4cccc(-c5ccncc5)c4)c3n2)cn1

>  <Name>  (176) 
nan

>  <Pocket>  (176) 
nan

>  <ATP_Site>  (176) 
nan

>  <Peripheral>  (176) 
nan

>  <Num_H_Atoms_ProtBoundConf>  (176) 
nan

>  <Num_Resolved_Atoms>  (176) 
nan

>  <Num_Not_Resolved_Atoms>  (176) 
nan

$$$$
CHEMBL1803079
     RDKit          3D

  0  0  0  0  0  0  0  0  0  0999 V3000
M  V30 BEGIN CTAB
M  V30 COUNTS 35 37 0 0 0
M  V30 BEGIN ATOM
M  V30 1 C -0.031165 -1.992089 2.811947 0
M  V30 2 C -0.474104 -3.403222 2.536311 0
M  V30 3 C -0.245663 -3.868490 1.121205 0
M  V30 4 N 1.142160 -3.841819 0.715750 0
M  V30 5 C 1.800493 -2.581169 0.537137 0
M  V30 6 N 1.212228 -1.488546 0.118143 0
M  V30 7 C 2.197595 -0.460876 0.078703 0
M  V30 8 C 1.951880 0.814165 -0.270356 0
M  V30 9 C 0.575287 1.209086 -0.642794 0
M  V30 10 C -0.346911 0.602517 -1.461867 0
M  V30 11 C -1.588387 1.130715 -1.640512 0
M  V30 12 C -1.915549 2.305718 -0.977060 0
M  V30 13 C -1.011630 2.958486 -0.134722 0
M  V30 14 C 0.242714 2.397798 0.026575 0
M  V30 15 O -1.687220 4.093411 0.353400 0
M  V30 16 C -3.090079 3.800213 0.268343 0
M  V30 17 O -3.100111 3.069203 -0.968813 0
M  V30 18 C 3.492751 -0.973862 0.509079 0
M  V30 19 O 4.586160 -0.403643 0.610845 0
M  V30 20 N 3.201362 -2.355800 0.800543 0
M  V30 21 H 1.040727 -1.822555 2.833440 0
M  V30 22 H -0.624627 -1.288769 2.181715 0
M  V30 23 H -0.381135 -1.779111 3.868039 0
M  V30 24 H -1.582825 -3.404927 2.757041 0
M  V30 25 H -0.041265 -4.093889 3.278259 0
M  V30 26 H -0.873026 -3.330780 0.392486 0
M  V30 27 H -0.620912 -4.935761 1.087049 0
M  V30 28 H 1.724064 -4.714494 0.537645 0
M  V30 29 H 2.758718 1.550010 -0.283181 0
M  V30 30 H 0.070129 -0.305742 -1.901599 0
M  V30 31 H -2.252697 0.609567 -2.290483 0
M  V30 32 H 0.885918 2.971113 0.702641 0
M  V30 33 H -3.290801 3.058587 1.070088 0
M  V30 34 H -3.724957 4.679641 0.261137 0
M  V30 35 H 3.895039 -3.076139 1.143155 0
M  V30 END ATOM
M  V30 BEGIN BOND
M  V30 1 1 1 2
M  V30 2 1 2 3
M  V30 3 1 3 4
M  V30 4 1 4 5
M  V30 5 2 5 6
M  V30 6 1 6 7
M  V30 7 2 7 8
M  V30 8 1 8 9
M  V30 9 2 9 10
M  V30 10 1 10 11
M  V30 11 2 11 12
M  V30 12 1 12 13
M  V30 13 2 13 14
M  V30 14 1 13 15
M  V30 15 1 15 16
M  V30 16 1 16 17
M  V30 17 1 7 18
M  V30 18 2 18 19
M  V30 19 1 18 20
M  V30 20 1 20 5
M  V30 21 1 14 9
M  V30 22 1 17 12
M  V30 23 1 1 21
M  V30 24 1 1 22
M  V30 25 1 1 23
M  V30 26 1 2 24
M  V30 27 1 2 25
M  V30 28 1 3 26
M  V30 29 1 3 27
M  V30 30 1 4 28
M  V30 31 1 8 29
M  V30 32 1 10 30
M  V30 33 1 11 31
M  V30 34 1 14 32
M  V30 35 1 16 33
M  V30 36 1 16 34
M  V30 37 1 20 35
M  V30 END BOND
M  V30 END CTAB
M  END
>  <Dataset>  (177) 
ChEMBL_Kinases

>  <Ligand_Instance>  (177) 
nan

>  <PDB_ID>  (177) 
nan

>  <Standardized_SMILES>  (177) 
CCCNC1=N/C(=C\c2ccc3c(c2)OCO3)C(=O)N1

>  <Name>  (177) 
nan

>  <Pocket>  (177) 
nan

>  <ATP_Site>  (177) 
nan

>  <Peripheral>  (177) 
nan

>  <Num_H_Atoms_ProtBoundConf>  (177) 
nan

>  <Num_Resolved_Atoms>  (177) 
nan

>  <Num_Not_Resolved_Atoms>  (177) 
nan

$$$$
CHEMBL4742990
     RDKit          3D

  0  0  0  0  0  0  0  0  0  0999 V3000
M  V30 BEGIN CTAB
M  V30 COUNTS 41 44 0 0 0
M  V30 BEGIN ATOM
M  V30 1 C 0.174402 -5.764804 1.618541 0
M  V30 2 O -0.864273 -5.559195 0.711756 0
M  V30 3 C -0.915601 -4.584292 -0.270502 0
M  V30 4 C -2.105972 -4.665286 -1.002060 0
M  V30 5 C -2.376326 -3.785971 -2.040477 0
M  V30 6 C -1.410680 -2.815373 -2.326311 0
M  V30 7 C -0.221904 -2.722199 -1.607743 0
M  V30 8 C 0.792143 -1.698936 -1.912168 0
M  V30 9 N 0.603129 -0.465441 -1.173700 0
M  V30 10 C -0.175970 0.503676 -1.736483 0
M  V30 11 N -0.424810 1.691527 -1.146675 0
M  V30 12 C 0.091294 2.005437 0.063635 0
M  V30 13 C -0.198878 3.235361 0.615249 0
M  V30 14 C 0.346405 3.525551 1.857479 0
M  V30 15 C 1.145974 2.555060 2.456196 0
M  V30 16 C 1.691988 2.920032 3.765559 0
M  V30 17 C 2.887621 2.530637 4.334416 0
M  V30 18 N 3.023626 3.091272 5.568476 0
M  V30 19 N 1.940188 3.816365 5.772580 0
M  V30 20 C 1.101504 3.749993 4.717281 0
M  V30 21 C 1.429988 1.314805 1.884368 0
M  V30 22 C 0.881114 1.035929 0.645518 0
M  V30 23 C 1.123964 -0.170552 0.028548 0
M  V30 24 O 1.837023 -1.039767 0.559147 0
M  V30 25 C 0.013639 -3.613201 -0.581630 0
M  V30 26 H 0.761013 -6.676784 1.323977 0
M  V30 27 H 0.804733 -4.871545 1.718071 0
M  V30 28 H -0.308993 -6.068131 2.588163 0
M  V30 29 H -2.903689 -5.392487 -0.838242 0
M  V30 30 H -3.285985 -3.820272 -2.626184 0
M  V30 31 H -1.519655 -2.087676 -3.107479 0
M  V30 32 H 1.784633 -2.107144 -1.635366 0
M  V30 33 H 0.718993 -1.458884 -2.990723 0
M  V30 34 H -0.646421 0.379311 -2.698044 0
M  V30 35 H -0.823047 3.965689 0.124045 0
M  V30 36 H 0.153156 4.465871 2.330972 0
M  V30 37 H 3.608648 1.883665 3.880708 0
M  V30 38 H 1.730186 4.382155 6.634131 0
M  V30 39 H 0.158344 4.246866 4.635361 0
M  V30 40 H 2.046086 0.607977 2.381633 0
M  V30 41 H 0.885245 -3.635290 0.033060 0
M  V30 END ATOM
M  V30 BEGIN BOND
M  V30 1 1 1 2
M  V30 2 1 2 3
M  V30 3 2 3 4
M  V30 4 1 4 5
M  V30 5 2 5 6
M  V30 6 1 6 7
M  V30 7 1 7 8
M  V30 8 1 8 9
M  V30 9 1 9 10
M  V30 10 2 10 11
M  V30 11 1 11 12
M  V30 12 2 12 13
M  V30 13 1 13 14
M  V30 14 2 14 15
M  V30 15 1 15 16
M  V30 16 1 16 17
M  V30 17 2 17 18
M  V30 18 1 18 19
M  V30 19 1 19 20
M  V30 20 1 15 21
M  V30 21 2 21 22
M  V30 22 1 22 23
M  V30 23 2 23 24
M  V30 24 2 7 25
M  V30 25 1 25 3
M  V30 26 1 23 9
M  V30 27 1 22 12
M  V30 28 2 20 16
M  V30 29 1 1 26
M  V30 30 1 1 27
M  V30 31 1 1 28
M  V30 32 1 4 29
M  V30 33 1 5 30
M  V30 34 1 6 31
M  V30 35 1 8 32
M  V30 36 1 8 33
M  V30 37 1 10 34
M  V30 38 1 13 35
M  V30 39 1 14 36
M  V30 40 1 17 37
M  V30 41 1 19 38
M  V30 42 1 20 39
M  V30 43 1 21 40
M  V30 44 1 25 41
M  V30 END BOND
M  V30 END CTAB
M  END
>  <Dataset>  (178) 
ChEMBL_Kinases

>  <Ligand_Instance>  (178) 
nan

>  <PDB_ID>  (178) 
nan

>  <Standardized_SMILES>  (178) 
COc1cccc(Cn2cnc3ccc(-c4cn[nH]c4)cc3c2=O)c1

>  <Name>  (178) 
nan

>  <Pocket>  (178) 
nan

>  <ATP_Site>  (178) 
nan

>  <Peripheral>  (178) 
nan

>  <Num_H_Atoms_ProtBoundConf>  (178) 
nan

>  <Num_Resolved_Atoms>  (178) 
nan

>  <Num_Not_Resolved_Atoms>  (178) 
nan

$$$$
CHEMBL1997924
     RDKit          3D

  0  0  0  0  0  0  0  0  0  0999 V3000
M  V30 BEGIN CTAB
M  V30 COUNTS 44 48 0 0 0
M  V30 BEGIN ATOM
M  V30 1 C -2.360699 -5.005260 2.189337 0
M  V30 2 C -1.610621 -4.939901 3.347757 0
M  V30 3 C -1.012022 -3.749974 3.716682 0
M  V30 4 C -1.201100 -2.660432 2.886456 0
M  V30 5 C -0.557646 -1.361570 3.262142 0
M  V30 6 N 0.748855 -1.371934 2.623728 0
M  V30 7 C 0.764620 -1.475409 1.197470 0
M  V30 8 N 0.795775 -0.340573 0.433784 0
M  V30 9 C 0.809375 -0.469483 -0.903731 0
M  V30 10 N 0.848246 0.586513 -1.842251 0
M  V30 11 C 0.806082 1.887039 -1.275775 0
M  V30 12 C 1.706599 2.651576 -0.565003 0
M  V30 13 C 1.121274 3.881726 -0.276973 0
M  V30 14 C 1.775489 4.999406 0.494290 0
M  V30 15 C 3.219648 4.837823 0.739538 0
M  V30 16 C 2.286833 4.654808 1.872409 0
M  V30 17 N -0.108604 3.842166 -0.811289 0
M  V30 18 N -0.297553 2.669746 -1.399433 0
M  V30 19 C 0.789414 -1.728495 -1.388145 0
M  V30 20 S 0.794596 -2.344407 -3.137729 0
M  V30 21 C 0.752740 -4.189211 -2.679932 0
M  V30 22 C 0.739276 -4.153643 -1.245530 0
M  V30 23 C 0.757145 -2.950299 -0.625899 0
M  V30 24 N 0.745837 -2.715908 0.693489 0
M  V30 25 C -1.954963 -2.749362 1.733073 0
M  V30 26 C -2.552324 -3.922289 1.358115 0
M  V30 27 H -2.819814 -5.940440 1.906351 0
M  V30 28 H -1.502242 -5.833682 3.956729 0
M  V30 29 H -0.416744 -3.674346 4.626013 0
M  V30 30 H -0.456563 -1.294347 4.371851 0
M  V30 31 H -1.194634 -0.537340 2.881104 0
M  V30 32 H 1.761639 -1.329020 2.786466 0
M  V30 33 H 0.901974 0.433967 -2.860950 0
M  V30 34 H 2.687938 2.278725 -0.311447 0
M  V30 35 H 1.250637 5.955844 0.390386 0
M  V30 36 H 3.741266 3.939314 0.320146 0
M  V30 37 H 3.877215 5.742798 0.729826 0
M  V30 38 H 2.113072 3.649658 2.277542 0
M  V30 39 H 2.216421 5.470378 2.637178 0
M  V30 40 H -0.809066 4.630140 -0.764333 0
M  V30 41 H 0.736123 -5.058375 -3.305978 0
M  V30 42 H 0.713830 -5.108820 -0.759360 0
M  V30 43 H -2.053283 -1.873978 1.142194 0
M  V30 44 H -3.156157 -4.003949 0.457291 0
M  V30 END ATOM
M  V30 BEGIN BOND
M  V30 1 2 1 2
M  V30 2 1 2 3
M  V30 3 2 3 4
M  V30 4 1 4 5
M  V30 5 1 5 6
M  V30 6 1 6 7
M  V30 7 2 7 8
M  V30 8 1 8 9
M  V30 9 1 9 10
M  V30 10 1 10 11
M  V30 11 1 11 12
M  V30 12 2 12 13
M  V30 13 1 13 14
M  V30 14 1 14 15
M  V30 15 1 15 16
M  V30 16 1 13 17
M  V30 17 1 17 18
M  V30 18 2 9 19
M  V30 19 1 19 20
M  V30 20 1 20 21
M  V30 21 2 21 22
M  V30 22 1 22 23
M  V30 23 2 23 24
M  V30 24 1 4 25
M  V30 25 2 25 26
M  V30 26 1 26 1
M  V30 27 1 24 7
M  V30 28 2 18 11
M  V30 29 1 23 19
M  V30 30 1 16 14
M  V30 31 1 1 27
M  V30 32 1 2 28
M  V30 33 1 3 29
M  V30 34 1 5 30
M  V30 35 1 5 31
M  V30 36 1 6 32
M  V30 37 1 10 33
M  V30 38 1 12 34
M  V30 39 1 14 35
M  V30 40 1 15 36
M  V30 41 1 15 37
M  V30 42 1 16 38
M  V30 43 1 16 39
M  V30 44 1 17 40
M  V30 45 1 21 41
M  V30 46 1 22 42
M  V30 47 1 25 43
M  V30 48 1 26 44
M  V30 END BOND
M  V30 END CTAB
M  END
>  <Dataset>  (179) 
ChEMBL_Kinases

>  <Ligand_Instance>  (179) 
nan

>  <PDB_ID>  (179) 
nan

>  <Standardized_SMILES>  (179) 
c1ccc(CNc2nc(Nc3cc(C4CC4)[nH]n3)c3sccc3n2)cc1

>  <Name>  (179) 
nan

>  <Pocket>  (179) 
nan

>  <ATP_Site>  (179) 
nan

>  <Peripheral>  (179) 
nan

>  <Num_H_Atoms_ProtBoundConf>  (179) 
nan

>  <Num_Resolved_Atoms>  (179) 
nan

>  <Num_Not_Resolved_Atoms>  (179) 
nan

$$$$
CHEMBL2103830
     RDKit          3D

  0  0  0  0  0  0  0  0  0  0999 V3000
M  V30 BEGIN CTAB
M  V30 COUNTS 66 69 0 0 0
M  V30 BEGIN ATOM
M  V30 1 C 3.803573 -1.844683 3.429114 0
M  V30 2 O 3.096186 -0.770273 3.987245 0
M  V30 3 C 2.443868 0.153735 3.210099 0
M  V30 4 C 2.332944 0.262364 1.848896 0
M  V30 5 C 1.648865 1.235512 1.161929 0
M  V30 6 N 1.639395 1.246812 -0.261380 0
M  V30 7 C 0.686045 2.137630 -0.869516 0
M  V30 8 N 0.575972 3.461355 -1.049270 0
M  V30 9 C -0.486049 3.990265 -1.692308 0
M  V30 10 C -1.493696 3.189610 -2.186863 0
M  V30 11 F -2.543934 3.754770 -2.826373 0
M  V30 12 C -1.389694 1.811875 -2.006437 0
M  V30 13 N -2.435218 0.935912 -2.501858 0
M  V30 14 C -2.098391 -0.444632 -2.384229 0
M  V30 15 C -1.989305 -0.968383 -3.677979 0
M  V30 16 C -1.634257 -2.316871 -3.819161 0
M  V30 17 C -1.410388 -3.055275 -2.677098 0
M  V30 18 C -1.527303 -2.501407 -1.402850 0
M  V30 19 N -1.872279 -1.199092 -1.296083 0
M  V30 20 N -1.257779 -3.214802 -0.183161 0
M  V30 21 C -1.342484 -2.690616 1.137758 0
M  V30 22 O -2.527275 -2.852144 1.791257 0
M  V30 23 P -3.886970 -2.188202 1.123281 0
M  V30 24 O -5.046097 -2.505515 2.088552 0
M  V30 25 O -4.349753 -2.836691 -0.353061 0
M  V30 26 O -3.834791 -0.498806 1.038166 0
M  V30 27 C -0.843299 -4.579430 -0.376862 0
M  V30 28 O -1.036740 -5.405117 0.570082 0
M  V30 29 C -0.210659 -4.887506 -1.712943 0
M  V30 30 C -0.033218 -6.375947 -1.865950 0
M  V30 31 C 1.128939 -4.198167 -1.716275 0
M  V30 32 O -1.047666 -4.421404 -2.759192 0
M  V30 33 N -0.297372 1.347333 -1.352139 0
M  V30 34 C 1.017795 2.186929 1.931943 0
M  V30 35 C 1.067113 2.169768 3.323410 0
M  V30 36 O 0.440488 3.115991 4.114159 0
M  V30 37 C -0.282504 4.151206 3.477534 0
M  V30 38 C 1.786248 1.144604 3.953882 0
M  V30 39 O 1.816964 1.158629 5.363018 0
M  V30 40 C 2.908474 1.887157 5.936639 0
M  V30 41 H 4.803745 -2.007563 3.902874 0
M  V30 42 H 3.223671 -2.811301 3.556759 0
M  V30 43 H 3.936930 -1.759461 2.335316 0
M  V30 44 H 2.833081 -0.493620 1.276775 0
M  V30 45 H 2.307919 0.621187 -0.772694 0
M  V30 46 H -0.450205 5.061716 -1.765010 0
M  V30 47 H -3.290985 1.376713 -2.885594 0
M  V30 48 H -2.137002 -0.490217 -4.627131 0
M  V30 49 H -1.531349 -2.802242 -4.795539 0
M  V30 50 H -1.010197 -1.613329 1.094890 0
M  V30 51 H -0.540422 -3.173881 1.768918 0
M  V30 52 H -4.589166 -2.091403 -0.983332 0
M  V30 53 H -4.651502 -0.132257 0.645235 0
M  V30 54 H 1.034985 -6.660713 -1.695825 0
M  V30 55 H -0.730277 -6.972445 -1.232144 0
M  V30 56 H -0.236432 -6.715590 -2.916219 0
M  V30 57 H 1.369697 -3.739832 -2.696798 0
M  V30 58 H 1.894458 -4.953683 -1.432526 0
M  V30 59 H 1.192547 -3.404032 -0.922987 0
M  V30 60 H 0.471717 2.966923 1.420066 0
M  V30 61 H 0.422137 4.895753 3.006577 0
M  V30 62 H -0.993236 4.674259 4.161018 0
M  V30 63 H -0.925848 3.789207 2.638547 0
M  V30 64 H 3.871607 1.631372 5.422165 0
M  V30 65 H 2.757129 2.984665 5.872016 0
M  V30 66 H 3.008030 1.658979 7.025904 0
M  V30 END ATOM
M  V30 BEGIN BOND
M  V30 1 1 1 2
M  V30 2 1 2 3
M  V30 3 2 3 4
M  V30 4 1 4 5
M  V30 5 1 5 6
M  V30 6 1 6 7
M  V30 7 2 7 8
M  V30 8 1 8 9
M  V30 9 2 9 10
M  V30 10 1 10 11
M  V30 11 1 10 12
M  V30 12 1 12 13
M  V30 13 1 13 14
M  V30 14 2 14 15
M  V30 15 1 15 16
M  V30 16 2 16 17
M  V30 17 1 17 18
M  V30 18 2 18 19
M  V30 19 1 18 20
M  V30 20 1 20 21
M  V30 21 1 21 22
M  V30 22 1 22 23
M  V30 23 2 23 24
M  V30 24 1 23 25
M  V30 25 1 23 26
M  V30 26 1 20 27
M  V30 27 2 27 28
M  V30 28 1 27 29
M  V30 29 1 29 30
M  V30 30 1 29 31
M  V30 31 1 29 32
M  V30 32 2 12 33
M  V30 33 2 5 34
M  V30 34 1 34 35
M  V30 35 1 35 36
M  V30 36 1 36 37
M  V30 37 2 35 38
M  V30 38 1 38 39
M  V30 39 1 39 40
M  V30 40 1 38 3
M  V30 41 1 33 7
M  V30 42 1 19 14
M  V30 43 1 32 17
M  V30 44 1 1 41
M  V30 45 1 1 42
M  V30 46 1 1 43
M  V30 47 1 4 44
M  V30 48 1 6 45
M  V30 49 1 9 46
M  V30 50 1 13 47
M  V30 51 1 15 48
M  V30 52 1 16 49
M  V30 53 1 21 50
M  V30 54 1 21 51
M  V30 55 1 25 52
M  V30 56 1 26 53
M  V30 57 1 30 54
M  V30 58 1 30 55
M  V30 59 1 30 56
M  V30 60 1 31 57
M  V30 61 1 31 58
M  V30 62 1 31 59
M  V30 63 1 34 60
M  V30 64 1 37 61
M  V30 65 1 37 62
M  V30 66 1 37 63
M  V30 67 1 40 64
M  V30 68 1 40 65
M  V30 69 1 40 66
M  V30 END BOND
M  V30 END CTAB
M  END
>  <Dataset>  (180) 
ChEMBL_Kinases

>  <Ligand_Instance>  (180) 
nan

>  <PDB_ID>  (180) 
nan

>  <Standardized_SMILES>  (180) 
COc1cc(Nc2ncc(F)c(Nc3ccc4c(n3)N(COP(=O)(O)O)C(=O)C(C)(C)O4)n2)cc(OC)c1OC

>  <Name>  (180) 
FOSTAMATINIB

>  <Pocket>  (180) 
nan

>  <ATP_Site>  (180) 
nan

>  <Peripheral>  (180) 
nan

>  <Num_H_Atoms_ProtBoundConf>  (180) 
nan

>  <Num_Resolved_Atoms>  (180) 
nan

>  <Num_Not_Resolved_Atoms>  (180) 
nan

$$$$
CHEMBL1214929
     RDKit          3D

  0  0  0  0  0  0  0  0  0  0999 V3000
M  V30 BEGIN CTAB
M  V30 COUNTS 35 37 0 0 0
M  V30 BEGIN ATOM
M  V30 1 N 0.504567 -1.972536 4.568912 0
M  V30 2 C 0.632594 -3.178732 3.780085 0
M  V30 3 C -0.417609 -3.131385 2.687750 0
M  V30 4 N -0.373712 -2.071694 1.786337 0
M  V30 5 C -0.329177 -0.997812 0.872827 0
M  V30 6 N 0.662548 -0.610212 0.054121 0
M  V30 7 C 0.570682 0.437785 -0.767666 0
M  V30 8 C 1.745581 0.701375 -1.569919 0
M  V30 9 C 2.860013 -0.088159 -1.468603 0
M  V30 10 C 3.980318 0.188330 -2.251486 0
M  V30 11 N 4.020469 1.215069 -3.120462 0
M  V30 12 C 2.929574 1.998701 -3.228604 0
M  V30 13 C 1.812480 1.744167 -2.465166 0
M  V30 14 C -0.621210 1.103267 -0.720791 0
M  V30 15 C -1.711601 0.812110 0.067566 0
M  V30 16 C -2.833651 1.606867 -0.027815 0
M  V30 17 N -3.861652 1.267395 0.769391 0
M  V30 18 C -3.796452 0.201774 1.619721 0
M  V30 19 C -2.649959 -0.559152 1.674690 0
M  V30 20 C -1.518849 -0.299943 0.892205 0
M  V30 21 H 1.241654 -1.268441 4.343819 0
M  V30 22 H -0.463645 -1.558014 4.464875 0
M  V30 23 H 1.645119 -3.353404 3.409289 0
M  V30 24 H 0.361753 -4.016488 4.454593 0
M  V30 25 H -1.407144 -3.164184 3.279916 0
M  V30 26 H -0.485667 -4.129521 2.157125 0
M  V30 27 H 0.613560 -2.436730 1.593840 0
M  V30 28 H 2.889939 -0.943557 -0.776268 0
M  V30 29 H 4.854278 -0.463208 -2.145161 0
M  V30 30 H 2.876908 2.856273 -3.911120 0
M  V30 31 H 0.913357 2.341418 -2.514586 0
M  V30 32 H -0.697219 1.948015 -1.383105 0
M  V30 33 H -2.847679 2.433344 -0.705771 0
M  V30 34 H -4.615257 -0.082945 2.266779 0
M  V30 35 H -2.590746 -1.401227 2.341973 0
M  V30 END ATOM
M  V30 BEGIN BOND
M  V30 1 1 1 2
M  V30 2 1 2 3
M  V30 3 1 3 4
M  V30 4 1 4 5
M  V30 5 2 5 6
M  V30 6 1 6 7
M  V30 7 1 7 8
M  V30 8 2 8 9
M  V30 9 1 9 10
M  V30 10 2 10 11
M  V30 11 1 11 12
M  V30 12 2 12 13
M  V30 13 2 7 14
M  V30 14 1 14 15
M  V30 15 2 15 16
M  V30 16 1 16 17
M  V30 17 2 17 18
M  V30 18 1 18 19
M  V30 19 2 19 20
M  V30 20 1 20 5
M  V30 21 1 13 8
M  V30 22 1 20 15
M  V30 23 1 1 21
M  V30 24 1 1 22
M  V30 25 1 2 23
M  V30 26 1 2 24
M  V30 27 1 3 25
M  V30 28 1 3 26
M  V30 29 1 4 27
M  V30 30 1 9 28
M  V30 31 1 10 29
M  V30 32 1 12 30
M  V30 33 1 13 31
M  V30 34 1 14 32
M  V30 35 1 16 33
M  V30 36 1 18 34
M  V30 37 1 19 35
M  V30 END BOND
M  V30 END CTAB
M  END
>  <Dataset>  (181) 
ChEMBL_Kinases

>  <Ligand_Instance>  (181) 
nan

>  <PDB_ID>  (181) 
nan

>  <Standardized_SMILES>  (181) 
NCCNc1nc(-c2ccncc2)cc2cnccc12

>  <Name>  (181) 
nan

>  <Pocket>  (181) 
nan

>  <ATP_Site>  (181) 
nan

>  <Peripheral>  (181) 
nan

>  <Num_H_Atoms_ProtBoundConf>  (181) 
nan

>  <Num_Resolved_Atoms>  (181) 
nan

>  <Num_Not_Resolved_Atoms>  (181) 
nan

$$$$
CHEMBL1802843
     RDKit          3D

  0  0  0  0  0  0  0  0  0  0999 V3000
M  V30 BEGIN CTAB
M  V30 COUNTS 38 40 0 0 0
M  V30 BEGIN ATOM
M  V30 1 C 0.603560 -5.104894 1.896947 0
M  V30 2 C 0.911438 -4.066043 0.830467 0
M  V30 3 C 1.845316 -2.994824 1.393383 0
M  V30 4 N 1.185247 -2.323771 2.531039 0
M  V30 5 C 0.052118 -1.457778 2.276035 0
M  V30 6 N 0.064614 -0.573706 1.349454 0
M  V30 7 C -1.171238 0.139876 1.315215 0
M  V30 8 C -1.548510 1.126786 0.539135 0
M  V30 9 C -0.720961 1.725906 -0.506851 0
M  V30 10 C -1.257044 1.955190 -1.747822 0
M  V30 11 C -0.491339 2.554086 -2.745059 0
M  V30 12 C 0.830134 2.925152 -2.487706 0
M  V30 13 C 1.368564 2.686612 -1.221135 0
M  V30 14 C 0.588982 2.086716 -0.233334 0
M  V30 15 O 2.705357 3.139317 -1.173679 0
M  V30 16 C 2.763371 4.138773 -2.205017 0
M  V30 17 O 1.890931 3.520857 -3.162648 0
M  V30 18 C -2.015758 -0.408419 2.367823 0
M  V30 19 O -3.159052 -0.180145 2.779738 0
M  V30 20 N -1.208012 -1.438467 2.978536 0
M  V30 21 C -1.532931 -2.329072 4.106080 0
M  V30 22 H 1.261888 -4.960791 2.785495 0
M  V30 23 H -0.471072 -5.112912 2.132946 0
M  V30 24 H 0.813528 -6.126401 1.476647 0
M  V30 25 H 1.400604 -4.577106 -0.022975 0
M  V30 26 H -0.039200 -3.657509 0.473018 0
M  V30 27 H 2.070848 -2.266364 0.580251 0
M  V30 28 H 2.733311 -3.518284 1.786336 0
M  V30 29 H 1.397310 -2.376858 3.579625 0
M  V30 30 H -2.558333 1.552600 0.656209 0
M  V30 31 H -2.253879 1.691456 -2.005429 0
M  V30 32 H -0.830509 2.774764 -3.744295 0
M  V30 33 H 1.000608 1.899815 0.754436 0
M  V30 34 H 2.310952 5.089910 -1.804364 0
M  V30 35 H 3.777661 4.275990 -2.606709 0
M  V30 36 H -1.195098 -1.917893 5.075345 0
M  V30 37 H -2.619230 -2.407537 4.147207 0
M  V30 38 H -1.029458 -3.306167 3.937836 0
M  V30 END ATOM
M  V30 BEGIN BOND
M  V30 1 1 1 2
M  V30 2 1 2 3
M  V30 3 1 3 4
M  V30 4 1 4 5
M  V30 5 2 5 6
M  V30 6 1 6 7
M  V30 7 2 7 8
M  V30 8 1 8 9
M  V30 9 2 9 10
M  V30 10 1 10 11
M  V30 11 2 11 12
M  V30 12 1 12 13
M  V30 13 2 13 14
M  V30 14 1 13 15
M  V30 15 1 15 16
M  V30 16 1 16 17
M  V30 17 1 7 18
M  V30 18 2 18 19
M  V30 19 1 18 20
M  V30 20 1 20 21
M  V30 21 1 20 5
M  V30 22 1 14 9
M  V30 23 1 17 12
M  V30 24 1 1 22
M  V30 25 1 1 23
M  V30 26 1 1 24
M  V30 27 1 2 25
M  V30 28 1 2 26
M  V30 29 1 3 27
M  V30 30 1 3 28
M  V30 31 1 4 29
M  V30 32 1 8 30
M  V30 33 1 10 31
M  V30 34 1 11 32
M  V30 35 1 14 33
M  V30 36 1 16 34
M  V30 37 1 16 35
M  V30 38 1 21 36
M  V30 39 1 21 37
M  V30 40 1 21 38
M  V30 END BOND
M  V30 END CTAB
M  END
>  <Dataset>  (182) 
ChEMBL_Kinases

>  <Ligand_Instance>  (182) 
nan

>  <PDB_ID>  (182) 
nan

>  <Standardized_SMILES>  (182) 
CCCNC1=N/C(=C\c2ccc3c(c2)OCO3)C(=O)N1C

>  <Name>  (182) 
nan

>  <Pocket>  (182) 
nan

>  <ATP_Site>  (182) 
nan

>  <Peripheral>  (182) 
nan

>  <Num_H_Atoms_ProtBoundConf>  (182) 
nan

>  <Num_Resolved_Atoms>  (182) 
nan

>  <Num_Not_Resolved_Atoms>  (182) 
nan

$$$$
CHEMBL2403108
     RDKit          3D

  0  0  0  0  0  0  0  0  0  0999 V3000
M  V30 BEGIN CTAB
M  V30 COUNTS 74 77 0 0 0
M  V30 BEGIN ATOM
M  V30 1 C 2.433733 1.739536 0.494818 0
M  V30 2 C 2.027406 0.563595 1.267135 0
M  V30 3 C 0.746053 0.423893 1.751854 0
M  V30 4 C 0.322585 -0.663659 2.476958 0
M  V30 5 N -1.038000 -0.747502 2.927914 0
M  V30 6 C -1.925464 0.339163 2.591173 0
M  V30 7 N -2.497909 1.354584 3.306654 0
M  V30 8 C -3.287211 2.250398 2.688090 0
M  V30 9 C -3.499066 2.123424 1.352557 0
M  V30 10 Cl -4.512736 3.276933 0.529454 0
M  V30 11 C -2.950652 1.125881 0.583552 0
M  V30 12 N -3.158605 0.960119 -0.834378 0
M  V30 13 C -4.054976 -0.086592 -1.223993 0
M  V30 14 C -4.674994 -0.866961 -0.274843 0
M  V30 15 C -5.548348 -1.925717 -0.518449 0
M  V30 16 C -5.771804 -2.162627 -1.876035 0
M  V30 17 C -5.168038 -1.398783 -2.882925 0
M  V30 18 C -4.316709 -0.369522 -2.562413 0
M  V30 19 S -3.546941 0.585734 -3.777122 0
M  V30 20 O -3.964754 2.035371 -3.598575 0
M  V30 21 O -2.050637 0.513216 -3.650316 0
M  V30 22 C -4.070896 0.045595 -5.392038 0
M  V30 23 C -5.523361 0.343250 -5.601969 0
M  V30 24 C -3.276827 0.803852 -6.467619 0
M  V30 25 N -2.157147 0.244608 1.269872 0
M  V30 26 C 1.245007 -1.655158 2.721223 0
M  V30 27 O 0.836375 -2.746711 3.445152 0
M  V30 28 C 1.517667 -3.906558 3.787081 0
M  V30 29 C 1.729009 -3.961610 5.302628 0
M  V30 30 C 0.601845 -5.083926 3.473899 0
M  V30 31 C 2.525473 -1.497046 2.226016 0
M  V30 32 C 2.986698 -0.395469 1.480974 0
M  V30 33 C 4.374826 -0.503059 1.129867 0
M  V30 34 C 4.981227 0.361160 0.097301 0
M  V30 35 C 6.235644 -0.398466 -0.386739 0
M  V30 36 N 6.515427 -1.558785 0.406805 0
M  V30 37 C 6.528781 -1.368581 1.828565 0
M  V30 38 C 5.353446 -0.508050 2.306372 0
M  V30 39 H 2.240004 1.634360 -0.609460 0
M  V30 40 H 3.373312 2.213063 0.757436 0
M  V30 41 H 1.663679 2.534485 0.765994 0
M  V30 42 H 0.018708 1.202048 1.560236 0
M  V30 43 H -1.300463 -1.595552 3.476946 0
M  V30 44 H -3.691074 3.008633 3.322188 0
M  V30 45 H -2.714877 1.530065 -1.581131 0
M  V30 46 H -4.483548 -0.658114 0.786096 0
M  V30 47 H -6.005179 -2.501118 0.249020 0
M  V30 48 H -6.459553 -3.001107 -2.051832 0
M  V30 49 H -5.393655 -1.648856 -3.893570 0
M  V30 50 H -3.793351 -1.022359 -5.495053 0
M  V30 51 H -6.044292 -0.599084 -5.932559 0
M  V30 52 H -5.666918 1.118967 -6.408536 0
M  V30 53 H -5.983667 0.727014 -4.690482 0
M  V30 54 H -3.645967 1.842235 -6.451847 0
M  V30 55 H -3.549685 0.318464 -7.420807 0
M  V30 56 H -2.214061 0.696558 -6.212596 0
M  V30 57 H 2.498436 -4.004341 3.296465 0
M  V30 58 H 2.487797 -3.241802 5.615700 0
M  V30 59 H 2.000164 -5.031380 5.518937 0
M  V30 60 H 0.762769 -3.700654 5.776058 0
M  V30 61 H 0.062664 -5.428200 4.378956 0
M  V30 62 H -0.203557 -4.771221 2.759868 0
M  V30 63 H 1.147954 -5.935211 3.056274 0
M  V30 64 H 3.183333 -2.342152 2.474697 0
M  V30 65 H 4.482075 -1.566226 0.699128 0
M  V30 66 H 5.475047 1.282252 0.555005 0
M  V30 67 H 4.368772 0.604522 -0.774484 0
M  V30 68 H 6.003910 -0.790803 -1.417010 0
M  V30 69 H 7.098387 0.274641 -0.548346 0
M  V30 70 H 6.176206 -2.454503 0.056239 0
M  V30 71 H 7.484569 -0.973744 2.222145 0
M  V30 72 H 6.378102 -2.364627 2.298108 0
M  V30 73 H 5.704669 0.501697 2.503403 0
M  V30 74 H 4.809378 -0.958689 3.151777 0
M  V30 END ATOM
M  V30 BEGIN BOND
M  V30 1 1 1 2
M  V30 2 2 2 3
M  V30 3 1 3 4
M  V30 4 1 4 5
M  V30 5 1 5 6
M  V30 6 2 6 7
M  V30 7 1 7 8
M  V30 8 2 8 9
M  V30 9 1 9 10
M  V30 10 1 9 11
M  V30 11 1 11 12
M  V30 12 1 12 13
M  V30 13 2 13 14
M  V30 14 1 14 15
M  V30 15 2 15 16
M  V30 16 1 16 17
M  V30 17 2 17 18
M  V30 18 1 18 19
M  V30 19 2 19 20
M  V30 20 2 19 21
M  V30 21 1 19 22
M  V30 22 1 22 23
M  V30 23 1 22 24
M  V30 24 2 11 25
M  V30 25 2 4 26
M  V30 26 1 26 27
M  V30 27 1 27 28
M  V30 28 1 28 29
M  V30 29 1 28 30
M  V30 30 1 26 31
M  V30 31 2 31 32
M  V30 32 1 32 33
M  V30 33 1 33 34
M  V30 34 1 34 35
M  V30 35 1 35 36
M  V30 36 1 36 37
M  V30 37 1 37 38
M  V30 38 1 32 2
M  V30 39 1 38 33
M  V30 40 1 25 6
M  V30 41 1 18 13
M  V30 42 1 1 39
M  V30 43 1 1 40
M  V30 44 1 1 41
M  V30 45 1 3 42
M  V30 46 1 5 43
M  V30 47 1 8 44
M  V30 48 1 12 45
M  V30 49 1 14 46
M  V30 50 1 15 47
M  V30 51 1 16 48
M  V30 52 1 17 49
M  V30 53 1 22 50
M  V30 54 1 23 51
M  V30 55 1 23 52
M  V30 56 1 23 53
M  V30 57 1 24 54
M  V30 58 1 24 55
M  V30 59 1 24 56
M  V30 60 1 28 57
M  V30 61 1 29 58
M  V30 62 1 29 59
M  V30 63 1 29 60
M  V30 64 1 30 61
M  V30 65 1 30 62
M  V30 66 1 30 63
M  V30 67 1 31 64
M  V30 68 1 33 65
M  V30 69 1 34 66
M  V30 70 1 34 67
M  V30 71 1 35 68
M  V30 72 1 35 69
M  V30 73 1 36 70
M  V30 74 1 37 71
M  V30 75 1 37 72
M  V30 76 1 38 73
M  V30 77 1 38 74
M  V30 END BOND
M  V30 END CTAB
M  END
>  <Dataset>  (183) 
ChEMBL_Kinases

>  <Ligand_Instance>  (183) 
nan

>  <PDB_ID>  (183) 
nan

>  <Standardized_SMILES>  (183) 
Cc1cc(Nc2ncc(Cl)c(Nc3ccccc3S(=O)(=O)C(C)C)n2)c(OC(C)C)cc1C1CCNCC1

>  <Name>  (183) 
CERITINIB

>  <Pocket>  (183) 
nan

>  <ATP_Site>  (183) 
nan

>  <Peripheral>  (183) 
nan

>  <Num_H_Atoms_ProtBoundConf>  (183) 
nan

>  <Num_Resolved_Atoms>  (183) 
nan

>  <Num_Not_Resolved_Atoms>  (183) 
nan

$$$$
CHEMBL5070553
     RDKit          3D

  0  0  0  0  0  0  0  0  0  0999 V3000
M  V30 BEGIN CTAB
M  V30 COUNTS 36 38 0 0 0
M  V30 BEGIN ATOM
M  V30 1 C -0.436394 -5.392847 2.003900 0
M  V30 2 C -0.058142 -3.954570 1.934778 0
M  V30 3 N 0.484498 -3.308214 2.995476 0
M  V30 4 C 0.728183 -2.020188 2.655084 0
M  V30 5 C 1.249270 -0.870955 3.240952 0
M  V30 6 C 1.327673 0.302242 2.510278 0
M  V30 7 C 0.895150 0.352787 1.201744 0
M  V30 8 C 0.947611 1.553054 0.372847 0
M  V30 9 C 0.482280 1.467567 -0.920552 0
M  V30 10 C 0.494888 2.566536 -1.783270 0
M  V30 11 N 0.002279 2.437049 -3.120624 0
M  V30 12 N 0.981158 3.760527 -1.335983 0
M  V30 13 C 1.444627 3.854825 -0.055247 0
M  V30 14 N 1.958597 5.083194 0.445052 0
M  V30 15 C 1.431439 2.774362 0.790620 0
M  V30 16 N 0.391733 -0.760557 0.638267 0
M  V30 17 C 0.304197 -1.929461 1.338673 0
M  V30 18 N -0.175786 -3.111094 0.899696 0
M  V30 19 C -0.710689 -3.422361 -0.412650 0
M  V30 20 C -2.211665 -3.156694 -0.399128 0
M  V30 21 F -2.391915 -1.841934 -0.101318 0
M  V30 22 F -2.704853 -3.886114 0.678448 0
M  V30 23 F -2.825460 -3.585560 -1.533132 0
M  V30 24 H 0.441938 -6.014358 2.287036 0
M  V30 25 H -1.291109 -5.555887 2.704993 0
M  V30 26 H -0.788673 -5.759482 1.014395 0
M  V30 27 H 1.571695 -0.962308 4.260343 0
M  V30 28 H 1.732620 1.194395 2.966357 0
M  V30 29 H 0.088447 0.565249 -1.335792 0
M  V30 30 H 0.690951 2.142224 -3.851140 0
M  V30 31 H -0.907942 2.557905 -3.623983 0
M  V30 32 H 2.858093 5.640448 0.382129 0
M  V30 33 H 1.161746 5.448866 1.007193 0
M  V30 34 H 1.800480 2.861469 1.800600 0
M  V30 35 H -0.270896 -2.694329 -1.138037 0
M  V30 36 H -0.482365 -4.462656 -0.723018 0
M  V30 END ATOM
M  V30 BEGIN BOND
M  V30 1 1 1 2
M  V30 2 2 2 3
M  V30 3 1 3 4
M  V30 4 2 4 5
M  V30 5 1 5 6
M  V30 6 2 6 7
M  V30 7 1 7 8
M  V30 8 2 8 9
M  V30 9 1 9 10
M  V30 10 1 10 11
M  V30 11 2 10 12
M  V30 12 1 12 13
M  V30 13 1 13 14
M  V30 14 2 13 15
M  V30 15 1 7 16
M  V30 16 2 16 17
M  V30 17 1 17 18
M  V30 18 1 18 19
M  V30 19 1 19 20
M  V30 20 1 20 21
M  V30 21 1 20 22
M  V30 22 1 20 23
M  V30 23 1 18 2
M  V30 24 1 17 4
M  V30 25 1 15 8
M  V30 26 1 1 24
M  V30 27 1 1 25
M  V30 28 1 1 26
M  V30 29 1 5 27
M  V30 30 1 6 28
M  V30 31 1 9 29
M  V30 32 1 11 30
M  V30 33 1 11 31
M  V30 34 1 14 32
M  V30 35 1 14 33
M  V30 36 1 15 34
M  V30 37 1 19 35
M  V30 38 1 19 36
M  V30 END BOND
M  V30 END CTAB
M  END
>  <Dataset>  (184) 
ChEMBL_Kinases

>  <Ligand_Instance>  (184) 
nan

>  <PDB_ID>  (184) 
nan

>  <Standardized_SMILES>  (184) 
Cc1nc2ccc(-c3cc(N)nc(N)c3)nc2n1CC(F)(F)F

>  <Name>  (184) 
nan

>  <Pocket>  (184) 
nan

>  <ATP_Site>  (184) 
nan

>  <Peripheral>  (184) 
nan

>  <Num_H_Atoms_ProtBoundConf>  (184) 
nan

>  <Num_Resolved_Atoms>  (184) 
nan

>  <Num_Not_Resolved_Atoms>  (184) 
nan

$$$$
CHEMBL4441878
     RDKit          3D

  0  0  0  0  0  0  0  0  0  0999 V3000
M  V30 BEGIN CTAB
M  V30 COUNTS 39 41 0 0 0
M  V30 BEGIN ATOM
M  V30 1 C -0.880840 -5.024308 2.905055 0
M  V30 2 C -0.473398 -3.584796 2.766487 0
M  V30 3 N -0.162037 -2.737220 3.772890 0
M  V30 4 C 0.154127 -1.537776 3.302254 0
M  V30 5 C 0.542546 -0.304826 3.784135 0
M  V30 6 C 0.797752 0.766755 2.948714 0
M  V30 7 C 0.668354 0.629331 1.583966 0
M  V30 8 C 0.915449 1.700619 0.625751 0
M  V30 9 C 0.744817 1.414476 -0.712397 0
M  V30 10 C 0.972295 2.413874 -1.653795 0
M  V30 11 N 0.805474 2.153670 -3.048514 0
M  V30 12 N 1.358803 3.659850 -1.259294 0
M  V30 13 C 1.535509 3.974949 0.043738 0
M  V30 14 N 1.940109 5.285519 0.429094 0
M  V30 15 C 1.307223 2.974568 0.977153 0
M  V30 16 N 0.290635 -0.566432 1.101238 0
M  V30 17 C 0.043450 -1.611737 1.943066 0
M  V30 18 N -0.339090 -2.861111 1.623081 0
M  V30 19 C -0.583410 -3.404547 0.297605 0
M  V30 20 C 0.338289 -2.758749 -0.731609 0
M  V30 21 C -2.008512 -2.963336 -0.052655 0
M  V30 22 H -0.022432 -5.677250 3.157314 0
M  V30 23 H -1.664352 -5.122287 3.701240 0
M  V30 24 H -1.353373 -5.324675 1.945318 0
M  V30 25 H 0.644246 -0.201137 4.875672 0
M  V30 26 H 1.101032 1.723330 3.351900 0
M  V30 27 H 0.436648 0.444003 -1.128251 0
M  V30 28 H 1.752056 1.782938 -3.327525 0
M  V30 29 H -0.189911 2.419064 -3.307096 0
M  V30 30 H 1.271030 6.107123 0.476446 0
M  V30 31 H 2.961867 5.188278 0.621897 0
M  V30 32 H 1.444445 3.214783 2.008745 0
M  V30 33 H -0.472794 -4.488381 0.260580 0
M  V30 34 H 1.285041 -2.412339 -0.307753 0
M  V30 35 H -0.158061 -1.880069 -1.204182 0
M  V30 36 H 0.550659 -3.489033 -1.549603 0
M  V30 37 H -2.665839 -3.081844 0.829054 0
M  V30 38 H -2.332528 -3.564056 -0.903547 0
M  V30 39 H -1.968315 -1.898028 -0.400061 0
M  V30 END ATOM
M  V30 BEGIN BOND
M  V30 1 1 1 2
M  V30 2 2 2 3
M  V30 3 1 3 4
M  V30 4 2 4 5
M  V30 5 1 5 6
M  V30 6 2 6 7
M  V30 7 1 7 8
M  V30 8 2 8 9
M  V30 9 1 9 10
M  V30 10 1 10 11
M  V30 11 2 10 12
M  V30 12 1 12 13
M  V30 13 1 13 14
M  V30 14 2 13 15
M  V30 15 1 7 16
M  V30 16 2 16 17
M  V30 17 1 17 18
M  V30 18 1 18 19
M  V30 19 1 19 20
M  V30 20 1 19 21
M  V30 21 1 18 2
M  V30 22 1 17 4
M  V30 23 1 15 8
M  V30 24 1 1 22
M  V30 25 1 1 23
M  V30 26 1 1 24
M  V30 27 1 5 25
M  V30 28 1 6 26
M  V30 29 1 9 27
M  V30 30 1 11 28
M  V30 31 1 11 29
M  V30 32 1 14 30
M  V30 33 1 14 31
M  V30 34 1 15 32
M  V30 35 1 19 33
M  V30 36 1 20 34
M  V30 37 1 20 35
M  V30 38 1 20 36
M  V30 39 1 21 37
M  V30 40 1 21 38
M  V30 41 1 21 39
M  V30 END BOND
M  V30 END CTAB
M  END
>  <Dataset>  (185) 
ChEMBL_Kinases

>  <Ligand_Instance>  (185) 
nan

>  <PDB_ID>  (185) 
nan

>  <Standardized_SMILES>  (185) 
Cc1nc2ccc(-c3cc(N)nc(N)c3)nc2n1C(C)C

>  <Name>  (185) 
nan

>  <Pocket>  (185) 
nan

>  <ATP_Site>  (185) 
nan

>  <Peripheral>  (185) 
nan

>  <Num_H_Atoms_ProtBoundConf>  (185) 
nan

>  <Num_Resolved_Atoms>  (185) 
nan

>  <Num_Not_Resolved_Atoms>  (185) 
nan

$$$$
CHEMBL3184679
     RDKit          3D

  0  0  0  0  0  0  0  0  0  0999 V3000
M  V30 BEGIN CTAB
M  V30 COUNTS 67 70 0 0 0
M  V30 BEGIN ATOM
M  V30 1 C 3.152605 -1.336374 4.040549 0
M  V30 2 O 3.616751 -1.575477 2.727895 0
M  V30 3 C 4.261136 -0.621568 1.969589 0
M  V30 4 C 4.499856 0.653177 2.449859 0
M  V30 5 C 5.148909 1.602591 1.677281 0
M  V30 6 C 5.330040 2.908332 2.321836 0
M  V30 7 C 4.214696 3.874020 2.092125 0
M  V30 8 C 2.897161 3.438324 2.566171 0
M  V30 9 C 2.023778 2.721911 1.739026 0
M  V30 10 C 0.837864 2.426279 2.418518 0
M  V30 11 N -0.253186 1.708535 1.854163 0
M  V30 12 C -0.422818 0.311882 1.897010 0
M  V30 13 O 0.481270 -0.330342 2.490337 0
M  V30 14 C -1.547422 -0.405131 1.312837 0
M  V30 15 C -1.573140 -1.778958 1.430784 0
M  V30 16 C -2.622771 -2.488814 0.889369 0
M  V30 17 C -3.688063 -1.930922 0.216242 0
M  V30 18 N -4.761439 -2.652298 -0.335212 0
M  V30 19 C -5.844728 -2.070320 -1.100886 0
M  V30 20 C -6.193687 -2.838544 -2.348853 0
M  V30 21 C -5.406775 -2.356112 -3.549348 0
M  V30 22 N -6.047546 -4.251202 -2.263113 0
M  V30 23 C -4.827467 -4.641907 -1.616519 0
M  V30 24 C -4.621443 -6.126625 -1.656048 0
M  V30 25 C -4.916074 -4.086110 -0.199139 0
M  V30 26 C -3.609623 -0.561753 0.129426 0
M  V30 27 C -2.576882 0.191505 0.656785 0
M  V30 28 N 1.023623 2.971525 3.640433 0
M  V30 29 N 2.210840 3.550888 3.714591 0
M  V30 30 C 5.568459 1.279802 0.404279 0
M  V30 31 C 5.315237 0.003961 -0.042155 0
M  V30 32 O 5.719245 -0.361716 -1.313223 0
M  V30 33 C 6.382781 0.450886 -2.233442 0
M  V30 34 C 4.672445 -0.966771 0.697833 0
M  V30 35 H 4.066833 -1.334288 4.695887 0
M  V30 36 H 2.444028 -2.127408 4.341761 0
M  V30 37 H 2.668257 -0.356228 4.159945 0
M  V30 38 H 4.151554 0.849384 3.447089 0
M  V30 39 H 5.495834 2.823988 3.425166 0
M  V30 40 H 6.242085 3.363211 1.859045 0
M  V30 41 H 4.175492 4.108672 0.991537 0
M  V30 42 H 4.458745 4.813234 2.623363 0
M  V30 43 H 2.203495 2.414875 0.699693 0
M  V30 44 H -0.958847 2.294418 1.382464 0
M  V30 45 H -0.767164 -2.284030 1.948082 0
M  V30 46 H -2.569573 -3.558492 1.022562 0
M  V30 47 H -5.720329 -1.021875 -1.351154 0
M  V30 48 H -6.748045 -2.174448 -0.430026 0
M  V30 49 H -7.259233 -2.626590 -2.577601 0
M  V30 50 H -5.268377 -1.262573 -3.435958 0
M  V30 51 H -4.385874 -2.788538 -3.598354 0
M  V30 52 H -5.964346 -2.494486 -4.505776 0
M  V30 53 H -6.888617 -4.770721 -1.990114 0
M  V30 54 H -3.985554 -4.179247 -2.160016 0
M  V30 55 H -5.481384 -6.705960 -1.299907 0
M  V30 56 H -4.309644 -6.384016 -2.683863 0
M  V30 57 H -3.774964 -6.373510 -0.983051 0
M  V30 58 H -4.210092 -4.569437 0.479766 0
M  V30 59 H -5.985091 -4.259466 0.123497 0
M  V30 60 H -4.352006 0.046137 -0.359534 0
M  V30 61 H -2.526757 1.276319 0.580988 0
M  V30 62 H 2.634817 4.055077 4.532484 0
M  V30 63 H 6.072317 2.040468 -0.175916 0
M  V30 64 H 7.414047 0.710724 -1.980593 0
M  V30 65 H 5.793428 1.352949 -2.445931 0
M  V30 66 H 6.405661 -0.123303 -3.203085 0
M  V30 67 H 4.496433 -1.967735 0.293326 0
M  V30 END ATOM
M  V30 BEGIN BOND
M  V30 1 1 1 2
M  V30 2 1 2 3
M  V30 3 2 3 4
M  V30 4 1 4 5
M  V30 5 1 5 6
M  V30 6 1 6 7
M  V30 7 1 7 8
M  V30 8 2 8 9
M  V30 9 1 9 10
M  V30 10 1 10 11
M  V30 11 1 11 12
M  V30 12 2 12 13
M  V30 13 1 12 14
M  V30 14 2 14 15
M  V30 15 1 15 16
M  V30 16 2 16 17
M  V30 17 1 17 18
M  V30 18 1 18 19
M  V30 19 1 19 20
M  V30 20 1 20 21
M  V30 21 1 20 22
M  V30 22 1 22 23
M  V30 23 1 23 24
M  V30 24 1 23 25
M  V30 25 1 17 26
M  V30 26 2 26 27
M  V30 27 2 10 28
M  V30 28 1 28 29
M  V30 29 2 5 30
M  V30 30 1 30 31
M  V30 31 1 31 32
M  V30 32 1 32 33
M  V30 33 2 31 34
M  V30 34 1 34 3
M  V30 35 1 29 8
M  V30 36 1 27 14
M  V30 37 1 25 18
M  V30 38 1 1 35
M  V30 39 1 1 36
M  V30 40 1 1 37
M  V30 41 1 4 38
M  V30 42 1 6 39
M  V30 43 1 6 40
M  V30 44 1 7 41
M  V30 45 1 7 42
M  V30 46 1 9 43
M  V30 47 1 11 44
M  V30 48 1 15 45
M  V30 49 1 16 46
M  V30 50 1 19 47
M  V30 51 1 19 48
M  V30 52 1 20 49
M  V30 53 1 21 50
M  V30 54 1 21 51
M  V30 55 1 21 52
M  V30 56 1 22 53
M  V30 57 1 23 54
M  V30 58 1 24 55
M  V30 59 1 24 56
M  V30 60 1 24 57
M  V30 61 1 25 58
M  V30 62 1 25 59
M  V30 63 1 26 60
M  V30 64 1 27 61
M  V30 65 1 29 62
M  V30 66 1 30 63
M  V30 67 1 33 64
M  V30 68 1 33 65
M  V30 69 1 33 66
M  V30 70 1 34 67
M  V30 END BOND
M  V30 END CTAB
M  END
>  <Dataset>  (186) 
ChEMBL_Kinases

>  <Ligand_Instance>  (186) 
nan

>  <PDB_ID>  (186) 
nan

>  <Standardized_SMILES>  (186) 
COc1cc(CCc2cc(NC(=O)c3ccc(N4CC(C)NC(C)C4)cc3)n[nH]2)cc(OC)c1

>  <Name>  (186) 
AZD-4547

>  <Pocket>  (186) 
nan

>  <ATP_Site>  (186) 
nan

>  <Peripheral>  (186) 
nan

>  <Num_H_Atoms_ProtBoundConf>  (186) 
nan

>  <Num_Resolved_Atoms>  (186) 
nan

>  <Num_Not_Resolved_Atoms>  (186) 
nan

$$$$
CHEMBL3589660
     RDKit          3D

  0  0  0  0  0  0  0  0  0  0999 V3000
M  V30 BEGIN CTAB
M  V30 COUNTS 30 33 0 0 0
M  V30 BEGIN ATOM
M  V30 1 O 1.161240 -3.401159 3.490760 0
M  V30 2 C 0.578653 -2.306317 3.150867 0
M  V30 3 O 0.443553 -2.675566 4.427645 0
M  V30 4 C 0.731851 -1.926387 1.787417 0
M  V30 5 N 1.463509 -2.746627 0.995683 0
M  V30 6 C 1.657554 -2.452980 -0.325322 0
M  V30 7 C 2.383908 -3.228515 -1.195791 0
M  V30 8 C 2.542998 -2.878184 -2.517308 0
M  V30 9 C 1.953801 -1.715951 -2.970143 0
M  V30 10 C 1.234171 -0.969687 -2.059759 0
M  V30 11 C 1.050653 -1.284066 -0.730440 0
M  V30 12 C 0.297553 -0.416705 0.034464 0
M  V30 13 N -0.323612 0.734688 -0.280951 0
M  V30 14 C -0.911788 1.156191 0.873994 0
M  V30 15 C -1.676469 2.265304 1.157078 0
M  V30 16 Cl -2.068695 3.467920 -0.075906 0
M  V30 17 C -2.136431 2.416948 2.448496 0
M  V30 18 C -1.883125 1.529075 3.486724 0
M  V30 19 C -1.106095 0.417868 3.164600 0
M  V30 20 C -0.634846 0.244119 1.881288 0
M  V30 21 C 0.132121 -0.759176 1.361141 0
M  V30 22 H -0.250186 -2.276453 5.082029 0
M  V30 23 H 2.835694 -4.135174 -0.814891 0
M  V30 24 H 3.131355 -3.537826 -3.154096 0
M  V30 25 H 2.064398 -1.419346 -4.004186 0
M  V30 26 H 0.793659 -0.059211 -2.488653 0
M  V30 27 H -0.351704 1.201730 -1.197202 0
M  V30 28 H -2.734296 3.301127 2.632786 0
M  V30 29 H -2.287514 1.730527 4.473986 0
M  V30 30 H -0.889036 -0.293311 3.948596 0
M  V30 END ATOM
M  V30 BEGIN BOND
M  V30 1 2 1 2
M  V30 2 1 2 3
M  V30 3 1 2 4
M  V30 4 2 4 5
M  V30 5 1 5 6
M  V30 6 2 6 7
M  V30 7 1 7 8
M  V30 8 2 8 9
M  V30 9 1 9 10
M  V30 10 2 10 11
M  V30 11 1 11 12
M  V30 12 1 12 13
M  V30 13 1 13 14
M  V30 14 2 14 15
M  V30 15 1 15 16
M  V30 16 1 15 17
M  V30 17 2 17 18
M  V30 18 1 18 19
M  V30 19 2 19 20
M  V30 20 1 20 21
M  V30 21 1 21 4
M  V30 22 1 11 6
M  V30 23 2 21 12
M  V30 24 1 20 14
M  V30 25 1 3 22
M  V30 26 1 7 23
M  V30 27 1 8 24
M  V30 28 1 9 25
M  V30 29 1 10 26
M  V30 30 1 13 27
M  V30 31 1 17 28
M  V30 32 1 18 29
M  V30 33 1 19 30
M  V30 END BOND
M  V30 END CTAB
M  END
>  <Dataset>  (187) 
ChEMBL_Kinases

>  <Ligand_Instance>  (187) 
nan

>  <PDB_ID>  (187) 
nan

>  <Standardized_SMILES>  (187) 
O=C(O)c1nc2ccccc2c2[nH]c3c(Cl)cccc3c12

>  <Name>  (187) 
nan

>  <Pocket>  (187) 
nan

>  <ATP_Site>  (187) 
nan

>  <Peripheral>  (187) 
nan

>  <Num_H_Atoms_ProtBoundConf>  (187) 
nan

>  <Num_Resolved_Atoms>  (187) 
nan

>  <Num_Not_Resolved_Atoms>  (187) 
nan

$$$$
CHEMBL1803082
     RDKit          3D

  0  0  0  0  0  0  0  0  0  0999 V3000
M  V30 BEGIN CTAB
M  V30 COUNTS 32 34 0 0 0
M  V30 BEGIN ATOM
M  V30 1 C -1.293287 -1.367350 3.458928 0
M  V30 2 C -0.388184 -2.586243 3.284820 0
M  V30 3 N -1.008347 -3.455636 2.315322 0
M  V30 4 C -1.101783 -3.022656 0.942469 0
M  V30 5 N -0.510118 -2.024930 0.429142 0
M  V30 6 C -0.800169 -1.848444 -0.953506 0
M  V30 7 C -0.344839 -0.885060 -1.784024 0
M  V30 8 C 0.554001 0.056795 -1.126700 0
M  V30 9 C 1.555914 -0.531326 -0.356865 0
M  V30 10 C 2.446164 0.302359 0.324788 0
M  V30 11 C 2.296109 1.678300 0.207770 0
M  V30 12 C 1.293085 2.274109 -0.562178 0
M  V30 13 C 0.431032 1.421450 -1.222676 0
M  V30 14 O 1.462785 3.669543 -0.431023 0
M  V30 15 C 2.169869 3.875449 0.795128 0
M  V30 16 O 3.044674 2.722444 0.781181 0
M  V30 17 C -1.724506 -2.971177 -1.230564 0
M  V30 18 O -2.230982 -3.190198 -2.362134 0
M  V30 19 N -1.899858 -3.697320 -0.019672 0
M  V30 20 H -1.852640 -1.143371 2.540053 0
M  V30 21 H -0.651647 -0.472542 3.710630 0
M  V30 22 H -1.983299 -1.478224 4.318504 0
M  V30 23 H -0.432482 -3.112650 4.260081 0
M  V30 24 H 0.605847 -2.226901 3.010681 0
M  V30 25 H -1.393203 -4.383995 2.563519 0
M  V30 26 H -0.755899 -1.021726 -2.790498 0
M  V30 27 H 1.678875 -1.618275 -0.272456 0
M  V30 28 H 3.206541 -0.193801 0.912036 0
M  V30 29 H -0.360920 1.859615 -1.832444 0
M  V30 30 H 2.734603 4.805641 0.794994 0
M  V30 31 H 1.468217 3.778457 1.650196 0
M  V30 32 H -2.517666 -4.556635 0.051870 0
M  V30 END ATOM
M  V30 BEGIN BOND
M  V30 1 1 1 2
M  V30 2 1 2 3
M  V30 3 1 3 4
M  V30 4 2 4 5
M  V30 5 1 5 6
M  V30 6 2 6 7
M  V30 7 1 7 8
M  V30 8 2 8 9
M  V30 9 1 9 10
M  V30 10 2 10 11
M  V30 11 1 11 12
M  V30 12 2 12 13
M  V30 13 1 12 14
M  V30 14 1 14 15
M  V30 15 1 15 16
M  V30 16 1 6 17
M  V30 17 2 17 18
M  V30 18 1 17 19
M  V30 19 1 19 4
M  V30 20 1 13 8
M  V30 21 1 16 11
M  V30 22 1 1 20
M  V30 23 1 1 21
M  V30 24 1 1 22
M  V30 25 1 2 23
M  V30 26 1 2 24
M  V30 27 1 3 25
M  V30 28 1 7 26
M  V30 29 1 9 27
M  V30 30 1 10 28
M  V30 31 1 13 29
M  V30 32 1 15 30
M  V30 33 1 15 31
M  V30 34 1 19 32
M  V30 END BOND
M  V30 END CTAB
M  END
>  <Dataset>  (188) 
ChEMBL_Kinases

>  <Ligand_Instance>  (188) 
nan

>  <PDB_ID>  (188) 
nan

>  <Standardized_SMILES>  (188) 
CCNC1=N/C(=C\c2ccc3c(c2)OCO3)C(=O)N1

>  <Name>  (188) 
nan

>  <Pocket>  (188) 
nan

>  <ATP_Site>  (188) 
nan

>  <Peripheral>  (188) 
nan

>  <Num_H_Atoms_ProtBoundConf>  (188) 
nan

>  <Num_Resolved_Atoms>  (188) 
nan

>  <Num_Not_Resolved_Atoms>  (188) 
nan

$$$$
CHEMBL5091238
     RDKit          3D

  0  0  0  0  0  0  0  0  0  0999 V3000
M  V30 BEGIN CTAB
M  V30 COUNTS 49 54 0 0 0
M  V30 BEGIN ATOM
M  V30 1 O -0.621577 -3.494563 5.485413 0
M  V30 2 C -0.204360 -2.801793 4.523888 0
M  V30 3 N 0.948148 -1.960566 4.438175 0
M  V30 4 C 0.945592 -1.413002 3.122553 0
M  V30 5 N 1.910758 -0.518459 2.556315 0
M  V30 6 C 1.697323 0.294559 1.387926 0
M  V30 7 C 1.332809 -0.526309 0.175483 0
M  V30 8 C 1.279522 0.419894 -1.027062 0
M  V30 9 C 0.128350 1.330505 -0.755941 0
M  V30 10 C 0.474626 2.244774 0.429678 0
M  V30 11 C 1.739937 2.945849 0.025127 0
M  V30 12 C 2.886386 1.979603 -0.050041 0
M  V30 13 C 2.592410 1.098083 -1.268350 0
M  V30 14 C 2.997222 1.071082 1.138618 0
M  V30 15 C 0.632749 1.337305 1.629560 0
M  V30 16 N -0.062282 -1.843431 2.467540 0
M  V30 17 C -0.880346 -2.728249 3.216453 0
M  V30 18 C -1.983955 -3.363554 2.832249 0
M  V30 19 C -2.407843 -3.085208 1.478440 0
M  V30 20 C -2.402409 -1.836982 0.906877 0
M  V30 21 C -2.771080 -1.517525 -0.370973 0
M  V30 22 C -3.205428 -2.554236 -1.212614 0
M  V30 23 N -3.587818 -2.397947 -2.474874 0
M  V30 24 C -3.960708 -3.344183 -3.186662 0
M  V30 25 S -3.812866 -4.857518 -2.014925 0
M  V30 26 C -3.209882 -3.833995 -0.620878 0
M  V30 27 C -2.827467 -4.124989 0.689256 0
M  V30 28 H 1.641010 -1.795156 5.206266 0
M  V30 29 H 2.830424 -0.510454 3.094511 0
M  V30 30 H 2.007702 -1.374173 0.029964 0
M  V30 31 H 0.272697 -0.832403 0.305534 0
M  V30 32 H 0.994547 -0.207501 -1.902467 0
M  V30 33 H -0.203635 1.961303 -1.574000 0
M  V30 34 H -0.689969 0.678843 -0.344000 0
M  V30 35 H -0.343752 2.933512 0.668228 0
M  V30 36 H 1.582916 3.286732 -1.041152 0
M  V30 37 H 1.960850 3.855737 0.610814 0
M  V30 38 H 3.847245 2.477230 -0.180725 0
M  V30 39 H 2.482837 1.745253 -2.137929 0
M  V30 40 H 3.350589 0.317483 -1.401124 0
M  V30 41 H 3.740302 0.281835 0.847192 0
M  V30 42 H 3.288014 1.562499 2.067801 0
M  V30 43 H -0.337643 0.867595 1.796077 0
M  V30 44 H 0.954415 1.943388 2.513632 0
M  V30 45 H -2.471048 -4.028663 3.548550 0
M  V30 46 H -2.068397 -1.008353 1.553363 0
M  V30 47 H -2.722120 -0.488535 -0.691972 0
M  V30 48 H -4.254235 -3.140629 -4.206712 0
M  V30 49 H -2.897662 -5.152137 0.962516 0
M  V30 END ATOM
M  V30 BEGIN BOND
M  V30 1 2 1 2
M  V30 2 1 2 3
M  V30 3 1 3 4
M  V30 4 1 4 5
M  V30 5 1 5 6
M  V30 6 1 6 7
M  V30 7 1 7 8
M  V30 8 1 8 9
M  V30 9 1 9 10
M  V30 10 1 10 11
M  V30 11 1 11 12
M  V30 12 1 12 13
M  V30 13 1 12 14
M  V30 14 1 10 15
M  V30 15 2 4 16
M  V30 16 1 16 17
M  V30 17 2 17 18
M  V30 18 1 18 19
M  V30 19 2 19 20
M  V30 20 1 20 21
M  V30 21 2 21 22
M  V30 22 1 22 23
M  V30 23 2 23 24
M  V30 24 1 24 25
M  V30 25 1 25 26
M  V30 26 2 26 27
M  V30 27 1 17 2
M  V30 28 1 27 19
M  V30 29 1 14 6
M  V30 30 1 26 22
M  V30 31 1 15 6
M  V30 32 1 13 8
M  V30 33 1 3 28
M  V30 34 1 5 29
M  V30 35 1 7 30
M  V30 36 1 7 31
M  V30 37 1 8 32
M  V30 38 1 9 33
M  V30 39 1 9 34
M  V30 40 1 10 35
M  V30 41 1 11 36
M  V30 42 1 11 37
M  V30 43 1 12 38
M  V30 44 1 13 39
M  V30 45 1 13 40
M  V30 46 1 14 41
M  V30 47 1 14 42
M  V30 48 1 15 43
M  V30 49 1 15 44
M  V30 50 1 18 45
M  V30 51 1 20 46
M  V30 52 1 21 47
M  V30 53 1 24 48
M  V30 54 1 27 49
M  V30 END BOND
M  V30 END CTAB
M  END
>  <Dataset>  (189) 
ChEMBL_Kinases

>  <Ligand_Instance>  (189) 
nan

>  <PDB_ID>  (189) 
nan

>  <Standardized_SMILES>  (189) 
O=C1NC(NC23CC4CC(CC(C4)C2)C3)=N/C1=C\c1ccc2ncsc2c1

>  <Name>  (189) 
nan

>  <Pocket>  (189) 
nan

>  <ATP_Site>  (189) 
nan

>  <Peripheral>  (189) 
nan

>  <Num_H_Atoms_ProtBoundConf>  (189) 
nan

>  <Num_Resolved_Atoms>  (189) 
nan

>  <Num_Not_Resolved_Atoms>  (189) 
nan

$$$$
CHEMBL6246
     RDKit          3D

  0  0  0  0  0  0  0  0  0  0999 V3000
M  V30 BEGIN CTAB
M  V30 COUNTS 28 31 0 0 0
M  V30 BEGIN ATOM
M  V30 1 O -0.082841 -3.626389 2.753481 0
M  V30 2 C 0.214670 -2.569291 2.142712 0
M  V30 3 O 1.458446 -2.153889 2.191145 0
M  V30 4 C 1.881236 -1.057928 1.587188 0
M  V30 5 C 3.200281 -0.630063 1.646796 0
M  V30 6 O 4.094975 -1.401973 2.377417 0
M  V30 7 C 3.526610 0.531859 0.975293 0
M  V30 8 O 4.869992 0.925635 1.063281 0
M  V30 9 C 2.592524 1.259447 0.263393 0
M  V30 10 C 1.274279 0.848818 0.192790 0
M  V30 11 C 0.305311 1.539992 -0.504373 0
M  V30 12 O 0.648319 2.596961 -1.103399 0
M  V30 13 O -0.943255 1.104726 -0.541132 0
M  V30 14 C -1.312001 0.006711 0.077985 0
M  V30 15 C -2.613522 -0.451468 0.042558 0
M  V30 16 O -3.536247 0.295281 -0.678895 0
M  V30 17 C -3.046477 -1.598150 0.676869 0
M  V30 18 O -4.358499 -2.049875 0.634555 0
M  V30 19 C -2.063740 -2.298658 1.383632 0
M  V30 20 C -0.751758 -1.874374 1.443763 0
M  V30 21 C -0.362474 -0.718720 0.792439 0
M  V30 22 C 0.957891 -0.323710 0.873729 0
M  V30 23 H 4.069484 -2.410299 2.171544 0
M  V30 24 H 5.623362 0.462161 0.596635 0
M  V30 25 H 2.899963 2.165946 -0.246970 0
M  V30 26 H -3.481224 0.271976 -1.679675 0
M  V30 27 H -4.541385 -2.886446 0.058342 0
M  V30 28 H -2.318315 -3.211269 1.911504 0
M  V30 END ATOM
M  V30 BEGIN BOND
M  V30 1 2 1 2
M  V30 2 1 2 3
M  V30 3 1 3 4
M  V30 4 2 4 5
M  V30 5 1 5 6
M  V30 6 1 5 7
M  V30 7 1 7 8
M  V30 8 2 7 9
M  V30 9 1 9 10
M  V30 10 1 10 11
M  V30 11 2 11 12
M  V30 12 1 11 13
M  V30 13 1 13 14
M  V30 14 1 14 15
M  V30 15 1 15 16
M  V30 16 2 15 17
M  V30 17 1 17 18
M  V30 18 1 17 19
M  V30 19 2 19 20
M  V30 20 1 20 21
M  V30 21 1 21 22
M  V30 22 1 20 2
M  V30 23 1 22 4
M  V30 24 2 22 10
M  V30 25 2 21 14
M  V30 26 1 6 23
M  V30 27 1 8 24
M  V30 28 1 9 25
M  V30 29 1 16 26
M  V30 30 1 18 27
M  V30 31 1 19 28
M  V30 END BOND
M  V30 END CTAB
M  END
>  <Dataset>  (190) 
ChEMBL_Kinases

>  <Ligand_Instance>  (190) 
nan

>  <PDB_ID>  (190) 
nan

>  <Standardized_SMILES>  (190) 
O=c1oc2c(O)c(O)cc3c(=O)oc4c(O)c(O)cc1c4c23

>  <Name>  (190) 
ELLAGIC ACID

>  <Pocket>  (190) 
nan

>  <ATP_Site>  (190) 
nan

>  <Peripheral>  (190) 
nan

>  <Num_H_Atoms_ProtBoundConf>  (190) 
nan

>  <Num_Resolved_Atoms>  (190) 
nan

>  <Num_Not_Resolved_Atoms>  (190) 
nan

$$$$
CHEMBL4283240
     RDKit          3D

  0  0  0  0  0  0  0  0  0  0999 V3000
M  V30 BEGIN CTAB
M  V30 COUNTS 29 31 0 0 0
M  V30 BEGIN ATOM
M  V30 1 C -1.056247 -3.211550 4.109700 0
M  V30 2 O -0.515098 -3.729792 2.906335 0
M  V30 3 C -0.137205 -2.891458 1.868073 0
M  V30 4 C 0.383198 -3.456874 0.721905 0
M  V30 5 C 0.761467 -2.629556 -0.315427 0
M  V30 6 C 0.629719 -1.259389 -0.227607 0
M  V30 7 C 0.922076 -0.227303 -1.093857 0
M  V30 8 C 1.454359 -0.186024 -2.364566 0
M  V30 9 C 1.620062 1.046637 -2.958090 0
M  V30 10 N 1.270961 2.185166 -2.313632 0
M  V30 11 C 0.746973 2.149981 -1.063492 0
M  V30 12 Cl 0.328061 3.668027 -0.300056 0
M  V30 13 C 0.567281 0.933434 -0.439881 0
M  V30 14 N 0.070180 0.695857 0.782366 0
M  V30 15 C -0.438945 1.533928 1.837569 0
M  V30 16 C 0.691592 1.895708 2.680964 0
M  V30 17 N 1.591507 2.193799 3.339887 0
M  V30 18 C 0.113380 -0.663726 0.903887 0
M  V30 19 C -0.264714 -1.520267 1.945628 0
M  V30 20 H -0.262923 -2.579044 4.576130 0
M  V30 21 H -1.355078 -4.063652 4.756803 0
M  V30 22 H -1.918374 -2.516072 3.925252 0
M  V30 23 H 0.484165 -4.538183 0.659764 0
M  V30 24 H 1.168549 -3.073717 -1.211709 0
M  V30 25 H 1.705922 -1.131501 -2.808527 0
M  V30 26 H 2.041837 1.082406 -3.965630 0
M  V30 27 H -0.980749 2.377366 1.402735 0
M  V30 28 H -1.221532 0.972776 2.433106 0
M  V30 29 H -0.677528 -1.109377 2.861064 0
M  V30 END ATOM
M  V30 BEGIN BOND
M  V30 1 1 1 2
M  V30 2 1 2 3
M  V30 3 2 3 4
M  V30 4 1 4 5
M  V30 5 2 5 6
M  V30 6 1 6 7
M  V30 7 2 7 8
M  V30 8 1 8 9
M  V30 9 2 9 10
M  V30 10 1 10 11
M  V30 11 1 11 12
M  V30 12 2 11 13
M  V30 13 1 13 14
M  V30 14 1 14 15
M  V30 15 1 15 16
M  V30 16 3 16 17
M  V30 17 1 14 18
M  V30 18 2 18 19
M  V30 19 1 19 3
M  V30 20 1 18 6
M  V30 21 1 13 7
M  V30 22 1 1 20
M  V30 23 1 1 21
M  V30 24 1 1 22
M  V30 25 1 4 23
M  V30 26 1 5 24
M  V30 27 1 8 25
M  V30 28 1 9 26
M  V30 29 1 15 27
M  V30 30 1 15 28
M  V30 31 1 19 29
M  V30 END BOND
M  V30 END CTAB
M  END
>  <Dataset>  (191) 
ChEMBL_Kinases

>  <Ligand_Instance>  (191) 
nan

>  <PDB_ID>  (191) 
nan

>  <Standardized_SMILES>  (191) 
COc1ccc2c3ccnc(Cl)c3n(CC#N)c2c1

>  <Name>  (191) 
nan

>  <Pocket>  (191) 
nan

>  <ATP_Site>  (191) 
nan

>  <Peripheral>  (191) 
nan

>  <Num_H_Atoms_ProtBoundConf>  (191) 
nan

>  <Num_Resolved_Atoms>  (191) 
nan

>  <Num_Not_Resolved_Atoms>  (191) 
nan

$$$$
CHEMBL1091644
     RDKit          3D

  0  0  0  0  0  0  0  0  0  0999 V3000
M  V30 BEGIN CTAB
M  V30 COUNTS 55 60 0 0 0
M  V30 BEGIN ATOM
M  V30 1 C 0.233296 -2.216180 5.759781 0
M  V30 2 C 0.595079 -2.465896 4.314845 0 CFG=2
M  V30 3 O 0.478588 -1.266401 3.624934 0
M  V30 4 C -0.103506 -3.649193 3.686414 0
M  V30 5 C 1.214699 -4.028331 3.046902 0 CFG=1
M  V30 6 C 1.419262 -3.483254 1.665503 0
M  V30 7 N 1.226706 -2.223650 1.247610 0
M  V30 8 C 1.518164 -2.100974 -0.084105 0
M  V30 9 C 1.354847 -0.789900 -0.706366 0
M  V30 10 C 2.246434 -0.094993 -1.493239 0
M  V30 11 C 1.950769 1.135838 -2.037606 0
M  V30 12 C 0.731432 1.717656 -1.805054 0
M  V30 13 C 0.379564 2.937544 -2.317733 0
M  V30 14 C -0.881792 3.436551 -2.020270 0
M  V30 15 C -1.807035 2.792327 -1.245228 0
M  V30 16 C -3.123922 3.324661 -0.940944 0
M  V30 17 C -3.590627 4.535750 -1.396618 0
M  V30 18 C -4.829202 5.053252 -1.119732 0
M  V30 19 C -5.697288 4.310267 -0.316276 0
M  V30 20 C -5.246833 3.095046 0.149054 0
M  V30 21 C -3.975850 2.592976 -0.151048 0
M  V30 22 N -1.411141 1.598998 -0.767184 0
M  V30 23 C -0.204578 1.075253 -1.026148 0
M  V30 24 C 0.122134 -0.155085 -0.496522 0
M  V30 25 C 1.901447 -3.373047 -0.452775 0
M  V30 26 C 2.283582 -3.733411 -1.725443 0
M  V30 27 N 2.325621 -2.849245 -2.829972 0
M  V30 28 N 2.628009 -5.015793 -1.940803 0
M  V30 29 C 2.580894 -5.889021 -0.893249 0
M  V30 30 C 2.186568 -5.488786 0.388292 0
M  V30 31 N 1.839745 -4.199630 0.606421 0
M  V30 32 C 1.899430 -3.193212 4.107710 0
M  V30 33 H 0.048400 -3.116112 6.344409 0
M  V30 34 H 1.074828 -1.611930 6.188561 0
M  V30 35 H -0.640180 -1.532882 5.784310 0
M  V30 36 H -0.244600 -0.722237 4.013717 0
M  V30 37 H -0.905181 -3.393974 2.961227 0
M  V30 38 H -0.378616 -4.391114 4.455015 0
M  V30 39 H 1.451873 -5.113382 3.102008 0
M  V30 40 H 3.199346 -0.554969 -1.655112 0
M  V30 41 H 2.696533 1.625403 -2.645921 0
M  V30 42 H 1.090945 3.466349 -2.932103 0
M  V30 43 H -1.111029 4.396411 -2.445301 0
M  V30 44 H -2.957490 5.145363 -2.019938 0
M  V30 45 H -5.184684 6.004288 -1.482572 0
M  V30 46 H -6.694380 4.626298 -0.037944 0
M  V30 47 H -5.853576 2.435780 0.787769 0
M  V30 48 H -3.657936 1.634772 0.232755 0
M  V30 49 H -0.640835 -0.652981 0.124253 0
M  V30 50 H 1.365470 -2.498646 -2.986446 0
M  V30 51 H 3.145398 -2.577892 -3.401455 0
M  V30 52 H 2.854719 -6.931364 -1.040784 0
M  V30 53 H 2.146056 -6.167688 1.218342 0
M  V30 54 H 2.734862 -2.564951 3.724336 0
M  V30 55 H 2.160661 -3.835597 4.986970 0
M  V30 END ATOM
M  V30 BEGIN BOND
M  V30 1 1 1 2
M  V30 2 1 2 3 CFG=3
M  V30 3 1 2 4
M  V30 4 1 4 5
M  V30 5 1 5 6
M  V30 6 2 6 7
M  V30 7 1 7 8
M  V30 8 1 8 9
M  V30 9 2 9 10
M  V30 10 1 10 11
M  V30 11 2 11 12
M  V30 12 1 12 13
M  V30 13 2 13 14
M  V30 14 1 14 15
M  V30 15 1 15 16
M  V30 16 2 16 17
M  V30 17 1 17 18
M  V30 18 2 18 19
M  V30 19 1 19 20
M  V30 20 2 20 21
M  V30 21 2 15 22
M  V30 22 1 22 23
M  V30 23 2 23 24
M  V30 24 2 8 25
M  V30 25 1 25 26
M  V30 26 1 26 27
M  V30 27 2 26 28
M  V30 28 1 28 29
M  V30 29 2 29 30
M  V30 30 1 30 31
M  V30 31 1 5 32
M  V30 32 1 32 2
M  V30 33 1 31 6
M  V30 34 1 24 9
M  V30 35 1 31 25
M  V30 36 1 23 12
M  V30 37 1 21 16
M  V30 38 1 1 33
M  V30 39 1 1 34
M  V30 40 1 1 35
M  V30 41 1 3 36
M  V30 42 1 4 37
M  V30 43 1 4 38
M  V30 44 1 5 39 CFG=3
M  V30 45 1 10 40
M  V30 46 1 11 41
M  V30 47 1 13 42
M  V30 48 1 14 43
M  V30 49 1 17 44
M  V30 50 1 18 45
M  V30 51 1 19 46
M  V30 52 1 20 47
M  V30 53 1 21 48
M  V30 54 1 24 49
M  V30 55 1 27 50
M  V30 56 1 27 51
M  V30 57 1 29 52
M  V30 58 1 30 53
M  V30 59 1 32 54
M  V30 60 1 32 55
M  V30 END BOND
M  V30 END CTAB
M  END
>  <Dataset>  (192) 
ChEMBL_Kinases

>  <Ligand_Instance>  (192) 
nan

>  <PDB_ID>  (192) 
nan

>  <Standardized_SMILES>  (192) 
C[C@]1(O)C[C@@H](c2nc(-c3ccc4ccc(-c5ccccc5)nc4c3)c3c(N)nccn32)C1

>  <Name>  (192) 
LINSITINIB

>  <Pocket>  (192) 
nan

>  <ATP_Site>  (192) 
nan

>  <Peripheral>  (192) 
nan

>  <Num_H_Atoms_ProtBoundConf>  (192) 
nan

>  <Num_Resolved_Atoms>  (192) 
nan

>  <Num_Not_Resolved_Atoms>  (192) 
nan

$$$$
CHEMBL5095897
     RDKit          3D

  0  0  0  0  0  0  0  0  0  0999 V3000
M  V30 BEGIN CTAB
M  V30 COUNTS 43 45 0 0 0
M  V30 BEGIN ATOM
M  V30 1 C -0.092163 -4.532543 4.169793 0
M  V30 2 O 0.941875 -3.719855 4.658798 0
M  V30 3 C 1.241563 -2.453465 4.178244 0
M  V30 4 C 2.299276 -1.733045 4.745126 0
M  V30 5 C 2.555936 -0.464109 4.222425 0
M  V30 6 C 1.800133 0.073641 3.182159 0
M  V30 7 N 2.104316 1.318386 2.718591 0
M  V30 8 C 1.387237 1.869111 1.707178 0
M  V30 9 C 1.690587 3.129245 1.235478 0
M  V30 10 C 0.919138 3.626815 0.207097 0
M  V30 11 C -0.125467 2.900423 -0.342703 0
M  V30 12 O -0.806824 3.537821 -1.369292 0
M  V30 13 C -1.898278 2.984454 -2.066156 0
M  V30 14 C -0.390926 1.644853 0.161822 0
M  V30 15 C 0.360207 1.114488 1.190357 0
M  V30 16 C 0.022347 -0.145008 1.630630 0
M  V30 17 S -1.304352 -1.142077 0.977713 0
M  V30 18 C -0.630570 -2.139013 -0.378454 0
M  V30 19 C -0.202257 -1.310597 -1.563239 0
M  V30 20 C 0.329596 -2.300794 -2.602249 0
M  V30 21 N 1.433811 -2.979937 -1.997808 0
M  V30 22 C 0.773121 -0.688662 2.669736 0
M  V30 23 C 0.476954 -1.946605 3.148463 0
M  V30 24 H -0.183995 -5.407085 4.813948 0
M  V30 25 H -1.083189 -4.012524 4.150759 0
M  V30 26 H 0.145756 -4.826040 3.130061 0
M  V30 27 H 2.882844 -2.154240 5.552015 0
M  V30 28 H 3.391018 0.073823 4.688796 0
M  V30 29 H 2.510589 3.698457 1.668652 0
M  V30 30 H 1.214909 4.636450 -0.120733 0
M  V30 31 H -1.695547 1.976622 -2.468017 0
M  V30 32 H -2.074646 3.651320 -2.958727 0
M  V30 33 H -2.843085 2.964888 -1.510934 0
M  V30 34 H -1.211806 1.102022 -0.286909 0
M  V30 35 H 0.236464 -2.734432 -0.047584 0
M  V30 36 H -1.432287 -2.821114 -0.761143 0
M  V30 37 H -0.986816 -0.668310 -1.970932 0
M  V30 38 H 0.684446 -0.666410 -1.319871 0
M  V30 39 H -0.492573 -2.991694 -2.927169 0
M  V30 40 H 0.637950 -1.756214 -3.519231 0
M  V30 41 H 1.409760 -4.006287 -2.013397 0
M  V30 42 H 2.319164 -2.563384 -2.415120 0
M  V30 43 H -0.339250 -2.518756 2.720617 0
M  V30 END ATOM
M  V30 BEGIN BOND
M  V30 1 1 1 2
M  V30 2 1 2 3
M  V30 3 2 3 4
M  V30 4 1 4 5
M  V30 5 2 5 6
M  V30 6 1 6 7
M  V30 7 2 7 8
M  V30 8 1 8 9
M  V30 9 2 9 10
M  V30 10 1 10 11
M  V30 11 1 11 12
M  V30 12 1 12 13
M  V30 13 2 11 14
M  V30 14 1 14 15
M  V30 15 2 15 16
M  V30 16 1 16 17
M  V30 17 1 17 18
M  V30 18 1 18 19
M  V30 19 1 19 20
M  V30 20 1 20 21
M  V30 21 1 16 22
M  V30 22 2 22 23
M  V30 23 1 23 3
M  V30 24 1 22 6
M  V30 25 1 15 8
M  V30 26 1 1 24
M  V30 27 1 1 25
M  V30 28 1 1 26
M  V30 29 1 4 27
M  V30 30 1 5 28
M  V30 31 1 9 29
M  V30 32 1 10 30
M  V30 33 1 13 31
M  V30 34 1 13 32
M  V30 35 1 13 33
M  V30 36 1 14 34
M  V30 37 1 18 35
M  V30 38 1 18 36
M  V30 39 1 19 37
M  V30 40 1 19 38
M  V30 41 1 20 39
M  V30 42 1 20 40
M  V30 43 1 21 41
M  V30 44 1 21 42
M  V30 45 1 23 43
M  V30 END BOND
M  V30 END CTAB
M  END
>  <Dataset>  (193) 
ChEMBL_Kinases

>  <Ligand_Instance>  (193) 
nan

>  <PDB_ID>  (193) 
nan

>  <Standardized_SMILES>  (193) 
COc1ccc2nc3ccc(OC)cc3c(SCCCN)c2c1

>  <Name>  (193) 
nan

>  <Pocket>  (193) 
nan

>  <ATP_Site>  (193) 
nan

>  <Peripheral>  (193) 
nan

>  <Num_H_Atoms_ProtBoundConf>  (193) 
nan

>  <Num_Resolved_Atoms>  (193) 
nan

>  <Num_Not_Resolved_Atoms>  (193) 
nan

$$$$
CHEMBL4062803
     RDKit          3D

  0  0  0  0  0  0  0  0  0  0999 V3000
M  V30 BEGIN CTAB
M  V30 COUNTS 40 44 0 0 0
M  V30 BEGIN ATOM
M  V30 1 C 1.735768 -6.403099 0.886937 0
M  V30 2 C 1.899685 -5.360700 1.946266 0
M  V30 3 N 2.299828 -5.534029 3.239148 0
M  V30 4 N 2.308825 -4.351779 3.858170 0
M  V30 5 C 1.924326 -3.370781 3.016173 0
M  V30 6 C 1.733554 -2.005679 3.087589 0
M  V30 7 C 1.297471 -1.275081 2.000992 0
M  V30 8 N 1.111763 0.135024 2.189065 0
M  V30 9 C 0.202156 0.779479 1.310022 0
M  V30 10 N 0.213464 1.654430 0.299856 0
M  V30 11 C -0.913006 2.050802 -0.325827 0
M  V30 12 N -0.945779 2.999895 -1.364323 0
M  V30 13 C 0.013223 3.801500 -2.062927 0
M  V30 14 C 0.867169 4.768234 -1.318739 0
M  V30 15 C 1.482140 3.489786 -1.815083 0
M  V30 16 C -2.107957 1.517705 0.110281 0
M  V30 17 O -3.364774 1.696095 -0.285408 0
M  V30 18 C -4.200849 0.982660 0.406320 0
M  V30 19 C -3.493290 0.256439 1.348652 0
M  V30 20 C -2.182429 0.619081 1.135035 0
M  V30 21 N -1.009419 0.290481 1.692329 0
M  V30 22 C 1.050034 -1.917022 0.819870 0
M  V30 23 C 1.224453 -3.298290 0.678239 0
M  V30 24 C 1.663208 -4.008260 1.798774 0
M  V30 25 H 0.645865 -6.569096 0.772326 0
M  V30 26 H 2.119441 -5.970450 -0.058622 0
M  V30 27 H 2.233494 -7.321766 1.220991 0
M  V30 28 H 2.571709 -4.144148 4.853357 0
M  V30 29 H 1.927002 -1.481041 4.023700 0
M  V30 30 H 1.577965 0.714119 2.892450 0
M  V30 31 H -1.911777 3.218775 -1.761256 0
M  V30 32 H -0.248137 4.058726 -3.121893 0
M  V30 33 H 1.156847 5.675990 -1.883090 0
M  V30 34 H 0.769966 4.934679 -0.226900 0
M  V30 35 H 2.130578 3.521613 -2.720577 0
M  V30 36 H 1.784673 2.718136 -1.100866 0
M  V30 37 H -5.273607 0.883900 0.354400 0
M  V30 38 H -3.841523 -0.445320 2.098502 0
M  V30 39 H 0.722157 -1.351649 -0.014049 0
M  V30 40 H 1.029261 -3.807807 -0.274054 0
M  V30 END ATOM
M  V30 BEGIN BOND
M  V30 1 1 1 2
M  V30 2 2 2 3
M  V30 3 1 3 4
M  V30 4 1 4 5
M  V30 5 2 5 6
M  V30 6 1 6 7
M  V30 7 1 7 8
M  V30 8 1 8 9
M  V30 9 2 9 10
M  V30 10 1 10 11
M  V30 11 1 11 12
M  V30 12 1 12 13
M  V30 13 1 13 14
M  V30 14 1 14 15
M  V30 15 2 11 16
M  V30 16 1 16 17
M  V30 17 1 17 18
M  V30 18 2 18 19
M  V30 19 1 19 20
M  V30 20 2 20 21
M  V30 21 2 7 22
M  V30 22 1 22 23
M  V30 23 2 23 24
M  V30 24 1 24 2
M  V30 25 1 24 5
M  V30 26 1 21 9
M  V30 27 1 15 13
M  V30 28 1 20 16
M  V30 29 1 1 25
M  V30 30 1 1 26
M  V30 31 1 1 27
M  V30 32 1 4 28
M  V30 33 1 6 29
M  V30 34 1 8 30
M  V30 35 1 12 31
M  V30 36 1 13 32
M  V30 37 1 14 33
M  V30 38 1 14 34
M  V30 39 1 15 35
M  V30 40 1 15 36
M  V30 41 1 18 37
M  V30 42 1 19 38
M  V30 43 1 22 39
M  V30 44 1 23 40
M  V30 END BOND
M  V30 END CTAB
M  END
>  <Dataset>  (194) 
ChEMBL_Kinases

>  <Ligand_Instance>  (194) 
nan

>  <PDB_ID>  (194) 
nan

>  <Standardized_SMILES>  (194) 
Cc1n[nH]c2cc(Nc3nc(NC4CC4)c4occc4n3)ccc12

>  <Name>  (194) 
nan

>  <Pocket>  (194) 
nan

>  <ATP_Site>  (194) 
nan

>  <Peripheral>  (194) 
nan

>  <Num_H_Atoms_ProtBoundConf>  (194) 
nan

>  <Num_Resolved_Atoms>  (194) 
nan

>  <Num_Not_Resolved_Atoms>  (194) 
nan

$$$$
CHEMBL383264
     RDKit          3D

  0  0  0  0  0  0  0  0  0  0999 V3000
M  V30 BEGIN CTAB
M  V30 COUNTS 52 56 0 0 0
M  V30 BEGIN ATOM
M  V30 1 N 0.066542 -2.975144 3.466642 0
M  V30 2 C -0.239744 -3.153998 2.038194 0 CFG=2
M  V30 3 C 0.043673 -1.818828 1.398765 0
M  V30 4 O -0.190142 -1.812064 0.005345 0
M  V30 5 C 0.046805 -0.613847 -0.656567 0
M  V30 6 C -0.148590 -0.495111 -2.038630 0
M  V30 7 N 0.094586 0.681214 -2.621941 0
M  V30 8 C 0.519703 1.777770 -1.970272 0
M  V30 9 C 0.736889 1.746831 -0.608547 0
M  V30 10 C 1.191276 2.869964 0.202341 0
M  V30 11 C 0.801131 4.153599 -0.193561 0
M  V30 12 C 1.240559 5.218335 0.595244 0
M  V30 13 C 2.027874 5.023721 1.721463 0
M  V30 14 C 2.450133 6.093717 2.487076 0
M  V30 15 N 3.218427 5.895703 3.586859 0
M  V30 16 C 3.580900 4.646029 3.947109 0
M  V30 17 C 3.186931 3.523701 3.215705 0
M  V30 18 C 2.402250 3.751491 2.096224 0
M  V30 19 C 1.973340 2.701911 1.324426 0
M  V30 20 C 0.482951 0.527587 -0.018236 0
M  V30 21 C -1.701617 -3.510135 1.960744 0
M  V30 22 C -2.193868 -3.730359 0.599346 0
M  V30 23 C -2.975345 -2.872167 -0.175944 0
M  V30 24 N -3.183666 -3.496477 -1.350520 0
M  V30 25 C -2.568982 -4.707474 -1.348168 0
M  V30 26 C -2.518486 -5.684982 -2.341177 0
M  V30 27 C -1.813742 -6.859251 -2.093478 0
M  V30 28 C -1.181290 -7.023057 -0.864974 0
M  V30 29 C -1.239049 -6.037500 0.121273 0
M  V30 30 C -1.940654 -4.873411 -0.131287 0
M  V30 31 H -0.636750 -3.442765 4.043784 0
M  V30 32 H 0.092731 -1.967978 3.740167 0
M  V30 33 H 0.441308 -3.896467 1.625120 0
M  V30 34 H -0.543489 -0.999677 1.905818 0
M  V30 35 H 1.112574 -1.570064 1.595333 0
M  V30 36 H -0.493008 -1.376931 -2.578485 0
M  V30 37 H 0.708534 2.723821 -2.479142 0
M  V30 38 H 0.190360 4.357808 -1.060340 0
M  V30 39 H 0.996480 6.263960 0.379426 0
M  V30 40 H 2.176843 7.120533 2.227651 0
M  V30 41 H 4.205441 4.501717 4.842534 0
M  V30 42 H 3.462360 2.516126 3.483610 0
M  V30 43 H 2.269515 1.695042 1.619553 0
M  V30 44 H 0.637755 0.437834 1.067427 0
M  V30 45 H -1.889852 -4.354534 2.644425 0
M  V30 46 H -2.254309 -2.627828 2.381442 0
M  V30 47 H -3.336133 -1.887371 0.136063 0
M  V30 48 H -3.756322 -3.045527 -2.121743 0
M  V30 49 H -3.019085 -5.539584 -3.292842 0
M  V30 50 H -1.793441 -7.595809 -2.883240 0
M  V30 51 H -0.637337 -7.965853 -0.714431 0
M  V30 52 H -0.738628 -6.190764 1.068105 0
M  V30 END ATOM
M  V30 BEGIN BOND
M  V30 1 1 1 2
M  V30 2 1 2 3
M  V30 3 1 3 4
M  V30 4 1 4 5
M  V30 5 2 5 6
M  V30 6 1 6 7
M  V30 7 2 7 8
M  V30 8 1 8 9
M  V30 9 1 9 10
M  V30 10 2 10 11
M  V30 11 1 11 12
M  V30 12 2 12 13
M  V30 13 1 13 14
M  V30 14 2 14 15
M  V30 15 1 15 16
M  V30 16 2 16 17
M  V30 17 1 17 18
M  V30 18 2 18 19
M  V30 19 2 9 20
M  V30 20 1 2 21
M  V30 21 1 21 22
M  V30 22 2 22 23
M  V30 23 1 23 24
M  V30 24 1 24 25
M  V30 25 2 25 26
M  V30 26 1 26 27
M  V30 27 2 27 28
M  V30 28 1 28 29
M  V30 29 2 29 30
M  V30 30 1 20 5
M  V30 31 1 30 22
M  V30 32 1 19 10
M  V30 33 1 30 25
M  V30 34 1 18 13
M  V30 35 1 1 31
M  V30 36 1 1 32
M  V30 37 1 2 33 CFG=3
M  V30 38 1 3 34
M  V30 39 1 3 35
M  V30 40 1 6 36
M  V30 41 1 8 37
M  V30 42 1 11 38
M  V30 43 1 12 39
M  V30 44 1 14 40
M  V30 45 1 16 41
M  V30 46 1 17 42
M  V30 47 1 19 43
M  V30 48 1 20 44
M  V30 49 1 21 45
M  V30 50 1 21 46
M  V30 51 1 23 47
M  V30 52 1 24 48
M  V30 53 1 26 49
M  V30 54 1 27 50
M  V30 55 1 28 51
M  V30 56 1 29 52
M  V30 END BOND
M  V30 END CTAB
M  END
>  <Dataset>  (195) 
ChEMBL_Kinases

>  <Ligand_Instance>  (195) 
nan

>  <PDB_ID>  (195) 
nan

>  <Standardized_SMILES>  (195) 
N[C@H](COc1cncc(-c2ccc3cnccc3c2)c1)Cc1c[nH]c2ccccc12

>  <Name>  (195) 
nan

>  <Pocket>  (195) 
nan

>  <ATP_Site>  (195) 
nan

>  <Peripheral>  (195) 
nan

>  <Num_H_Atoms_ProtBoundConf>  (195) 
nan

>  <Num_Resolved_Atoms>  (195) 
nan

>  <Num_Not_Resolved_Atoms>  (195) 
nan

$$$$
CHEMBL482968
     RDKit          3D

  0  0  0  0  0  0  0  0  0  0999 V3000
M  V30 BEGIN CTAB
M  V30 COUNTS 53 56 0 0 0
M  V30 BEGIN ATOM
M  V30 1 C 0.522396 -3.944405 5.224277 0
M  V30 2 C 0.953957 -4.047638 3.812607 0
M  V30 3 C 1.699737 -3.026241 3.258214 0
M  V30 4 C 1.957423 -3.353629 1.944810 0
M  V30 5 N 2.628812 -2.880306 0.755103 0
M  V30 6 C 1.690838 -1.919324 0.300584 0
M  V30 7 C 1.789793 -0.546170 0.501856 0
M  V30 8 C 0.867747 0.380830 0.085078 0
M  V30 9 N 1.244309 1.705896 0.412040 0
M  V30 10 C 2.625547 2.105988 0.583601 0
M  V30 11 C 2.819936 2.376511 2.051111 0
M  V30 12 N 1.960539 3.379833 2.545893 0
M  V30 13 C 2.537304 4.464091 3.253132 0
M  V30 14 C 0.687544 3.551919 1.971475 0
M  V30 15 C 0.417802 2.897715 0.658147 0
M  V30 16 N -0.238244 -0.045264 -0.578827 0
M  V30 17 C -0.340117 -1.373551 -0.778870 0
M  V30 18 C -1.492077 -1.927041 -1.479753 0
M  V30 19 C -2.557779 -1.410147 -2.026493 0
M  V30 20 C -3.661350 -2.051716 -2.712024 0
M  V30 21 C -4.695751 -1.258434 -3.182358 0
M  V30 22 C -5.759437 -1.828558 -3.847801 0
M  V30 23 C -5.784810 -3.175269 -4.038650 0
M  V30 24 C -4.771206 -3.983168 -3.582163 0
M  V30 25 C -3.684029 -3.414493 -2.903551 0
M  V30 26 N 0.561148 -2.282603 -0.373261 0
M  V30 27 N 1.370431 -4.548552 1.740304 0
M  V30 28 N 0.766029 -4.986292 2.837540 0
M  V30 29 H 1.384796 -3.989034 5.925189 0
M  V30 30 H -0.062187 -3.014612 5.400228 0
M  V30 31 H -0.168863 -4.778165 5.504046 0
M  V30 32 H 2.124599 -2.062926 3.552873 0
M  V30 33 H 3.535872 -3.181611 0.384548 0
M  V30 34 H 2.717009 -0.354474 1.047263 0
M  V30 35 H 2.833352 3.018965 -0.031833 0
M  V30 36 H 3.346393 1.343957 0.267240 0
M  V30 37 H 3.878429 2.757892 2.166227 0
M  V30 38 H 2.765154 1.417364 2.602689 0
M  V30 39 H 3.649111 4.423746 3.070361 0
M  V30 40 H 2.441030 4.217115 4.353821 0
M  V30 41 H 2.126849 5.459204 3.055868 0
M  V30 42 H 0.529965 4.663763 1.827133 0
M  V30 43 H -0.125770 3.277252 2.692817 0
M  V30 44 H 0.672949 3.614526 -0.155172 0
M  V30 45 H -0.670632 2.665277 0.592383 0
M  V30 46 H -1.562927 -3.021794 -1.626031 0
M  V30 47 H -2.545734 -0.309153 -1.911552 0
M  V30 48 H -4.696065 -0.179079 -3.035052 0
M  V30 49 H -6.545956 -1.173686 -4.202502 0
M  V30 50 H -6.618283 -3.665005 -4.566954 0
M  V30 51 H -4.821662 -5.068155 -3.754463 0
M  V30 52 H -2.939821 -4.086119 -2.572538 0
M  V30 53 H 0.221968 -5.849210 3.048993 0
M  V30 END ATOM
M  V30 BEGIN BOND
M  V30 1 1 1 2
M  V30 2 2 2 3
M  V30 3 1 3 4
M  V30 4 1 4 5
M  V30 5 1 5 6
M  V30 6 2 6 7
M  V30 7 1 7 8
M  V30 8 1 8 9
M  V30 9 1 9 10
M  V30 10 1 10 11
M  V30 11 1 11 12
M  V30 12 1 12 13
M  V30 13 1 12 14
M  V30 14 1 14 15
M  V30 15 2 8 16
M  V30 16 1 16 17
M  V30 17 1 17 18
M  V30 18 2 18 19
M  V30 19 1 19 20
M  V30 20 2 20 21
M  V30 21 1 21 22
M  V30 22 2 22 23
M  V30 23 1 23 24
M  V30 24 2 24 25
M  V30 25 2 17 26
M  V30 26 2 4 27
M  V30 27 1 27 28
M  V30 28 1 28 2
M  V30 29 1 26 6
M  V30 30 1 15 9
M  V30 31 1 25 20
M  V30 32 1 1 29
M  V30 33 1 1 30
M  V30 34 1 1 31
M  V30 35 1 3 32
M  V30 36 1 5 33
M  V30 37 1 7 34
M  V30 38 1 10 35
M  V30 39 1 10 36
M  V30 40 1 11 37
M  V30 41 1 11 38
M  V30 42 1 13 39
M  V30 43 1 13 40
M  V30 44 1 13 41
M  V30 45 1 14 42
M  V30 46 1 14 43
M  V30 47 1 15 44
M  V30 48 1 15 45
M  V30 49 1 18 46
M  V30 50 1 19 47
M  V30 51 1 21 48
M  V30 52 1 22 49
M  V30 53 1 23 50
M  V30 54 1 24 51
M  V30 55 1 25 52
M  V30 56 1 28 53
M  V30 END BOND
M  V30 END CTAB
M  END
>  <Dataset>  (196) 
ChEMBL_Kinases

>  <Ligand_Instance>  (196) 
nan

>  <PDB_ID>  (196) 
nan

>  <Standardized_SMILES>  (196) 
Cc1cc(Nc2cc(N3CCN(C)CC3)nc(/C=C/c3ccccc3)n2)n[nH]1

>  <Name>  (196) 
ENMD-2076

>  <Pocket>  (196) 
nan

>  <ATP_Site>  (196) 
nan

>  <Peripheral>  (196) 
nan

>  <Num_H_Atoms_ProtBoundConf>  (196) 
nan

>  <Num_Resolved_Atoms>  (196) 
nan

>  <Num_Not_Resolved_Atoms>  (196) 
nan

$$$$
CHEMBL5079149
     RDKit          3D

  0  0  0  0  0  0  0  0  0  0999 V3000
M  V30 BEGIN CTAB
M  V30 COUNTS 58 61 0 0 0
M  V30 BEGIN ATOM
M  V30 1 N 3.182389 -2.961521 4.548622 0
M  V30 2 S 2.215910 -2.856668 3.104139 0
M  V30 3 O 0.790598 -2.670785 3.486297 0
M  V30 4 O 2.421227 -4.139673 2.317302 0
M  V30 5 C 2.804065 -1.563542 2.093101 0
M  V30 6 C 3.769458 -1.796120 1.141342 0
M  V30 7 C 4.233295 -0.780521 0.345487 0
M  V30 8 C 3.767777 0.526004 0.445755 0
M  V30 9 C 4.409462 1.446288 -0.502962 0
M  V30 10 N 3.781800 1.540287 -1.786187 0
M  V30 11 C 2.456590 1.973833 -2.055797 0
M  V30 12 N 1.587430 2.367955 -1.121960 0
M  V30 13 C 0.329770 2.784310 -1.345199 0
M  V30 14 N -0.557963 3.195423 -0.309132 0
M  V30 15 C -1.490345 2.445103 0.463113 0
M  V30 16 C -2.246656 3.084535 1.423751 0
M  V30 17 C -3.133043 2.309015 2.141235 0
M  V30 18 C -3.212360 0.961673 1.863111 0
M  V30 19 C -2.482998 0.298012 0.924052 0
M  V30 20 N -2.529441 -1.079698 0.603339 0
M  V30 21 C -3.329378 -2.100352 1.164593 0
M  V30 22 O -4.130645 -1.805858 2.079677 0
M  V30 23 N -3.272127 -3.450683 0.743034 0
M  V30 24 C -2.455161 -4.067407 -0.274570 0
M  V30 25 C -3.356682 -5.023549 -1.016514 0
M  V30 26 C -4.414203 -5.378464 0.005533 0
M  V30 27 C -4.033915 -4.569090 1.238499 0
M  V30 28 C -1.606125 1.096046 0.222678 0
M  V30 29 N -0.105984 2.810435 -2.630448 0
M  V30 30 C 0.679691 2.436660 -3.653597 0
M  V30 31 C 1.939718 2.026849 -3.355801 0
M  V30 32 Br 3.072026 1.490923 -4.802528 0
M  V30 33 C 2.799044 0.751763 1.403285 0
M  V30 34 C 2.342410 -0.271359 2.193646 0
M  V30 35 H 3.524702 -1.986231 4.734596 0
M  V30 36 H 4.017729 -3.552977 4.330324 0
M  V30 37 H 4.129804 -2.821490 1.067772 0
M  V30 38 H 5.001668 -1.108091 -0.368980 0
M  V30 39 H 5.489468 1.216696 -0.606008 0
M  V30 40 H 4.380325 2.463842 -0.011025 0
M  V30 41 H 4.343521 1.264252 -2.624872 0
M  V30 42 H -0.432295 4.227780 -0.164288 0
M  V30 43 H -2.173546 4.130371 1.627559 0
M  V30 44 H -3.737305 2.769635 2.895265 0
M  V30 45 H -3.923778 0.414498 2.459262 0
M  V30 46 H -1.904629 -1.448648 -0.147754 0
M  V30 47 H -2.029439 -3.321125 -0.980826 0
M  V30 48 H -1.620801 -4.645327 0.126119 0
M  V30 49 H -2.829770 -5.932330 -1.332871 0
M  V30 50 H -3.849910 -4.556679 -1.881582 0
M  V30 51 H -4.423072 -6.461570 0.216035 0
M  V30 52 H -5.444573 -5.126878 -0.361207 0
M  V30 53 H -3.474088 -5.238033 1.897827 0
M  V30 54 H -4.938304 -4.212954 1.775684 0
M  V30 55 H -0.967574 0.657174 -0.561281 0
M  V30 56 H 0.329210 2.459134 -4.676817 0
M  V30 57 H 2.474509 1.779817 1.443451 0
M  V30 58 H 1.577121 -0.038542 2.933991 0
M  V30 END ATOM
M  V30 BEGIN BOND
M  V30 1 1 1 2
M  V30 2 2 2 3
M  V30 3 2 2 4
M  V30 4 1 2 5
M  V30 5 2 5 6
M  V30 6 1 6 7
M  V30 7 2 7 8
M  V30 8 1 8 9
M  V30 9 1 9 10
M  V30 10 1 10 11
M  V30 11 2 11 12
M  V30 12 1 12 13
M  V30 13 1 13 14
M  V30 14 1 14 15
M  V30 15 2 15 16
M  V30 16 1 16 17
M  V30 17 2 17 18
M  V30 18 1 18 19
M  V30 19 1 19 20
M  V30 20 1 20 21
M  V30 21 2 21 22
M  V30 22 1 21 23
M  V30 23 1 23 24
M  V30 24 1 24 25
M  V30 25 1 25 26
M  V30 26 1 26 27
M  V30 27 2 19 28
M  V30 28 2 13 29
M  V30 29 1 29 30
M  V30 30 2 30 31
M  V30 31 1 31 32
M  V30 32 1 8 33
M  V30 33 2 33 34
M  V30 34 1 34 5
M  V30 35 1 31 11
M  V30 36 1 28 15
M  V30 37 1 27 23
M  V30 38 1 1 35
M  V30 39 1 1 36
M  V30 40 1 6 37
M  V30 41 1 7 38
M  V30 42 1 9 39
M  V30 43 1 9 40
M  V30 44 1 10 41
M  V30 45 1 14 42
M  V30 46 1 16 43
M  V30 47 1 17 44
M  V30 48 1 18 45
M  V30 49 1 20 46
M  V30 50 1 24 47
M  V30 51 1 24 48
M  V30 52 1 25 49
M  V30 53 1 25 50
M  V30 54 1 26 51
M  V30 55 1 26 52
M  V30 56 1 27 53
M  V30 57 1 27 54
M  V30 58 1 28 55
M  V30 59 1 30 56
M  V30 60 1 33 57
M  V30 61 1 34 58
M  V30 END BOND
M  V30 END CTAB
M  END
>  <Dataset>  (197) 
ChEMBL_Kinases

>  <Ligand_Instance>  (197) 
nan

>  <PDB_ID>  (197) 
nan

>  <Standardized_SMILES>  (197) 
NS(=O)(=O)c1ccc(CNc2nc(Nc3cccc(NC(=O)N4CCCC4)c3)ncc2Br)cc1

>  <Name>  (197) 
nan

>  <Pocket>  (197) 
nan

>  <ATP_Site>  (197) 
nan

>  <Peripheral>  (197) 
nan

>  <Num_H_Atoms_ProtBoundConf>  (197) 
nan

>  <Num_Resolved_Atoms>  (197) 
nan

>  <Num_Not_Resolved_Atoms>  (197) 
nan

$$$$
CHEMBL1802355
     RDKit          3D

  0  0  0  0  0  0  0  0  0  0999 V3000
M  V30 BEGIN CTAB
M  V30 COUNTS 40 43 0 0 0
M  V30 BEGIN ATOM
M  V30 1 C 1.216851 -6.237880 2.328940 0
M  V30 2 O 1.560912 -4.941127 1.882118 0
M  V30 3 C 0.835362 -3.858863 2.354699 0
M  V30 4 C 1.321515 -2.670221 1.800691 0
M  V30 5 C 0.724707 -1.458769 2.149315 0
M  V30 6 C -0.331458 -1.387819 3.023401 0
M  V30 7 N -1.002282 -0.200507 3.420042 0
M  V30 8 C -0.737136 1.081907 2.866230 0
M  V30 9 N -0.453408 1.257349 1.611230 0
M  V30 10 C -0.240181 2.638990 1.355880 0
M  V30 11 C 0.067029 3.297971 0.251115 0
M  V30 12 C 0.242642 2.559398 -0.994677 0
M  V30 13 C -0.228667 3.093643 -2.178992 0
M  V30 14 C -0.057302 2.397929 -3.372630 0
M  V30 15 C 0.585711 1.161495 -3.402492 0
M  V30 16 C 1.043213 0.656167 -2.206904 0
M  V30 17 C 0.878369 1.336792 -1.020591 0
M  V30 18 O 1.642011 -0.579122 -2.506907 0
M  V30 19 C 1.029212 -1.036440 -3.722410 0
M  V30 20 O 0.914957 0.227306 -4.395014 0
M  V30 21 C -0.422702 3.355275 2.623729 0
M  V30 22 O -0.344687 4.571834 2.924445 0
M  V30 23 N -0.739316 2.332445 3.566349 0
M  V30 24 C -0.801790 -2.588298 3.565697 0
M  V30 25 C -0.219624 -3.791226 3.228350 0
M  V30 26 H 0.116395 -6.368965 2.470189 0
M  V30 27 H 1.595086 -6.963255 1.550704 0
M  V30 28 H 1.711934 -6.510625 3.279744 0
M  V30 29 H 2.157291 -2.576605 1.089413 0
M  V30 30 H 1.082880 -0.531914 1.740570 0
M  V30 31 H -1.749333 -0.229321 4.171519 0
M  V30 32 H 0.196786 4.369684 0.223417 0
M  V30 33 H -0.740978 4.059321 -2.220451 0
M  V30 34 H -0.420468 2.796693 -4.328378 0
M  V30 35 H 1.216233 0.983151 -0.081298 0
M  V30 36 H -0.019655 -1.358403 -3.522793 0
M  V30 37 H 1.641252 -1.757750 -4.264324 0
M  V30 38 H -0.940352 2.459962 4.596542 0
M  V30 39 H -1.623038 -2.671578 4.261296 0
M  V30 40 H -0.504490 -4.767067 3.588062 0
M  V30 END ATOM
M  V30 BEGIN BOND
M  V30 1 1 1 2
M  V30 2 1 2 3
M  V30 3 2 3 4
M  V30 4 1 4 5
M  V30 5 2 5 6
M  V30 6 1 6 7
M  V30 7 1 7 8
M  V30 8 2 8 9
M  V30 9 1 9 10
M  V30 10 2 10 11
M  V30 11 1 11 12
M  V30 12 2 12 13
M  V30 13 1 13 14
M  V30 14 2 14 15
M  V30 15 1 15 16
M  V30 16 2 16 17
M  V30 17 1 16 18
M  V30 18 1 18 19
M  V30 19 1 19 20
M  V30 20 1 10 21
M  V30 21 2 21 22
M  V30 22 1 21 23
M  V30 23 1 6 24
M  V30 24 2 24 25
M  V30 25 1 25 3
M  V30 26 1 23 8
M  V30 27 1 17 12
M  V30 28 1 20 15
M  V30 29 1 1 26
M  V30 30 1 1 27
M  V30 31 1 1 28
M  V30 32 1 4 29
M  V30 33 1 5 30
M  V30 34 1 7 31
M  V30 35 1 11 32
M  V30 36 1 13 33
M  V30 37 1 14 34
M  V30 38 1 17 35
M  V30 39 1 19 36
M  V30 40 1 19 37
M  V30 41 1 23 38
M  V30 42 1 24 39
M  V30 43 1 25 40
M  V30 END BOND
M  V30 END CTAB
M  END
>  <Dataset>  (198) 
ChEMBL_Kinases

>  <Ligand_Instance>  (198) 
nan

>  <PDB_ID>  (198) 
nan

>  <Standardized_SMILES>  (198) 
COc1ccc(NC2=N/C(=C\c3ccc4c(c3)OCO4)C(=O)N2)cc1

>  <Name>  (198) 
nan

>  <Pocket>  (198) 
nan

>  <ATP_Site>  (198) 
nan

>  <Peripheral>  (198) 
nan

>  <Num_H_Atoms_ProtBoundConf>  (198) 
nan

>  <Num_Resolved_Atoms>  (198) 
nan

>  <Num_Not_Resolved_Atoms>  (198) 
nan

$$$$
CHEMBL3774448
     RDKit          3D

  0  0  0  0  0  0  0  0  0  0999 V3000
M  V30 BEGIN CTAB
M  V30 COUNTS 26 28 0 0 0
M  V30 BEGIN ATOM
M  V30 1 O -2.042553 -4.643620 1.322091 0
M  V30 2 C -0.858387 -4.245508 1.605855 0
M  V30 3 N 0.054515 -5.105804 2.217427 0
M  V30 4 C 1.353617 -4.542391 2.486270 0
M  V30 5 S 2.766515 -5.333077 2.775787 0
M  V30 6 S 1.040960 -2.755338 2.421387 0
M  V30 7 C -0.393224 -2.906926 1.319735 0
M  V30 8 C -0.884623 -2.018215 0.481853 0
M  V30 9 C -0.266385 -0.707409 0.331090 0
M  V30 10 C 1.127785 -0.698365 0.321533 0
M  V30 11 C 1.737230 0.527923 0.181369 0
M  V30 12 C 1.055177 1.713898 0.052658 0
M  V30 13 N 1.672523 2.919851 -0.090336 0
M  V30 14 C 0.976968 4.077100 -0.220105 0
M  V30 15 C -0.397021 4.013477 -0.204402 0
M  V30 16 C -1.125272 2.859013 -0.066697 0
M  V30 17 C -0.347643 1.734041 0.058344 0
M  V30 18 C -0.929320 0.491162 0.201039 0
M  V30 19 H -0.091195 -6.117722 2.505307 0
M  V30 20 H -1.762370 -2.356625 -0.058751 0
M  V30 21 H 1.825781 -1.498310 0.400069 0
M  V30 22 H 2.827597 0.671061 0.157567 0
M  V30 23 H 1.562712 4.969482 -0.328511 0
M  V30 24 H -0.918004 4.977059 -0.312194 0
M  V30 25 H -2.199490 2.817705 -0.055910 0
M  V30 26 H -2.009932 0.420612 0.215668 0
M  V30 END ATOM
M  V30 BEGIN BOND
M  V30 1 2 1 2
M  V30 2 1 2 3
M  V30 3 1 3 4
M  V30 4 2 4 5
M  V30 5 1 4 6
M  V30 6 1 6 7
M  V30 7 2 7 8
M  V30 8 1 8 9
M  V30 9 2 9 10
M  V30 10 1 10 11
M  V30 11 2 11 12
M  V30 12 1 12 13
M  V30 13 2 13 14
M  V30 14 1 14 15
M  V30 15 2 15 16
M  V30 16 1 16 17
M  V30 17 2 17 18
M  V30 18 1 7 2
M  V30 19 1 18 9
M  V30 20 1 17 12
M  V30 21 1 3 19
M  V30 22 1 8 20
M  V30 23 1 10 21
M  V30 24 1 11 22
M  V30 25 1 14 23
M  V30 26 1 15 24
M  V30 27 1 16 25
M  V30 28 1 18 26
M  V30 END BOND
M  V30 END CTAB
M  END
>  <Dataset>  (199) 
ChEMBL_Kinases

>  <Ligand_Instance>  (199) 
nan

>  <PDB_ID>  (199) 
nan

>  <Standardized_SMILES>  (199) 
O=C1NC(=S)S/C1=C\c1ccc2ncccc2c1

>  <Name>  (199) 
nan

>  <Pocket>  (199) 
nan

>  <ATP_Site>  (199) 
nan

>  <Peripheral>  (199) 
nan

>  <Num_H_Atoms_ProtBoundConf>  (199) 
nan

>  <Num_Resolved_Atoms>  (199) 
nan

>  <Num_Not_Resolved_Atoms>  (199) 
nan

$$$$
CHEMBL1474834
     RDKit          3D

  0  0  0  0  0  0  0  0  0  0999 V3000
M  V30 BEGIN CTAB
M  V30 COUNTS 46 50 0 0 0
M  V30 BEGIN ATOM
M  V30 1 C -0.175090 -4.350075 2.072249 0
M  V30 2 C 0.922866 -3.946073 1.124413 0
M  V30 3 N 1.005921 -3.020987 0.313463 0
M  V30 4 C 2.060472 -2.817671 -0.444041 0
M  V30 5 C 2.205586 -1.728588 -1.431486 0
M  V30 6 N 2.800188 -0.517854 -0.909937 0
M  V30 7 C 4.069296 -0.937970 -0.325808 0
M  V30 8 C 2.507706 0.880477 -0.837134 0
M  V30 9 N 3.493333 1.573651 -1.469907 0
M  V30 10 C 3.456637 2.936047 -1.546344 0
M  V30 11 N 2.429370 3.582331 -0.985441 0
M  V30 12 C 1.427596 2.952382 -0.347662 0
M  V30 13 C 0.337973 3.547595 0.253663 0
M  V30 14 C -0.635884 2.770081 0.885411 0
M  V30 15 C -0.542652 1.373862 0.930844 0
M  V30 16 C -1.598531 0.628136 1.608539 0
M  V30 17 C -1.164780 -0.542460 2.195379 0
M  V30 18 C -2.065515 -1.344006 2.870194 0
M  V30 19 C -3.389059 -0.932389 2.930739 0
M  V30 20 C -3.797945 0.255507 2.328106 0
M  V30 21 C -2.907875 1.060899 1.653467 0
M  V30 22 O -5.180094 0.367808 2.577367 0
M  V30 23 C -5.684916 -0.947173 2.846781 0
M  V30 24 O -4.539762 -1.489004 3.519063 0
M  V30 25 C 0.543867 0.763747 0.332447 0
M  V30 26 C 1.464973 1.579317 -0.270853 0
M  V30 27 C 3.124436 -3.716701 -0.295794 0
M  V30 28 S 2.472999 -4.832628 0.990582 0
M  V30 29 H 0.174045 -4.046915 3.081213 0
M  V30 30 H -1.074227 -3.840913 1.720152 0
M  V30 31 H -0.343451 -5.454462 2.010815 0
M  V30 32 H 1.238129 -1.456660 -1.908541 0
M  V30 33 H 2.859262 -2.019289 -2.297648 0
M  V30 34 H 4.634337 -0.051217 0.051358 0
M  V30 35 H 4.694561 -1.459825 -1.083076 0
M  V30 36 H 3.877183 -1.552709 0.570337 0
M  V30 37 H 4.233399 3.510373 -2.047073 0
M  V30 38 H 0.285125 4.626957 0.207198 0
M  V30 39 H -1.472808 3.287778 1.342903 0
M  V30 40 H -0.144323 -0.889374 2.166004 0
M  V30 41 H -1.856906 -2.286135 3.374563 0
M  V30 42 H -3.193209 1.969443 1.186301 0
M  V30 43 H -6.584200 -0.939396 3.474546 0
M  V30 44 H -5.783872 -1.529974 1.904773 0
M  V30 45 H 0.624339 -0.304386 0.361879 0
M  V30 46 H 4.079796 -3.758028 -0.796102 0
M  V30 END ATOM
M  V30 BEGIN BOND
M  V30 1 1 1 2
M  V30 2 2 2 3
M  V30 3 1 3 4
M  V30 4 1 4 5
M  V30 5 1 5 6
M  V30 6 1 6 7
M  V30 7 1 6 8
M  V30 8 2 8 9
M  V30 9 1 9 10
M  V30 10 2 10 11
M  V30 11 1 11 12
M  V30 12 2 12 13
M  V30 13 1 13 14
M  V30 14 2 14 15
M  V30 15 1 15 16
M  V30 16 2 16 17
M  V30 17 1 17 18
M  V30 18 2 18 19
M  V30 19 1 19 20
M  V30 20 2 20 21
M  V30 21 1 20 22
M  V30 22 1 22 23
M  V30 23 1 23 24
M  V30 24 1 15 25
M  V30 25 2 25 26
M  V30 26 2 4 27
M  V30 27 1 27 28
M  V30 28 1 28 2
M  V30 29 1 26 8
M  V30 30 1 26 12
M  V30 31 1 21 16
M  V30 32 1 24 19
M  V30 33 1 1 29
M  V30 34 1 1 30
M  V30 35 1 1 31
M  V30 36 1 5 32
M  V30 37 1 5 33
M  V30 38 1 7 34
M  V30 39 1 7 35
M  V30 40 1 7 36
M  V30 41 1 10 37
M  V30 42 1 13 38
M  V30 43 1 14 39
M  V30 44 1 17 40
M  V30 45 1 18 41
M  V30 46 1 21 42
M  V30 47 1 23 43
M  V30 48 1 23 44
M  V30 49 1 25 45
M  V30 50 1 27 46
M  V30 END BOND
M  V30 END CTAB
M  END
>  <Dataset>  (200) 
ChEMBL_Kinases

>  <Ligand_Instance>  (200) 
nan

>  <PDB_ID>  (200) 
nan

>  <Standardized_SMILES>  (200) 
Cc1nc(CN(C)c2ncnc3ccc(-c4ccc5c(c4)OCO5)cc23)cs1

>  <Name>  (200) 
nan

>  <Pocket>  (200) 
nan

>  <ATP_Site>  (200) 
nan

>  <Peripheral>  (200) 
nan

>  <Num_H_Atoms_ProtBoundConf>  (200) 
nan

>  <Num_Resolved_Atoms>  (200) 
nan

>  <Num_Not_Resolved_Atoms>  (200) 
nan

$$$$
CHEMBL124660
     RDKit          3D

  0  0  0  0  0  0  0  0  0  0999 V3000
M  V30 BEGIN CTAB
M  V30 COUNTS 83 87 0 0 0
M  V30 BEGIN ATOM
M  V30 1 C -0.226058 -4.577483 2.243226 0
M  V30 2 O 0.997158 -4.750741 1.616830 0
M  V30 3 C 1.847045 -3.745695 1.167130 0
M  V30 4 C 1.281661 -2.499226 1.440447 0
M  V30 5 C 1.968552 -1.359395 1.072502 0
M  V30 6 C 1.575908 -0.061339 1.251317 0
M  V30 7 N 0.295126 0.181178 1.857967 0
M  V30 8 C -0.826060 -0.327441 1.091473 0
M  V30 9 C -1.475981 0.922588 0.454685 0
M  V30 10 N -1.915732 1.748081 1.540082 0
M  V30 11 C -3.211011 2.346394 1.331186 0
M  V30 12 O -3.484627 1.871190 0.166937 0
M  V30 13 N -4.135134 3.188307 1.959149 0
M  V30 14 C -5.336950 3.470046 1.261540 0
M  V30 15 C -6.525158 3.453319 1.964207 0
M  V30 16 C -7.726528 3.723235 1.350599 0
M  V30 17 C -7.778694 4.026724 -0.022247 0
M  V30 18 O -9.030906 4.274256 -0.481147 0
M  V30 19 C -9.378107 4.573897 -1.840731 0
M  V30 20 C -10.779823 4.160960 -2.102410 0
M  V30 21 C -9.201182 6.083404 -2.047444 0
M  V30 22 C -6.541791 4.015979 -0.627962 0
M  V30 23 C -5.306411 3.763452 -0.111221 0
M  V30 24 C -1.167167 1.972131 2.731147 0
M  V30 25 C -0.196192 0.843429 3.077050 0
M  V30 26 N 2.300220 0.996542 0.864938 0
M  V30 27 C 3.502002 0.792529 0.253981 0
M  V30 28 N 3.933341 -0.467986 0.053020 0
M  V30 29 C 3.182270 -1.517738 0.453563 0
M  V30 30 C 3.701610 -2.749098 0.202991 0
M  V30 31 C 3.092447 -3.966384 0.530903 0
M  V30 32 O 3.264371 -5.268318 0.457217 0
M  V30 33 C 4.207319 -6.105367 -0.009337 0
M  V30 34 C 5.572819 -6.133206 0.540725 0
M  V30 35 C 6.464672 -4.968360 0.492187 0
M  V30 36 N 6.891748 -4.425623 -0.704737 0
M  V30 37 C 7.763369 -3.305791 -0.537318 0
M  V30 38 C 7.431589 -2.148365 -1.434652 0
M  V30 39 C 7.427802 -2.581967 -2.860580 0
M  V30 40 C 7.158561 -4.027295 -3.088411 0
M  V30 41 C 6.341902 -4.669022 -1.957833 0
M  V30 42 H -0.557043 -5.597321 2.593104 0
M  V30 43 H -1.003582 -4.247174 1.537949 0
M  V30 44 H -0.226608 -3.868171 3.106319 0
M  V30 45 H 0.338736 -2.313824 1.927909 0
M  V30 46 H -1.530573 -0.845625 1.743182 0
M  V30 47 H -0.538860 -0.932975 0.207919 0
M  V30 48 H -2.274344 0.496986 -0.175860 0
M  V30 49 H -0.702878 1.364468 -0.173430 0
M  V30 50 H -3.697976 3.437226 2.871689 0
M  V30 51 H -6.492695 3.219334 3.037911 0
M  V30 52 H -8.606166 3.683455 1.985540 0
M  V30 53 H -8.620640 4.123516 -2.492992 0
M  V30 54 H -11.341414 4.899493 -2.668990 0
M  V30 55 H -10.842566 3.186576 -2.653376 0
M  V30 56 H -11.275134 3.987739 -1.100556 0
M  V30 57 H -9.136001 6.596945 -1.073220 0
M  V30 58 H -8.263107 6.276149 -2.611430 0
M  V30 59 H -10.070666 6.446877 -2.587357 0
M  V30 60 H -6.621279 4.255291 -1.686630 0
M  V30 61 H -4.410154 3.796928 -0.708132 0
M  V30 62 H -0.512022 2.873612 2.529707 0
M  V30 63 H -1.791161 2.173279 3.620616 0
M  V30 64 H -0.630896 0.138383 3.798203 0
M  V30 65 H 0.686618 1.310645 3.597978 0
M  V30 66 H 4.137820 1.598680 -0.082294 0
M  V30 67 H 4.625327 -2.925922 -0.275329 0
M  V30 68 H 3.804160 -7.180050 0.201654 0
M  V30 69 H 4.263874 -6.156966 -1.138903 0
M  V30 70 H 6.105740 -7.007023 0.042476 0
M  V30 71 H 5.536994 -6.470539 1.630469 0
M  V30 72 H 7.392644 -5.281944 1.102894 0
M  V30 73 H 6.092835 -4.113204 1.155169 0
M  V30 74 H 8.805524 -3.636105 -0.748629 0
M  V30 75 H 7.691319 -2.954809 0.525194 0
M  V30 76 H 6.469397 -1.662068 -1.156693 0
M  V30 77 H 8.234416 -1.381238 -1.278375 0
M  V30 78 H 8.451523 -2.355584 -3.288841 0
M  V30 79 H 6.742755 -1.915383 -3.449641 0
M  V30 80 H 8.094494 -4.621934 -3.237498 0
M  V30 81 H 6.555174 -4.149712 -4.007514 0
M  V30 82 H 5.322763 -4.266852 -2.065130 0
M  V30 83 H 6.312130 -5.751629 -2.246630 0
M  V30 END ATOM
M  V30 BEGIN BOND
M  V30 1 1 1 2
M  V30 2 1 2 3
M  V30 3 2 3 4
M  V30 4 1 4 5
M  V30 5 2 5 6
M  V30 6 1 6 7
M  V30 7 1 7 8
M  V30 8 1 8 9
M  V30 9 1 9 10
M  V30 10 1 10 11
M  V30 11 2 11 12
M  V30 12 1 11 13
M  V30 13 1 13 14
M  V30 14 2 14 15
M  V30 15 1 15 16
M  V30 16 2 16 17
M  V30 17 1 17 18
M  V30 18 1 18 19
M  V30 19 1 19 20
M  V30 20 1 19 21
M  V30 21 1 17 22
M  V30 22 2 22 23
M  V30 23 1 10 24
M  V30 24 1 24 25
M  V30 25 1 6 26
M  V30 26 2 26 27
M  V30 27 1 27 28
M  V30 28 2 28 29
M  V30 29 1 29 30
M  V30 30 2 30 31
M  V30 31 1 31 32
M  V30 32 1 32 33
M  V30 33 1 33 34
M  V30 34 1 34 35
M  V30 35 1 35 36
M  V30 36 1 36 37
M  V30 37 1 37 38
M  V30 38 1 38 39
M  V30 39 1 39 40
M  V30 40 1 40 41
M  V30 41 1 31 3
M  V30 42 1 41 36
M  V30 43 1 29 5
M  V30 44 1 25 7
M  V30 45 1 23 14
M  V30 46 1 1 42
M  V30 47 1 1 43
M  V30 48 1 1 44
M  V30 49 1 4 45
M  V30 50 1 8 46
M  V30 51 1 8 47
M  V30 52 1 9 48
M  V30 53 1 9 49
M  V30 54 1 13 50
M  V30 55 1 15 51
M  V30 56 1 16 52
M  V30 57 1 19 53
M  V30 58 1 20 54
M  V30 59 1 20 55
M  V30 60 1 20 56
M  V30 61 1 21 57
M  V30 62 1 21 58
M  V30 63 1 21 59
M  V30 64 1 22 60
M  V30 65 1 23 61
M  V30 66 1 24 62
M  V30 67 1 24 63
M  V30 68 1 25 64
M  V30 69 1 25 65
M  V30 70 1 27 66
M  V30 71 1 30 67
M  V30 72 1 33 68
M  V30 73 1 33 69
M  V30 74 1 34 70
M  V30 75 1 34 71
M  V30 76 1 35 72
M  V30 77 1 35 73
M  V30 78 1 37 74
M  V30 79 1 37 75
M  V30 80 1 38 76
M  V30 81 1 38 77
M  V30 82 1 39 78
M  V30 83 1 39 79
M  V30 84 1 40 80
M  V30 85 1 40 81
M  V30 86 1 41 82
M  V30 87 1 41 83
M  V30 END BOND
M  V30 END CTAB
M  END
>  <Dataset>  (201) 
ChEMBL_Kinases

>  <Ligand_Instance>  (201) 
nan

>  <PDB_ID>  (201) 
nan

>  <Standardized_SMILES>  (201) 
COc1cc2c(N3CCN(C(=O)Nc4ccc(OC(C)C)cc4)CC3)ncnc2cc1OCCCN1CCCCC1

>  <Name>  (201) 
TANDUTINIB

>  <Pocket>  (201) 
nan

>  <ATP_Site>  (201) 
nan

>  <Peripheral>  (201) 
nan

>  <Num_H_Atoms_ProtBoundConf>  (201) 
nan

>  <Num_Resolved_Atoms>  (201) 
nan

>  <Num_Not_Resolved_Atoms>  (201) 
nan

$$$$
CHEMBL188434
     RDKit          3D

  0  0  0  0  0  0  0  0  0  0999 V3000
M  V30 BEGIN CTAB
M  V30 COUNTS 47 50 0 0 0
M  V30 BEGIN ATOM
M  V30 1 C 1.289047 -2.872981 0.794748 0
M  V30 2 C 2.258959 -1.745346 0.659217 0
M  V30 3 N 1.934518 -0.704717 -0.250992 0
M  V30 4 C 2.217417 -0.653034 -1.594417 0
M  V30 5 C 2.900856 -1.667345 -2.389063 0
M  V30 6 N 3.429962 -2.867855 -2.101055 0
M  V30 7 O 3.946001 -3.428498 -3.146703 0
M  V30 8 N 3.800838 -2.660244 -4.180126 0
M  V30 9 C 3.151693 -1.551931 -3.740216 0
M  V30 10 N 2.831208 -0.493993 -4.630286 0
M  V30 11 N 1.774959 0.492983 -2.142112 0
M  V30 12 C 1.191307 1.206264 -1.141062 0
M  V30 13 C 0.615395 2.449637 -1.278385 0
M  V30 14 N 0.103774 2.987667 -0.164965 0
M  V30 15 C 0.181173 2.303649 0.979850 0
M  V30 16 C 0.761214 1.032370 1.158070 0
M  V30 17 C 0.804154 0.336590 2.437419 0
M  V30 18 N -0.189875 -0.707505 2.610560 0
M  V30 19 C -1.534918 -0.275435 2.556567 0
M  V30 20 C -1.904500 0.694515 3.647860 0
M  V30 21 C -3.161238 0.234128 4.391118 0
M  V30 22 N -4.214909 -0.076775 3.474603 0
M  V30 23 C -3.886326 -1.123187 2.555817 0
M  V30 24 C -2.425281 -1.492681 2.698798 0
M  V30 25 C 1.297396 0.458384 0.012633 0
M  V30 26 H 0.281588 -2.492312 0.497266 0
M  V30 27 H 1.461381 -3.760959 0.189057 0
M  V30 28 H 1.313351 -3.211652 1.866209 0
M  V30 29 H 2.779086 -1.465000 1.594163 0
M  V30 30 H 3.139670 -2.281300 0.171916 0
M  V30 31 H 2.754962 0.508147 -4.380983 0
M  V30 32 H 2.642065 -0.644042 -5.629074 0
M  V30 33 H 0.567715 2.973878 -2.206440 0
M  V30 34 H -0.254410 2.788549 1.870259 0
M  V30 35 H 1.763479 0.144416 2.905221 0
M  V30 36 H 0.396322 1.110500 3.171392 0
M  V30 37 H 0.065842 -1.192323 3.493189 0
M  V30 38 H -1.753553 0.123350 1.544036 0
M  V30 39 H -2.081634 1.714384 3.309739 0
M  V30 40 H -1.121785 0.743088 4.461133 0
M  V30 41 H -2.907723 -0.604831 5.095993 0
M  V30 42 H -3.489847 1.064325 5.039034 0
M  V30 43 H -5.097445 -0.203035 3.987649 0
M  V30 44 H -4.454940 -2.030031 2.887947 0
M  V30 45 H -4.188971 -0.929463 1.511422 0
M  V30 46 H -2.264083 -1.984538 3.656310 0
M  V30 47 H -2.133808 -2.190076 1.868279 0
M  V30 END ATOM
M  V30 BEGIN BOND
M  V30 1 1 1 2
M  V30 2 1 2 3
M  V30 3 1 3 4
M  V30 4 1 4 5
M  V30 5 2 5 6
M  V30 6 1 6 7
M  V30 7 1 7 8
M  V30 8 2 8 9
M  V30 9 1 9 10
M  V30 10 2 4 11
M  V30 11 1 11 12
M  V30 12 2 12 13
M  V30 13 1 13 14
M  V30 14 2 14 15
M  V30 15 1 15 16
M  V30 16 1 16 17
M  V30 17 1 17 18
M  V30 18 1 18 19
M  V30 19 1 19 20
M  V30 20 1 20 21
M  V30 21 1 21 22
M  V30 22 1 22 23
M  V30 23 1 23 24
M  V30 24 2 16 25
M  V30 25 1 25 3
M  V30 26 1 9 5
M  V30 27 1 25 12
M  V30 28 1 24 19
M  V30 29 1 1 26
M  V30 30 1 1 27
M  V30 31 1 1 28
M  V30 32 1 2 29
M  V30 33 1 2 30
M  V30 34 1 10 31
M  V30 35 1 10 32
M  V30 36 1 13 33
M  V30 37 1 15 34
M  V30 38 1 17 35
M  V30 39 1 17 36
M  V30 40 1 18 37
M  V30 41 1 19 38
M  V30 42 1 20 39
M  V30 43 1 20 40
M  V30 44 1 21 41
M  V30 45 1 21 42
M  V30 46 1 22 43
M  V30 47 1 23 44
M  V30 48 1 23 45
M  V30 49 1 24 46
M  V30 50 1 24 47
M  V30 END BOND
M  V30 END CTAB
M  END
>  <Dataset>  (202) 
ChEMBL_Kinases

>  <Ligand_Instance>  (202) 
nan

>  <PDB_ID>  (202) 
nan

>  <Standardized_SMILES>  (202) 
CCn1c(-c2nonc2N)nc2cncc(CNC3CCNCC3)c21

>  <Name>  (202) 
nan

>  <Pocket>  (202) 
nan

>  <ATP_Site>  (202) 
nan

>  <Peripheral>  (202) 
nan

>  <Num_H_Atoms_ProtBoundConf>  (202) 
nan

>  <Num_Resolved_Atoms>  (202) 
nan

>  <Num_Not_Resolved_Atoms>  (202) 
nan

$$$$
CHEMBL4797457
     RDKit          3D

  0  0  0  0  0  0  0  0  0  0999 V3000
M  V30 BEGIN CTAB
M  V30 COUNTS 44 48 0 0 0
M  V30 BEGIN ATOM
M  V30 1 C -1.361811 -5.591449 -0.013030 0
M  V30 2 N -1.630059 -4.314735 -0.620593 0
M  V30 3 C -0.723180 -3.399585 -0.933463 0
M  V30 4 C -1.337492 -2.301555 -1.498883 0
M  V30 5 C -0.905259 -1.015052 -2.034331 0
M  V30 6 C -1.530334 -0.323451 -3.061701 0
M  V30 7 C -1.034423 0.884265 -3.485446 0
M  V30 8 C 0.103433 1.382692 -2.854849 0
M  V30 9 C 0.736818 0.703726 -1.829569 0
M  V30 10 C 1.927659 1.347836 -1.252889 0
M  V30 11 C 3.020282 1.987043 -1.802106 0
M  V30 12 O 3.818068 2.396913 -0.840871 0
M  V30 13 C 3.363992 2.091432 0.342415 0
M  V30 14 C 3.790191 2.277199 1.643981 0
M  V30 15 C 3.040833 1.809158 2.720841 0
M  V30 16 C 1.849735 1.149908 2.416381 0
M  V30 17 C 0.992275 0.617682 3.498734 0
M  V30 18 C -0.182078 -0.039445 3.265848 0
M  V30 19 N -0.675869 -0.371728 4.494351 0
M  V30 20 N 0.162401 0.065081 5.424421 0
M  V30 21 C -0.042207 -0.111514 6.832095 0
M  V30 22 C 1.213416 0.685791 4.857379 0
M  V30 23 N 1.431550 0.967234 1.151649 0
M  V30 24 C 2.173490 1.429082 0.123932 0
M  V30 25 C 0.235722 -0.494069 -1.417291 0
M  V30 26 C -2.686660 -2.606310 -1.511477 0
M  V30 27 N -2.798187 -3.846553 -0.962751 0
M  V30 28 H -1.628931 -6.387399 -0.739656 0
M  V30 29 H -1.983525 -5.762442 0.903903 0
M  V30 30 H -0.299156 -5.723782 0.255135 0
M  V30 31 H 0.358252 -3.387195 -0.817457 0
M  V30 32 H -2.400452 -0.825166 -3.459045 0
M  V30 33 H -1.538390 1.399234 -4.284175 0
M  V30 34 H 0.472260 2.350659 -3.218464 0
M  V30 35 H 3.116850 2.086551 -2.878946 0
M  V30 36 H 4.718907 2.792130 1.838991 0
M  V30 37 H 3.326730 1.927271 3.753368 0
M  V30 38 H -0.701866 -0.295741 2.337332 0
M  V30 39 H -1.126969 0.020148 7.083513 0
M  V30 40 H 0.341122 -1.068499 7.232482 0
M  V30 41 H 0.490867 0.699626 7.373126 0
M  V30 42 H 2.084540 1.161201 5.317872 0
M  V30 43 H 0.767176 -0.981781 -0.615604 0
M  V30 44 H -3.551836 -2.055231 -1.857563 0
M  V30 END ATOM
M  V30 BEGIN BOND
M  V30 1 1 1 2
M  V30 2 1 2 3
M  V30 3 2 3 4
M  V30 4 1 4 5
M  V30 5 2 5 6
M  V30 6 1 6 7
M  V30 7 2 7 8
M  V30 8 1 8 9
M  V30 9 1 9 10
M  V30 10 2 10 11
M  V30 11 1 11 12
M  V30 12 1 12 13
M  V30 13 2 13 14
M  V30 14 1 14 15
M  V30 15 2 15 16
M  V30 16 1 16 17
M  V30 17 1 17 18
M  V30 18 2 18 19
M  V30 19 1 19 20
M  V30 20 1 20 21
M  V30 21 1 20 22
M  V30 22 1 16 23
M  V30 23 2 23 24
M  V30 24 2 9 25
M  V30 25 1 4 26
M  V30 26 2 26 27
M  V30 27 1 27 2
M  V30 28 1 25 5
M  V30 29 1 24 10
M  V30 30 1 24 13
M  V30 31 2 22 17
M  V30 32 1 1 28
M  V30 33 1 1 29
M  V30 34 1 1 30
M  V30 35 1 3 31
M  V30 36 1 6 32
M  V30 37 1 7 33
M  V30 38 1 8 34
M  V30 39 1 11 35
M  V30 40 1 14 36
M  V30 41 1 15 37
M  V30 42 1 18 38
M  V30 43 1 21 39
M  V30 44 1 21 40
M  V30 45 1 21 41
M  V30 46 1 22 42
M  V30 47 1 25 43
M  V30 48 1 26 44
M  V30 END BOND
M  V30 END CTAB
M  END
>  <Dataset>  (203) 
ChEMBL_Kinases

>  <Ligand_Instance>  (203) 
nan

>  <PDB_ID>  (203) 
nan

>  <Standardized_SMILES>  (203) 
Cn1cc(-c2cccc(-c3coc4ccc(-c5cnn(C)c5)nc34)c2)cn1

>  <Name>  (203) 
nan

>  <Pocket>  (203) 
nan

>  <ATP_Site>  (203) 
nan

>  <Peripheral>  (203) 
nan

>  <Num_H_Atoms_ProtBoundConf>  (203) 
nan

>  <Num_Resolved_Atoms>  (203) 
nan

>  <Num_Not_Resolved_Atoms>  (203) 
nan

$$$$
CHEMBL551064
     RDKit          3D

  0  0  0  0  0  0  0  0  0  0999 V3000
M  V30 BEGIN CTAB
M  V30 COUNTS 59 64 0 0 0
M  V30 BEGIN ATOM
M  V30 1 N 2.907367 0.416842 3.327715 0
M  V30 2 C 2.549026 -0.953268 3.221813 0
M  V30 3 N 2.733279 -1.768780 4.298017 0
M  V30 4 C 2.394961 -3.072669 4.162680 0
M  V30 5 N 1.889511 -3.611215 3.034437 0
M  V30 6 C 1.682855 -2.857430 1.933146 0
M  V30 7 C 2.030902 -1.534352 2.085732 0
M  V30 8 C 1.785502 -0.858475 0.910853 0
M  V30 9 C 1.888867 0.501720 0.402974 0
M  V30 10 C 2.550249 0.790626 -0.754119 0
M  V30 11 C 2.617878 2.085091 -1.225578 0
M  V30 12 C 1.990512 3.101395 -0.488670 0
M  V30 13 C 1.302679 2.826292 0.707020 0
M  V30 14 O 0.829428 4.013705 1.146439 0
M  V30 15 C 0.083428 4.393195 2.244708 0
M  V30 16 C -1.242565 3.754235 2.276237 0
M  V30 17 C -1.727884 2.628588 2.901399 0
M  V30 18 C -3.039046 2.240670 2.746484 0
M  V30 19 C -3.944871 2.932035 1.972928 0
M  V30 20 C -3.475927 4.077923 1.328745 0
M  V30 21 C -2.161987 4.459113 1.489167 0
M  V30 22 C 1.281452 1.512182 1.108540 0
M  V30 23 C 1.275307 -1.824964 0.036566 0
M  V30 24 N 1.220344 -3.012118 0.662853 0
M  V30 25 C 0.758818 -4.319893 0.164174 0 CFG=1
M  V30 26 C -0.733996 -4.422616 -0.028189 0
M  V30 27 C -0.539926 -4.312960 -1.490269 0 CFG=2
M  V30 28 N -1.217778 -5.253078 -2.335673 0
M  V30 29 C -2.633426 -5.290585 -2.296565 0
M  V30 30 C -2.675391 -4.221532 -3.356350 0
M  V30 31 C -1.305144 -4.764512 -3.701468 0
M  V30 32 C 0.933599 -4.560665 -1.294762 0
M  V30 33 H 3.725995 0.444790 2.693499 0
M  V30 34 H 2.449823 1.172238 3.900381 0
M  V30 35 H 2.550273 -3.714860 5.040577 0
M  V30 36 H 3.003151 -0.039895 -1.259316 0
M  V30 37 H 3.168002 2.183420 -2.148379 0
M  V30 38 H 2.160753 4.046506 -1.028900 0
M  V30 39 H 0.603948 4.050702 3.195825 0
M  V30 40 H -0.011127 5.521451 2.295334 0
M  V30 41 H -0.970395 2.145697 3.491600 0
M  V30 42 H -3.242823 1.326174 3.316090 0
M  V30 43 H -4.942385 2.516065 1.938794 0
M  V30 44 H -4.210310 4.585585 0.738258 0
M  V30 45 H -1.957007 5.366666 0.925082 0
M  V30 46 H 0.726236 1.427835 2.023122 0
M  V30 47 H 0.944635 -1.760598 -0.990877 0
M  V30 48 H 1.193994 -5.168649 0.744869 0
M  V30 49 H -1.085006 -5.412434 0.309367 0
M  V30 50 H -1.322876 -3.618289 0.465425 0
M  V30 51 H -0.684206 -3.271750 -1.876781 0
M  V30 52 H -2.996466 -6.255911 -2.744146 0
M  V30 53 H -3.143339 -5.092694 -1.352188 0
M  V30 54 H -3.466621 -4.390406 -4.129771 0
M  V30 55 H -2.663969 -3.188125 -2.948782 0
M  V30 56 H -1.369517 -5.576720 -4.465294 0
M  V30 57 H -0.591658 -3.945245 -3.939725 0
M  V30 58 H 1.196007 -5.609193 -1.540515 0
M  V30 59 H 1.595728 -3.851798 -1.834987 0
M  V30 END ATOM
M  V30 BEGIN BOND
M  V30 1 1 1 2
M  V30 2 2 2 3
M  V30 3 1 3 4
M  V30 4 2 4 5
M  V30 5 1 5 6
M  V30 6 2 6 7
M  V30 7 1 7 8
M  V30 8 1 8 9
M  V30 9 2 9 10
M  V30 10 1 10 11
M  V30 11 2 11 12
M  V30 12 1 12 13
M  V30 13 1 13 14
M  V30 14 1 14 15
M  V30 15 1 15 16
M  V30 16 2 16 17
M  V30 17 1 17 18
M  V30 18 2 18 19
M  V30 19 1 19 20
M  V30 20 2 20 21
M  V30 21 2 13 22
M  V30 22 2 8 23
M  V30 23 1 23 24
M  V30 24 1 24 25
M  V30 25 1 25 26
M  V30 26 1 26 27
M  V30 27 1 27 28
M  V30 28 1 28 29
M  V30 29 1 29 30
M  V30 30 1 30 31
M  V30 31 1 27 32
M  V30 32 1 7 2
M  V30 33 1 22 9
M  V30 34 1 32 25
M  V30 35 1 24 6
M  V30 36 1 31 28
M  V30 37 1 21 16
M  V30 38 1 1 33
M  V30 39 1 1 34
M  V30 40 1 4 35
M  V30 41 1 10 36
M  V30 42 1 11 37
M  V30 43 1 12 38
M  V30 44 1 15 39
M  V30 45 1 15 40
M  V30 46 1 17 41
M  V30 47 1 18 42
M  V30 48 1 19 43
M  V30 49 1 20 44
M  V30 50 1 21 45
M  V30 51 1 22 46
M  V30 52 1 23 47
M  V30 53 1 25 48 CFG=1
M  V30 54 1 26 49
M  V30 55 1 26 50
M  V30 56 1 27 51 CFG=3
M  V30 57 1 29 52
M  V30 58 1 29 53
M  V30 59 1 30 54
M  V30 60 1 30 55
M  V30 61 1 31 56
M  V30 62 1 31 57
M  V30 63 1 32 58
M  V30 64 1 32 59
M  V30 END BOND
M  V30 END CTAB
M  END
>  <Dataset>  (204) 
ChEMBL_Kinases

>  <Ligand_Instance>  (204) 
nan

>  <PDB_ID>  (204) 
nan

>  <Standardized_SMILES>  (204) 
Nc1ncnc2c1c(-c1cccc(OCc3ccccc3)c1)cn2[C@H]1C[C@H](N2CCC2)C1

>  <Name>  (204) 
AEW-541

>  <Pocket>  (204) 
nan

>  <ATP_Site>  (204) 
nan

>  <Peripheral>  (204) 
nan

>  <Num_H_Atoms_ProtBoundConf>  (204) 
nan

>  <Num_Resolved_Atoms>  (204) 
nan

>  <Num_Not_Resolved_Atoms>  (204) 
nan

$$$$
CHEMBL3545360
     RDKit          3D

  0  0  0  0  0  0  0  0  0  0999 V3000
M  V30 BEGIN CTAB
M  V30 COUNTS 81 85 0 0 0
M  V30 BEGIN ATOM
M  V30 1 C 2.259710 0.192966 5.820769 0
M  V30 2 O 2.066102 -0.825224 4.847076 0
M  V30 3 C 0.859252 -0.828799 4.160766 0
M  V30 4 C -0.135420 0.102077 4.387846 0
M  V30 5 C -1.319922 0.056943 3.680058 0
M  V30 6 N -2.345581 1.023530 3.905577 0
M  V30 7 C -3.738991 0.852800 3.548542 0
M  V30 8 C -4.104158 1.783656 2.445834 0
M  V30 9 C -3.362394 3.074137 2.391696 0
M  V30 10 N -2.667609 3.277586 1.133277 0
M  V30 11 C -3.544633 3.292826 0.008812 0
M  V30 12 C -3.134892 2.382421 -1.098177 0
M  V30 13 N -1.757226 2.520765 -1.458203 0
M  V30 14 C -1.540147 3.424144 -2.571747 0
M  V30 15 C -0.887762 2.888067 -0.385725 0
M  V30 16 C -1.466525 2.539064 0.984902 0
M  V30 17 C -2.569000 3.436956 3.598130 0
M  V30 18 C -2.164994 2.328326 4.510955 0
M  V30 19 C -1.576218 -0.918433 2.707434 0
M  V30 20 C -0.506812 -1.814033 2.552229 0
M  V30 21 C 0.695168 -1.824831 3.221924 0
M  V30 22 N 1.650984 -2.854761 2.917776 0
M  V30 23 C 1.409912 -3.790924 1.858307 0
M  V30 24 N 0.654783 -4.893900 1.988353 0
M  V30 25 C 0.445028 -5.763793 0.987456 0
M  V30 26 N 1.024653 -5.506184 -0.191779 0
M  V30 27 C 1.794211 -4.429127 -0.409322 0
M  V30 28 N 2.452748 -4.096043 -1.624884 0
M  V30 29 C 2.517843 -4.780954 -2.840973 0
M  V30 30 C 1.958849 -6.054235 -2.983878 0
M  V30 31 C 2.026889 -6.802626 -4.147329 0
M  V30 32 C 2.681603 -6.287115 -5.258203 0
M  V30 33 C 3.224380 -5.040091 -5.111298 0
M  V30 34 C 3.172513 -4.272547 -3.967358 0
M  V30 35 S 3.871997 -2.692234 -3.939163 0
M  V30 36 O 4.539473 -2.447418 -5.286072 0
M  V30 37 O 4.973623 -2.566611 -2.925436 0
M  V30 38 C 2.671708 -1.406052 -3.757689 0
M  V30 39 C 1.847495 -1.345534 -5.026296 0
M  V30 40 C 3.423673 -0.071728 -3.681514 0
M  V30 41 N 1.935380 -3.635182 0.646766 0
M  V30 42 H 1.427790 0.297396 6.524359 0
M  V30 43 H 3.188556 -0.012312 6.423140 0
M  V30 44 H 2.436522 1.182260 5.351582 0
M  V30 45 H 0.059731 0.846392 5.132983 0
M  V30 46 H -4.371853 1.105448 4.438545 0
M  V30 47 H -3.944104 -0.191725 3.218607 0
M  V30 48 H -4.023142 1.202445 1.479966 0
M  V30 49 H -5.229972 1.906203 2.531542 0
M  V30 50 H -4.175896 3.867351 2.325736 0
M  V30 51 H -4.603573 3.030252 0.299299 0
M  V30 52 H -3.557930 4.342380 -0.405741 0
M  V30 53 H -3.290243 1.317937 -0.789271 0
M  V30 54 H -3.778777 2.580723 -1.987496 0
M  V30 55 H -1.401905 4.477675 -2.258573 0
M  V30 56 H -2.329113 3.317385 -3.352251 0
M  V30 57 H -0.601645 3.103715 -3.069179 0
M  V30 58 H -0.620088 3.960108 -0.418627 0
M  V30 59 H 0.062916 2.312466 -0.492551 0
M  V30 60 H -0.716703 2.889657 1.705337 0
M  V30 61 H -1.577584 1.438762 0.967658 0
M  V30 62 H -1.610872 3.902716 3.220830 0
M  V30 63 H -3.033682 4.280298 4.187283 0
M  V30 64 H -1.139820 2.470539 4.937557 0
M  V30 65 H -2.835633 2.357199 5.399609 0
M  V30 66 H -2.454735 -1.017362 2.122366 0
M  V30 67 H -0.663667 -2.586617 1.808561 0
M  V30 68 H 2.465802 -2.832740 3.536488 0
M  V30 69 H -0.174065 -6.657916 1.112796 0
M  V30 70 H 2.996121 -3.191031 -1.626331 0
M  V30 71 H 1.429884 -6.571241 -2.214171 0
M  V30 72 H 1.598668 -7.787429 -4.264123 0
M  V30 73 H 2.769964 -6.814401 -6.186757 0
M  V30 74 H 3.742852 -4.621935 -5.976319 0
M  V30 75 H 2.052582 -1.453161 -2.871219 0
M  V30 76 H 1.147131 -0.480134 -4.961636 0
M  V30 77 H 2.555030 -1.147562 -5.875413 0
M  V30 78 H 1.280341 -2.262880 -5.217419 0
M  V30 79 H 4.267201 -0.048184 -4.386446 0
M  V30 80 H 2.710574 0.728662 -3.939719 0
M  V30 81 H 3.768126 0.103843 -2.639268 0
M  V30 END ATOM
M  V30 BEGIN BOND
M  V30 1 1 1 2
M  V30 2 1 2 3
M  V30 3 2 3 4
M  V30 4 1 4 5
M  V30 5 1 5 6
M  V30 6 1 6 7
M  V30 7 1 7 8
M  V30 8 1 8 9
M  V30 9 1 9 10
M  V30 10 1 10 11
M  V30 11 1 11 12
M  V30 12 1 12 13
M  V30 13 1 13 14
M  V30 14 1 13 15
M  V30 15 1 15 16
M  V30 16 1 9 17
M  V30 17 1 17 18
M  V30 18 2 5 19
M  V30 19 1 19 20
M  V30 20 2 20 21
M  V30 21 1 21 22
M  V30 22 1 22 23
M  V30 23 2 23 24
M  V30 24 1 24 25
M  V30 25 2 25 26
M  V30 26 1 26 27
M  V30 27 1 27 28
M  V30 28 1 28 29
M  V30 29 2 29 30
M  V30 30 1 30 31
M  V30 31 2 31 32
M  V30 32 1 32 33
M  V30 33 2 33 34
M  V30 34 1 34 35
M  V30 35 2 35 36
M  V30 36 2 35 37
M  V30 37 1 35 38
M  V30 38 1 38 39
M  V30 39 1 38 40
M  V30 40 2 27 41
M  V30 41 1 21 3
M  V30 42 1 41 23
M  V30 43 1 18 6
M  V30 44 1 34 29
M  V30 45 1 16 10
M  V30 46 1 1 42
M  V30 47 1 1 43
M  V30 48 1 1 44
M  V30 49 1 4 45
M  V30 50 1 7 46
M  V30 51 1 7 47
M  V30 52 1 8 48
M  V30 53 1 8 49
M  V30 54 1 9 50
M  V30 55 1 11 51
M  V30 56 1 11 52
M  V30 57 1 12 53
M  V30 58 1 12 54
M  V30 59 1 14 55
M  V30 60 1 14 56
M  V30 61 1 14 57
M  V30 62 1 15 58
M  V30 63 1 15 59
M  V30 64 1 16 60
M  V30 65 1 16 61
M  V30 66 1 17 62
M  V30 67 1 17 63
M  V30 68 1 18 64
M  V30 69 1 18 65
M  V30 70 1 19 66
M  V30 71 1 20 67
M  V30 72 1 22 68
M  V30 73 1 25 69
M  V30 74 1 28 70
M  V30 75 1 30 71
M  V30 76 1 31 72
M  V30 77 1 32 73
M  V30 78 1 33 74
M  V30 79 1 38 75
M  V30 80 1 39 76
M  V30 81 1 39 77
M  V30 82 1 39 78
M  V30 83 1 40 79
M  V30 84 1 40 80
M  V30 85 1 40 81
M  V30 END BOND
M  V30 END CTAB
M  END
>  <Dataset>  (205) 
ChEMBL_Kinases

>  <Ligand_Instance>  (205) 
nan

>  <PDB_ID>  (205) 
nan

>  <Standardized_SMILES>  (205) 
COc1cc(N2CCC(N3CCN(C)CC3)CC2)ccc1Nc1ncnc(Nc2ccccc2S(=O)(=O)C(C)C)n1

>  <Name>  (205) 
ASP-3026

>  <Pocket>  (205) 
nan

>  <ATP_Site>  (205) 
nan

>  <Peripheral>  (205) 
nan

>  <Num_H_Atoms_ProtBoundConf>  (205) 
nan

>  <Num_Resolved_Atoms>  (205) 
nan

>  <Num_Not_Resolved_Atoms>  (205) 
nan

$$$$
CHEMBL3298236
     RDKit          3D

  0  0  0  0  0  0  0  0  0  0999 V3000
M  V30 BEGIN CTAB
M  V30 COUNTS 25 27 0 0 0
M  V30 BEGIN ATOM
M  V30 1 C 1.412664 -1.469036 4.548240 0
M  V30 2 C 0.084711 -1.481708 4.174502 0
M  V30 3 C -0.213368 -1.087341 2.869908 0
M  V30 4 C 0.825877 -0.709381 2.031299 0
M  V30 5 C 0.443848 -0.308224 0.679986 0
M  V30 6 C 1.286361 -0.519343 -0.388625 0
M  V30 7 C 1.056641 -0.193619 -1.708971 0
M  V30 8 C -0.170891 0.414385 -1.957623 0
M  V30 9 N -0.713886 0.857923 -3.116787 0
M  V30 10 N -1.912271 1.364016 -2.833584 0
M  V30 11 C -2.169301 1.262256 -1.509008 0
M  V30 12 C -1.074863 0.659376 -0.922099 0
M  V30 13 C -0.760178 0.296851 0.383743 0
M  V30 14 C 2.142051 -0.713148 2.451862 0
M  V30 15 C 2.478381 -1.099567 3.743945 0
M  V30 16 H 1.683315 -1.771537 5.561943 0
M  V30 17 H -0.679388 -1.780685 4.855578 0
M  V30 18 H -1.243822 -1.092082 2.564241 0
M  V30 19 H 2.238661 -0.999673 -0.143788 0
M  V30 20 H 1.792758 -0.406612 -2.471446 0
M  V30 21 H -0.278415 0.816236 -4.073929 0
M  V30 22 H -3.083367 1.599392 -0.999647 0
M  V30 23 H -1.473954 0.492498 1.188789 0
M  V30 24 H 2.922905 -0.415166 1.778704 0
M  V30 25 H 3.490978 -1.120448 4.122729 0
M  V30 END ATOM
M  V30 BEGIN BOND
M  V30 1 2 1 2
M  V30 2 1 2 3
M  V30 3 2 3 4
M  V30 4 1 4 5
M  V30 5 2 5 6
M  V30 6 1 6 7
M  V30 7 2 7 8
M  V30 8 1 8 9
M  V30 9 1 9 10
M  V30 10 2 10 11
M  V30 11 1 11 12
M  V30 12 2 12 13
M  V30 13 1 4 14
M  V30 14 2 14 15
M  V30 15 1 15 1
M  V30 16 1 13 5
M  V30 17 1 12 8
M  V30 18 1 1 16
M  V30 19 1 2 17
M  V30 20 1 3 18
M  V30 21 1 6 19
M  V30 22 1 7 20
M  V30 23 1 9 21
M  V30 24 1 11 22
M  V30 25 1 13 23
M  V30 26 1 14 24
M  V30 27 1 15 25
M  V30 END BOND
M  V30 END CTAB
M  END
>  <Dataset>  (206) 
ChEMBL_Kinases

>  <Ligand_Instance>  (206) 
nan

>  <PDB_ID>  (206) 
nan

>  <Standardized_SMILES>  (206) 
c1ccc(-c2ccc3[nH]ncc3c2)cc1

>  <Name>  (206) 
nan

>  <Pocket>  (206) 
nan

>  <ATP_Site>  (206) 
nan

>  <Peripheral>  (206) 
nan

>  <Num_H_Atoms_ProtBoundConf>  (206) 
nan

>  <Num_Resolved_Atoms>  (206) 
nan

>  <Num_Not_Resolved_Atoms>  (206) 
nan

$$$$
CHEMBL4872886
     RDKit          3D

  0  0  0  0  0  0  0  0  0  0999 V3000
M  V30 BEGIN CTAB
M  V30 COUNTS 43 44 0 0 0
M  V30 BEGIN ATOM
M  V30 1 C -0.482214 -5.742428 0.233587 0
M  V30 2 C -0.221312 -4.760059 1.407725 0
M  V30 3 C -1.341584 -3.774929 1.393842 0
M  V30 4 C 1.137215 -4.209160 1.145032 0
M  V30 5 C 1.709278 -3.236541 2.122131 0 CFG=1
M  V30 6 N 3.067791 -2.914729 1.569355 0
M  V30 7 C 1.018191 -1.966093 2.122232 0
M  V30 8 O 2.106756 -1.816464 1.448390 0
M  V30 9 N 0.085823 -0.944472 2.340065 0
M  V30 10 C 0.239837 0.370065 1.828383 0
M  V30 11 C 0.902844 1.287674 2.613127 0
M  V30 12 C 1.044070 2.564798 2.104954 0
M  V30 13 C 0.542590 2.929983 0.850009 0
M  V30 14 C 0.762937 4.311573 0.439044 0
M  V30 15 C 0.391775 4.951935 -0.720557 0
M  V30 16 N 0.828266 6.228263 -0.623248 0
M  V30 17 C 1.454386 6.359603 0.576853 0
M  V30 18 O 1.391427 5.196700 1.173614 0
M  V30 19 C -0.116483 1.993595 0.084861 0
M  V30 20 O -0.612118 2.343667 -1.148825 0
M  V30 21 C -1.296281 1.567973 -2.065692 0
M  V30 22 F -0.684751 1.566704 -3.319580 0
M  V30 23 F -2.563806 2.147846 -2.218295 0
M  V30 24 C -0.256472 0.720867 0.592840 0
M  V30 25 H -1.308767 -6.415212 0.482419 0
M  V30 26 H -0.668117 -5.088797 -0.642138 0
M  V30 27 H 0.474334 -6.286589 0.094311 0
M  V30 28 H -0.266543 -5.328804 2.369427 0
M  V30 29 H -1.705860 -3.519258 2.418701 0
M  V30 30 H -2.243818 -4.278878 0.930064 0
M  V30 31 H -1.183900 -2.867690 0.816764 0
M  V30 32 H 1.060049 -3.695023 0.129795 0
M  V30 33 H 1.816161 -5.094485 0.989677 0
M  V30 34 H 1.892330 -3.662194 3.119226 0
M  V30 35 H 3.727645 -2.687411 2.329772 0
M  V30 36 H 3.378510 -3.637668 0.907752 0
M  V30 37 H -0.544117 -1.527118 2.910460 0
M  V30 38 H 1.291984 1.017384 3.578716 0
M  V30 39 H 1.574035 3.251346 2.761575 0
M  V30 40 H -0.139689 4.544576 -1.554579 0
M  V30 41 H 1.923832 7.267182 0.971756 0
M  V30 42 H -1.453173 0.524559 -1.735061 0
M  V30 43 H -0.758093 -0.071670 0.060307 0
M  V30 END ATOM
M  V30 BEGIN BOND
M  V30 1 1 1 2
M  V30 2 1 2 3
M  V30 3 1 2 4
M  V30 4 1 4 5
M  V30 5 1 5 6
M  V30 6 1 5 7
M  V30 7 2 7 8
M  V30 8 1 7 9
M  V30 9 1 9 10
M  V30 10 2 10 11
M  V30 11 1 11 12
M  V30 12 2 12 13
M  V30 13 1 13 14
M  V30 14 2 14 15
M  V30 15 1 15 16
M  V30 16 2 16 17
M  V30 17 1 17 18
M  V30 18 1 13 19
M  V30 19 1 19 20
M  V30 20 1 20 21
M  V30 21 1 21 22
M  V30 22 1 21 23
M  V30 23 2 19 24
M  V30 24 1 24 10
M  V30 25 1 18 14
M  V30 26 1 1 25
M  V30 27 1 1 26
M  V30 28 1 1 27
M  V30 29 1 2 28
M  V30 30 1 3 29
M  V30 31 1 3 30
M  V30 32 1 3 31
M  V30 33 1 4 32
M  V30 34 1 4 33
M  V30 35 1 5 34 CFG=1
M  V30 36 1 6 35
M  V30 37 1 6 36
M  V30 38 1 9 37
M  V30 39 1 11 38
M  V30 40 1 12 39
M  V30 41 1 15 40
M  V30 42 1 17 41
M  V30 43 1 21 42
M  V30 44 1 24 43
M  V30 END BOND
M  V30 END CTAB
M  END
>  <Dataset>  (207) 
ChEMBL_Kinases

>  <Ligand_Instance>  (207) 
nan

>  <PDB_ID>  (207) 
nan

>  <Standardized_SMILES>  (207) 
CC(C)C[C@@H](N)C(=O)Nc1ccc(-c2cnco2)c(OC(F)F)c1

>  <Name>  (207) 
nan

>  <Pocket>  (207) 
nan

>  <ATP_Site>  (207) 
nan

>  <Peripheral>  (207) 
nan

>  <Num_H_Atoms_ProtBoundConf>  (207) 
nan

>  <Num_Resolved_Atoms>  (207) 
nan

>  <Num_Not_Resolved_Atoms>  (207) 
nan

$$$$
CHEMBL1946170
     RDKit          3D

  0  0  0  0  0  0  0  0  0  0999 V3000
M  V30 BEGIN CTAB
M  V30 COUNTS 48 50 0 0 0
M  V30 BEGIN ATOM
M  V30 1 C -0.163879 -3.791208 -3.008761 0
M  V30 2 N 0.632239 -2.810986 -3.722065 0
M  V30 3 C 0.877936 -1.671632 -2.890175 0
M  V30 4 O 0.347869 -1.795110 -1.749999 0
M  V30 5 C 1.650322 -0.508507 -3.315553 0
M  V30 6 C 1.786176 0.496152 -2.384500 0
M  V30 7 C 2.506395 1.618677 -2.733378 0
M  V30 8 O 2.629288 2.630764 -1.761308 0
M  V30 9 C 2.024790 2.459408 -0.499465 0
M  V30 10 C 2.610152 1.880051 0.610636 0
M  V30 11 C 1.874938 1.789092 1.777835 0
M  V30 12 C 0.572490 2.273972 1.824173 0
M  V30 13 N -0.006726 2.080100 3.126110 0
M  V30 14 C -0.680733 0.814120 3.230369 0
M  V30 15 O -0.745006 -0.011571 2.284394 0
M  V30 16 N -1.344067 0.362169 4.409596 0
M  V30 17 C -1.990362 -0.924414 4.411061 0
M  V30 18 C -3.328647 -0.921838 4.015649 0
M  V30 19 C -4.018051 -2.131869 3.992947 0
M  V30 20 C -3.413617 -3.340892 4.352002 0
M  V30 21 Cl -4.299144 -4.851877 4.316378 0
M  V30 22 C -2.078480 -3.297216 4.739575 0
M  V30 23 C -1.362786 -4.526672 5.134528 0
M  V30 24 F -0.048478 -4.301457 5.488829 0
M  V30 25 F -2.106263 -5.096455 6.157168 0
M  V30 26 F -1.444472 -5.417256 4.071980 0
M  V30 27 C -1.369914 -2.114032 4.771944 0
M  V30 28 C -0.012262 2.852862 0.714801 0
M  V30 29 F -1.274507 3.276576 0.904272 0
M  V30 30 C 0.727662 2.940886 -0.448866 0
M  V30 31 C 3.107248 1.825164 -3.942192 0
M  V30 32 C 2.924336 0.761646 -4.832244 0
M  V30 33 N 2.218829 -0.366248 -4.526067 0
M  V30 34 H -1.111276 -3.356290 -2.616486 0
M  V30 35 H 0.461970 -4.157522 -2.165082 0
M  V30 36 H -0.392304 -4.665446 -3.644813 0
M  V30 37 H 1.036664 -2.804197 -4.701884 0
M  V30 38 H 1.333814 0.410901 -1.386172 0
M  V30 39 H 3.625720 1.532637 0.478549 0
M  V30 40 H 2.418578 1.321924 2.586990 0
M  V30 41 H -0.024025 2.688182 3.997389 0
M  V30 42 H -1.336962 1.002817 5.259108 0
M  V30 43 H -3.865003 -0.038508 3.725350 0
M  V30 44 H -5.074279 -2.150091 3.683898 0
M  V30 45 H -0.328518 -2.029106 5.066650 0
M  V30 46 H 0.181169 3.409736 -1.259850 0
M  V30 47 H 3.663765 2.684843 -4.221441 0
M  V30 48 H 3.351436 0.800507 -5.827155 0
M  V30 END ATOM
M  V30 BEGIN BOND
M  V30 1 1 1 2
M  V30 2 1 2 3
M  V30 3 2 3 4
M  V30 4 1 3 5
M  V30 5 2 5 6
M  V30 6 1 6 7
M  V30 7 1 7 8
M  V30 8 1 8 9
M  V30 9 2 9 10
M  V30 10 1 10 11
M  V30 11 2 11 12
M  V30 12 1 12 13
M  V30 13 1 13 14
M  V30 14 2 14 15
M  V30 15 1 14 16
M  V30 16 1 16 17
M  V30 17 2 17 18
M  V30 18 1 18 19
M  V30 19 2 19 20
M  V30 20 1 20 21
M  V30 21 1 20 22
M  V30 22 1 22 23
M  V30 23 1 23 24
M  V30 24 1 23 25
M  V30 25 1 23 26
M  V30 26 2 22 27
M  V30 27 1 12 28
M  V30 28 1 28 29
M  V30 29 2 28 30
M  V30 30 2 7 31
M  V30 31 1 31 32
M  V30 32 2 32 33
M  V30 33 1 33 5
M  V30 34 1 30 9
M  V30 35 1 27 17
M  V30 36 1 1 34
M  V30 37 1 1 35
M  V30 38 1 1 36
M  V30 39 1 2 37
M  V30 40 1 6 38
M  V30 41 1 10 39
M  V30 42 1 11 40
M  V30 43 1 13 41
M  V30 44 1 16 42
M  V30 45 1 18 43
M  V30 46 1 19 44
M  V30 47 1 27 45
M  V30 48 1 30 46
M  V30 49 1 31 47
M  V30 50 1 32 48
M  V30 END BOND
M  V30 END CTAB
M  END
>  <Dataset>  (208) 
ChEMBL_Kinases

>  <Ligand_Instance>  (208) 
nan

>  <PDB_ID>  (208) 
nan

>  <Standardized_SMILES>  (208) 
CNC(=O)c1cc(Oc2ccc(NC(=O)Nc3ccc(Cl)c(C(F)(F)F)c3)c(F)c2)ccn1

>  <Name>  (208) 
REGORAFENIB

>  <Pocket>  (208) 
nan

>  <ATP_Site>  (208) 
nan

>  <Peripheral>  (208) 
nan

>  <Num_H_Atoms_ProtBoundConf>  (208) 
nan

>  <Num_Resolved_Atoms>  (208) 
nan

>  <Num_Not_Resolved_Atoms>  (208) 
nan

$$$$
CHEMBL574646
     RDKit          3D

  0  0  0  0  0  0  0  0  0  0999 V3000
M  V30 BEGIN CTAB
M  V30 COUNTS 36 38 0 0 0
M  V30 BEGIN ATOM
M  V30 1 O -0.502341 0.012745 2.872866 0
M  V30 2 C -0.093023 -0.151278 1.691737 0
M  V30 3 C 0.474023 -1.476106 1.336748 0
M  V30 4 C 0.282461 -2.548068 2.068040 0
M  V30 5 C 0.816103 -3.864414 1.764484 0
M  V30 6 C 1.244253 -4.521040 2.926077 0
M  V30 7 C 1.794186 -5.805542 2.873121 0
M  V30 8 C 1.893552 -6.388861 1.635719 0
M  V30 9 C 1.476099 -5.749199 0.505198 0
M  V30 10 N 0.963397 -4.533996 0.615692 0
M  V30 11 C 1.270980 -1.500084 0.088109 0
M  V30 12 N 0.565356 -0.673884 -0.900387 0
M  V30 13 C 0.692169 0.722708 -0.457713 0
M  V30 14 C -0.177422 0.946358 0.696184 0
M  V30 15 C -0.975574 1.933894 1.010410 0
M  V30 16 C -1.100730 3.024526 0.079869 0
M  V30 17 C -1.362437 2.779356 -1.251827 0
M  V30 18 C -1.461529 3.800063 -2.194228 0
M  V30 19 C -1.290221 5.112392 -1.772808 0
M  V30 20 C -1.029438 5.267206 -0.407217 0
M  V30 21 N -0.934131 4.282550 0.500798 0
M  V30 22 H -0.340747 -2.385190 2.963161 0
M  V30 23 H 1.211481 -4.150972 3.956950 0
M  V30 24 H 2.145157 -6.379563 3.696702 0
M  V30 25 H 2.314152 -7.395452 1.506301 0
M  V30 26 H 1.542954 -6.185467 -0.481476 0
M  V30 27 H 1.564048 -2.470959 -0.281061 0
M  V30 28 H 2.213398 -0.942610 0.325131 0
M  V30 29 H -0.478708 -0.865145 -0.826260 0
M  V30 30 H 1.754912 0.747959 -0.039144 0
M  V30 31 H 0.699440 1.448025 -1.252467 0
M  V30 32 H -1.534124 1.952811 1.935449 0
M  V30 33 H -1.534486 1.813505 -1.700815 0
M  V30 34 H -1.658117 3.700863 -3.237715 0
M  V30 35 H -1.340614 6.014962 -2.397583 0
M  V30 36 H -0.890816 6.301035 -0.053061 0
M  V30 END ATOM
M  V30 BEGIN BOND
M  V30 1 2 1 2
M  V30 2 1 2 3
M  V30 3 2 3 4
M  V30 4 1 4 5
M  V30 5 2 5 6
M  V30 6 1 6 7
M  V30 7 2 7 8
M  V30 8 1 8 9
M  V30 9 2 9 10
M  V30 10 1 3 11
M  V30 11 1 11 12
M  V30 12 1 12 13
M  V30 13 1 13 14
M  V30 14 2 14 15
M  V30 15 1 15 16
M  V30 16 2 16 17
M  V30 17 1 17 18
M  V30 18 2 18 19
M  V30 19 1 19 20
M  V30 20 2 20 21
M  V30 21 1 14 2
M  V30 22 1 21 16
M  V30 23 1 10 5
M  V30 24 1 4 22
M  V30 25 1 6 23
M  V30 26 1 7 24
M  V30 27 1 8 25
M  V30 28 1 9 26
M  V30 29 1 11 27
M  V30 30 1 11 28
M  V30 31 1 12 29
M  V30 32 1 13 30
M  V30 33 1 13 31
M  V30 34 1 15 32
M  V30 35 1 17 33
M  V30 36 1 18 34
M  V30 37 1 19 35
M  V30 38 1 20 36
M  V30 END BOND
M  V30 END CTAB
M  END
>  <Dataset>  (209) 
ChEMBL_Kinases

>  <Ligand_Instance>  (209) 
nan

>  <PDB_ID>  (209) 
nan

>  <Standardized_SMILES>  (209) 
O=C1/C(=C/c2ccccn2)CNC/C1=C\c1ccccn1

>  <Name>  (209) 
nan

>  <Pocket>  (209) 
nan

>  <ATP_Site>  (209) 
nan

>  <Peripheral>  (209) 
nan

>  <Num_H_Atoms_ProtBoundConf>  (209) 
nan

>  <Num_Resolved_Atoms>  (209) 
nan

>  <Num_Not_Resolved_Atoms>  (209) 
nan

$$$$
CHEMBL516312
     RDKit          3D

  0  0  0  0  0  0  0  0  0  0999 V3000
M  V30 BEGIN CTAB
M  V30 COUNTS 39 42 0 0 0
M  V30 BEGIN ATOM
M  V30 1 N 0.841844 -6.292249 5.428294 0
M  V30 2 C 1.100448 -5.575336 4.536090 0
M  V30 3 C 1.418318 -4.716001 3.428810 0
M  V30 4 C 2.602787 -4.773983 2.738672 0
M  V30 5 C 2.850379 -3.923292 1.685743 0
M  V30 6 C 1.938521 -2.978009 1.268323 0
M  V30 7 C 2.117550 -2.040215 0.166362 0
M  V30 8 C 2.850422 -2.306524 -0.974175 0
M  V30 9 N 2.984930 -1.389654 -1.973448 0
M  V30 10 C 2.369405 -0.180206 -1.822074 0
M  V30 11 N 2.331193 0.901631 -2.636971 0
M  V30 12 C 1.593381 1.885232 -2.074649 0
M  V30 13 C 1.128841 1.448903 -0.856629 0
M  V30 14 N 0.316082 2.085102 0.130120 0
M  V30 15 C -1.045632 1.830563 -0.103495 0
M  V30 16 O -1.281406 1.099703 -1.125287 0
M  V30 17 C -2.194327 2.291915 0.665163 0
M  V30 18 C -3.442294 1.908832 0.221185 0
M  V30 19 C -4.567115 2.335701 0.939135 0
M  V30 20 C -4.406771 3.122879 2.064993 0
M  V30 21 N -3.155362 3.481547 2.473202 0
M  V30 22 C -2.051420 3.076587 1.788692 0
M  V30 23 C 1.622728 0.167799 -0.722907 0
M  V30 24 C 1.522393 -0.798530 0.253656 0
M  V30 25 C 0.750020 -2.930953 1.972446 0
M  V30 26 C 0.474567 -3.774801 3.035841 0
M  V30 27 H 3.306467 -5.506291 3.064884 0
M  V30 28 H 3.782505 -3.970194 1.143604 0
M  V30 29 H 3.327029 -3.292171 -1.052360 0
M  V30 30 H 2.788753 1.005294 -3.568812 0
M  V30 31 H 1.348798 2.879056 -2.434061 0
M  V30 32 H 0.517608 2.692132 0.977154 0
M  V30 33 H -3.635886 1.290848 -0.655701 0
M  V30 34 H -5.569475 2.039835 0.599069 0
M  V30 35 H -5.314310 3.413933 2.567403 0
M  V30 36 H -1.055082 3.367055 2.121734 0
M  V30 37 H 0.931920 -0.544596 1.139640 0
M  V30 38 H -0.038493 -2.242995 1.748360 0
M  V30 39 H -0.472350 -3.729354 3.588106 0
M  V30 END ATOM
M  V30 BEGIN BOND
M  V30 1 3 1 2
M  V30 2 1 2 3
M  V30 3 2 3 4
M  V30 4 1 4 5
M  V30 5 2 5 6
M  V30 6 1 6 7
M  V30 7 2 7 8
M  V30 8 1 8 9
M  V30 9 2 9 10
M  V30 10 1 10 11
M  V30 11 1 11 12
M  V30 12 2 12 13
M  V30 13 1 13 14
M  V30 14 1 14 15
M  V30 15 2 15 16
M  V30 16 1 15 17
M  V30 17 2 17 18
M  V30 18 1 18 19
M  V30 19 2 19 20
M  V30 20 1 20 21
M  V30 21 2 21 22
M  V30 22 1 13 23
M  V30 23 2 23 24
M  V30 24 1 6 25
M  V30 25 2 25 26
M  V30 26 1 26 3
M  V30 27 1 24 7
M  V30 28 1 23 10
M  V30 29 1 22 17
M  V30 30 1 4 27
M  V30 31 1 5 28
M  V30 32 1 8 29
M  V30 33 1 11 30
M  V30 34 1 12 31
M  V30 35 1 14 32
M  V30 36 1 18 33
M  V30 37 1 19 34
M  V30 38 1 20 35
M  V30 39 1 22 36
M  V30 40 1 24 37
M  V30 41 1 25 38
M  V30 42 1 26 39
M  V30 END BOND
M  V30 END CTAB
M  END
>  <Dataset>  (210) 
ChEMBL_Kinases

>  <Ligand_Instance>  (210) 
nan

>  <PDB_ID>  (210) 
nan

>  <Standardized_SMILES>  (210) 
N#Cc1ccc(-c2cnc3[nH]cc(NC(=O)c4cccnc4)c3c2)cc1

>  <Name>  (210) 
nan

>  <Pocket>  (210) 
nan

>  <ATP_Site>  (210) 
nan

>  <Peripheral>  (210) 
nan

>  <Num_H_Atoms_ProtBoundConf>  (210) 
nan

>  <Num_Resolved_Atoms>  (210) 
nan

>  <Num_Not_Resolved_Atoms>  (210) 
nan

$$$$
CHEMBL4789951
     RDKit          3D

  0  0  0  0  0  0  0  0  0  0999 V3000
M  V30 BEGIN CTAB
M  V30 COUNTS 41 45 0 0 0
M  V30 BEGIN ATOM
M  V30 1 C -0.634095 -3.115084 5.252031 0
M  V30 2 N 0.479540 -3.260107 4.331069 0
M  V30 3 C 0.683454 -2.454983 3.276446 0
M  V30 4 C 1.824070 -2.885798 2.633957 0
M  V30 5 C 2.448252 -2.329887 1.438693 0
M  V30 6 C 3.581099 -2.873675 0.925360 0
M  V30 7 C 4.220554 -2.380180 -0.217284 0
M  V30 8 C 3.622897 -1.280631 -0.812308 0
M  V30 9 O 3.945277 -0.575640 -1.874476 0
M  V30 10 C 3.069672 0.396303 -2.065526 0
M  V30 11 C 2.098593 0.350708 -1.080201 0
M  V30 12 C 0.948295 1.239571 -0.918227 0
M  V30 13 C 1.128195 2.620861 -1.050619 0
M  V30 14 C 0.049942 3.495913 -0.902010 0
M  V30 15 C -1.158197 2.889889 -0.623756 0
M  V30 16 C -1.378199 1.534497 -0.485354 0
M  V30 17 C -2.739711 1.096342 -0.189418 0
M  V30 18 C -3.142518 -0.017362 0.547563 0
M  V30 19 N -4.483120 -0.045034 0.572178 0
M  V30 20 N -4.979569 0.995112 -0.112019 0
M  V30 21 C -3.914359 1.691867 -0.576903 0
M  V30 22 C -0.294866 0.705491 -0.638183 0
M  V30 23 C 2.476174 -0.724402 -0.298803 0
M  V30 24 N 1.934272 -1.271676 0.807017 0
M  V30 25 C 2.284971 -3.972287 3.346360 0
M  V30 26 N 1.439440 -4.187450 4.392036 0
M  V30 27 H -0.301275 -2.514238 6.148306 0
M  V30 28 H -0.992752 -4.074548 5.656113 0
M  V30 29 H -1.468391 -2.571158 4.755514 0
M  V30 30 H 0.046331 -1.604544 2.985862 0
M  V30 31 H 4.037391 -3.739200 1.407410 0
M  V30 32 H 5.123756 -2.821047 -0.618833 0
M  V30 33 H 3.044754 1.154322 -2.849179 0
M  V30 34 H 2.100402 3.043005 -1.269883 0
M  V30 35 H 0.130849 4.570645 -0.993483 0
M  V30 36 H -2.003846 3.583533 -0.507774 0
M  V30 37 H -2.457399 -0.717836 1.006660 0
M  V30 38 H -5.959711 1.300207 -0.308802 0
M  V30 39 H -3.937930 2.593844 -1.172111 0
M  V30 40 H -0.477631 -0.346922 -0.528382 0
M  V30 41 H 3.158224 -4.594472 3.166043 0
M  V30 END ATOM
M  V30 BEGIN BOND
M  V30 1 1 1 2
M  V30 2 1 2 3
M  V30 3 2 3 4
M  V30 4 1 4 5
M  V30 5 2 5 6
M  V30 6 1 6 7
M  V30 7 2 7 8
M  V30 8 1 8 9
M  V30 9 1 9 10
M  V30 10 2 10 11
M  V30 11 1 11 12
M  V30 12 2 12 13
M  V30 13 1 13 14
M  V30 14 2 14 15
M  V30 15 1 15 16
M  V30 16 1 16 17
M  V30 17 1 17 18
M  V30 18 2 18 19
M  V30 19 1 19 20
M  V30 20 1 20 21
M  V30 21 2 16 22
M  V30 22 1 11 23
M  V30 23 2 23 24
M  V30 24 1 4 25
M  V30 25 2 25 26
M  V30 26 1 26 2
M  V30 27 1 24 5
M  V30 28 1 23 8
M  V30 29 1 22 12
M  V30 30 2 21 17
M  V30 31 1 1 27
M  V30 32 1 1 28
M  V30 33 1 1 29
M  V30 34 1 3 30
M  V30 35 1 6 31
M  V30 36 1 7 32
M  V30 37 1 10 33
M  V30 38 1 13 34
M  V30 39 1 14 35
M  V30 40 1 15 36
M  V30 41 1 18 37
M  V30 42 1 20 38
M  V30 43 1 21 39
M  V30 44 1 22 40
M  V30 45 1 25 41
M  V30 END BOND
M  V30 END CTAB
M  END
>  <Dataset>  (211) 
ChEMBL_Kinases

>  <Ligand_Instance>  (211) 
nan

>  <PDB_ID>  (211) 
nan

>  <Standardized_SMILES>  (211) 
Cn1cc(-c2ccc3occ(-c4cccc(-c5cn[nH]c5)c4)c3n2)cn1

>  <Name>  (211) 
nan

>  <Pocket>  (211) 
nan

>  <ATP_Site>  (211) 
nan

>  <Peripheral>  (211) 
nan

>  <Num_H_Atoms_ProtBoundConf>  (211) 
nan

>  <Num_Resolved_Atoms>  (211) 
nan

>  <Num_Not_Resolved_Atoms>  (211) 
nan

$$$$
CHEMBL3421968
     RDKit          3D

  0  0  0  0  0  0  0  0  0  0999 V3000
M  V30 BEGIN CTAB
M  V30 COUNTS 59 63 0 0 0
M  V30 BEGIN ATOM
M  V30 1 C 0.911582 3.311941 4.226379 0
M  V30 2 O 0.203793 2.212017 3.735239 0
M  V30 3 C 0.633529 1.401762 2.673306 0
M  V30 4 C 1.814079 1.627364 2.012257 0
M  V30 5 C 2.236378 0.839834 0.976289 0
M  V30 6 N 3.458377 1.101470 0.323387 0
M  V30 7 C 4.414021 2.132305 0.685421 0
M  V30 8 C 4.466454 3.110498 -0.442056 0
M  V30 9 N 4.800358 2.495368 -1.706452 0
M  V30 10 C 4.815114 3.437141 -2.792305 0
M  V30 11 C 3.907104 1.401777 -1.975612 0
M  V30 12 C 3.976344 0.389801 -0.830955 0
M  V30 13 C 1.452490 -0.216893 0.579932 0
M  V30 14 C 0.276522 -0.409948 1.268191 0
M  V30 15 C -0.214760 0.344745 2.324279 0
M  V30 16 N -1.447870 0.029111 2.949119 0
M  V30 17 C -2.443804 -0.947549 2.753261 0
M  V30 18 N -3.464445 -0.902194 3.646547 0
M  V30 19 C -4.488692 -1.759088 3.601481 0
M  V30 20 C -4.437436 -2.684519 2.592970 0
M  V30 21 C -3.426299 -2.784486 1.649810 0
M  V30 22 C -3.565295 -3.830328 0.660399 0
M  V30 23 C -4.583272 -4.784683 0.620272 0
M  V30 24 N -4.381584 -5.580965 -0.440368 0
M  V30 25 C -5.283148 -6.694954 -0.764778 0
M  V30 26 C -3.283708 -5.239158 -1.142805 0
M  V30 27 C -2.645435 -5.702888 -2.272655 0
M  V30 28 N -1.531772 -5.123177 -2.736115 0
M  V30 29 C -1.026403 -4.065429 -2.083895 0
M  V30 30 C -1.664962 -3.602768 -0.954400 0
M  V30 31 C -2.807917 -4.159754 -0.436960 0
M  V30 32 N -2.454765 -1.875212 1.793421 0
M  V30 33 H 0.170872 3.945569 4.786987 0
M  V30 34 H 1.765144 3.038613 4.866020 0
M  V30 35 H 1.259155 3.911889 3.343204 0
M  V30 36 H 2.358452 2.480563 2.395648 0
M  V30 37 H 5.442266 1.677790 0.792144 0
M  V30 38 H 4.203810 2.652996 1.621204 0
M  V30 39 H 3.459364 3.570624 -0.557650 0
M  V30 40 H 5.154112 3.952625 -0.222352 0
M  V30 41 H 3.969799 3.176557 -3.474597 0
M  V30 42 H 4.594114 4.469312 -2.441138 0
M  V30 43 H 5.758386 3.480609 -3.353127 0
M  V30 44 H 4.075494 0.908888 -2.929983 0
M  V30 45 H 2.863051 1.818558 -1.921733 0
M  V30 46 H 3.471421 -0.537004 -1.076790 0
M  V30 47 H 5.062737 0.125807 -0.696379 0
M  V30 48 H 1.689570 -0.898434 -0.223556 0
M  V30 49 H -0.346696 -1.225915 0.983224 0
M  V30 50 H -1.588688 0.725234 3.729092 0
M  V30 51 H -5.289951 -1.703909 4.322526 0
M  V30 52 H -5.295456 -3.357244 2.600616 0
M  V30 53 H -5.412336 -4.893401 1.312190 0
M  V30 54 H -4.752870 -7.326458 -1.493981 0
M  V30 55 H -6.182389 -6.288422 -1.262433 0
M  V30 56 H -5.542196 -7.240296 0.166867 0
M  V30 57 H -3.085452 -6.566088 -2.777768 0
M  V30 58 H -0.122273 -3.631674 -2.501708 0
M  V30 59 H -1.225150 -2.752864 -0.469584 0
M  V30 END ATOM
M  V30 BEGIN BOND
M  V30 1 1 1 2
M  V30 2 1 2 3
M  V30 3 2 3 4
M  V30 4 1 4 5
M  V30 5 1 5 6
M  V30 6 1 6 7
M  V30 7 1 7 8
M  V30 8 1 8 9
M  V30 9 1 9 10
M  V30 10 1 9 11
M  V30 11 1 11 12
M  V30 12 2 5 13
M  V30 13 1 13 14
M  V30 14 2 14 15
M  V30 15 1 15 16
M  V30 16 1 16 17
M  V30 17 2 17 18
M  V30 18 1 18 19
M  V30 19 2 19 20
M  V30 20 1 20 21
M  V30 21 1 21 22
M  V30 22 2 22 23
M  V30 23 1 23 24
M  V30 24 1 24 25
M  V30 25 1 24 26
M  V30 26 2 26 27
M  V30 27 1 27 28
M  V30 28 2 28 29
M  V30 29 1 29 30
M  V30 30 2 30 31
M  V30 31 2 21 32
M  V30 32 1 15 3
M  V30 33 1 32 17
M  V30 34 1 12 6
M  V30 35 1 31 22
M  V30 36 1 31 26
M  V30 37 1 1 33
M  V30 38 1 1 34
M  V30 39 1 1 35
M  V30 40 1 4 36
M  V30 41 1 7 37
M  V30 42 1 7 38
M  V30 43 1 8 39
M  V30 44 1 8 40
M  V30 45 1 10 41
M  V30 46 1 10 42
M  V30 47 1 10 43
M  V30 48 1 11 44
M  V30 49 1 11 45
M  V30 50 1 12 46
M  V30 51 1 12 47
M  V30 52 1 13 48
M  V30 53 1 14 49
M  V30 54 1 16 50
M  V30 55 1 19 51
M  V30 56 1 20 52
M  V30 57 1 23 53
M  V30 58 1 25 54
M  V30 59 1 25 55
M  V30 60 1 25 56
M  V30 61 1 27 57
M  V30 62 1 29 58
M  V30 63 1 30 59
M  V30 END BOND
M  V30 END CTAB
M  END
>  <Dataset>  (212) 
ChEMBL_Kinases

>  <Ligand_Instance>  (212) 
nan

>  <PDB_ID>  (212) 
nan

>  <Standardized_SMILES>  (212) 
COc1cc(N2CCN(C)CC2)ccc1Nc1nccc(-c2cn(C)c3cnccc23)n1

>  <Name>  (212) 
nan

>  <Pocket>  (212) 
nan

>  <ATP_Site>  (212) 
nan

>  <Peripheral>  (212) 
nan

>  <Num_H_Atoms_ProtBoundConf>  (212) 
nan

>  <Num_Resolved_Atoms>  (212) 
nan

>  <Num_Not_Resolved_Atoms>  (212) 
nan

$$$$
CHEMBL1803084
     RDKit          3D

  0  0  0  0  0  0  0  0  0  0999 V3000
M  V30 BEGIN CTAB
M  V30 COUNTS 39 42 0 0 0
M  V30 BEGIN ATOM
M  V30 1 C 2.352643 -3.723396 4.307854 0
M  V30 2 C 1.208928 -3.447479 3.418067 0
M  V30 3 C 1.413890 -2.679883 2.284365 0
M  V30 4 C 0.324571 -2.441485 1.476229 0
M  V30 5 C -0.955194 -2.894611 1.687317 0
M  V30 6 N -2.065849 -2.633725 0.843403 0
M  V30 7 C -2.017061 -1.810370 -0.305976 0
M  V30 8 N -1.307929 -0.737984 -0.371411 0
M  V30 9 C -1.467341 -0.134138 -1.645969 0
M  V30 10 C -0.948388 0.962496 -2.160555 0
M  V30 11 C -0.034612 1.778150 -1.367948 0
M  V30 12 C -0.153400 3.159557 -1.549067 0
M  V30 13 C 0.660309 4.047586 -0.851147 0
M  V30 14 C 1.612255 3.603160 0.042983 0
M  V30 15 C 1.714557 2.237416 0.208061 0
M  V30 16 C 0.907775 1.358950 -0.484028 0
M  V30 17 O 2.730762 1.996840 1.150461 0
M  V30 18 C 2.992233 3.229274 1.839155 0
M  V30 19 O 2.569773 4.192664 0.888150 0
M  V30 20 C -2.398991 -1.002412 -2.384848 0
M  V30 21 O -2.797081 -0.813159 -3.556073 0
M  V30 22 N -2.754010 -2.088974 -1.512991 0
M  V30 23 C -1.101905 -3.653144 2.829668 0
M  V30 24 C -0.060685 -3.937230 3.690932 0
M  V30 25 H 2.548545 -2.930133 5.027926 0
M  V30 26 H 2.253832 -4.678118 4.856061 0
M  V30 27 H 3.263026 -3.845775 3.652538 0
M  V30 28 H 2.404479 -2.275745 2.036030 0
M  V30 29 H 0.530349 -1.842134 0.604019 0
M  V30 30 H -2.991056 -3.086515 1.087628 0
M  V30 31 H -1.191858 1.273901 -3.176475 0
M  V30 32 H -0.868320 3.601552 -2.226336 0
M  V30 33 H 0.565670 5.124172 -0.994006 0
M  V30 34 H 0.989884 0.298892 -0.354889 0
M  V30 35 H 2.272323 3.274554 2.680685 0
M  V30 36 H 4.041895 3.327051 2.141438 0
M  V30 37 H -3.384609 -2.864106 -1.723729 0
M  V30 38 H -2.087700 -4.050931 3.070058 0
M  V30 39 H -0.184746 -4.535571 4.588532 0
M  V30 END ATOM
M  V30 BEGIN BOND
M  V30 1 1 1 2
M  V30 2 2 2 3
M  V30 3 1 3 4
M  V30 4 2 4 5
M  V30 5 1 5 6
M  V30 6 1 6 7
M  V30 7 2 7 8
M  V30 8 1 8 9
M  V30 9 2 9 10
M  V30 10 1 10 11
M  V30 11 2 11 12
M  V30 12 1 12 13
M  V30 13 2 13 14
M  V30 14 1 14 15
M  V30 15 2 15 16
M  V30 16 1 15 17
M  V30 17 1 17 18
M  V30 18 1 18 19
M  V30 19 1 9 20
M  V30 20 2 20 21
M  V30 21 1 20 22
M  V30 22 1 5 23
M  V30 23 2 23 24
M  V30 24 1 24 2
M  V30 25 1 22 7
M  V30 26 1 16 11
M  V30 27 1 19 14
M  V30 28 1 1 25
M  V30 29 1 1 26
M  V30 30 1 1 27
M  V30 31 1 3 28
M  V30 32 1 4 29
M  V30 33 1 6 30
M  V30 34 1 10 31
M  V30 35 1 12 32
M  V30 36 1 13 33
M  V30 37 1 16 34
M  V30 38 1 18 35
M  V30 39 1 18 36
M  V30 40 1 22 37
M  V30 41 1 23 38
M  V30 42 1 24 39
M  V30 END BOND
M  V30 END CTAB
M  END
>  <Dataset>  (213) 
ChEMBL_Kinases

>  <Ligand_Instance>  (213) 
nan

>  <PDB_ID>  (213) 
nan

>  <Standardized_SMILES>  (213) 
Cc1ccc(NC2=N/C(=C\c3ccc4c(c3)OCO4)C(=O)N2)cc1

>  <Name>  (213) 
nan

>  <Pocket>  (213) 
nan

>  <ATP_Site>  (213) 
nan

>  <Peripheral>  (213) 
nan

>  <Num_H_Atoms_ProtBoundConf>  (213) 
nan

>  <Num_Resolved_Atoms>  (213) 
nan

>  <Num_Not_Resolved_Atoms>  (213) 
nan

$$$$
CHEMBL2364611
     RDKit          3D

  0  0  0  0  0  0  0  0  0  0999 V3000
M  V30 BEGIN CTAB
M  V30 COUNTS 47 51 0 0 0
M  V30 BEGIN ATOM
M  V30 1 C -0.651223 -3.550898 4.459311 0
M  V30 2 C 0.355577 -3.328875 3.392903 0
M  V30 3 C 1.714813 -3.552978 3.494689 0
M  V30 4 C 2.562904 -3.310762 2.431600 0
M  V30 5 C 2.050532 -2.836445 1.243801 0
M  V30 6 C 0.699551 -2.622530 1.168960 0
M  V30 7 C 0.116757 -2.119652 -0.071605 0
M  V30 8 N -0.773448 -2.599026 -0.954902 0
M  V30 9 N -0.951926 -1.700383 -1.935318 0
M  V30 10 C -0.193879 -0.607177 -1.736418 0
M  V30 11 C 0.491779 -0.858562 -0.554904 0
M  V30 12 C 1.452658 0.089596 0.046972 0
M  V30 13 C 2.804670 0.170040 -0.225126 0
M  V30 14 C 3.557653 1.119341 0.434837 0
M  V30 15 N 3.014166 1.972987 1.339149 0
M  V30 16 C 1.698194 1.892182 1.601799 0
M  V30 17 C 1.111344 2.743682 2.516073 0
M  V30 18 C -0.232569 2.700760 2.820569 0
M  V30 19 C -1.061921 1.768434 2.195162 0
M  V30 20 C -2.498890 1.613895 2.425868 0
M  V30 21 N -3.024725 2.508088 3.389780 0
M  V30 22 O -3.255195 0.787818 1.858562 0
M  V30 23 C -0.440377 0.940992 1.293732 0
M  V30 24 C 0.907625 0.961171 0.967789 0
M  V30 25 C -0.418938 0.352407 -2.833768 0
M  V30 26 C -1.288685 -0.398027 -3.808178 0
M  V30 27 C -1.769639 -1.651013 -3.140966 0
M  V30 28 N -0.122877 -2.860446 2.208586 0
M  V30 29 H -1.101222 -2.606652 4.827035 0
M  V30 30 H -0.175650 -4.104177 5.295069 0
M  V30 31 H -1.469773 -4.173504 4.018935 0
M  V30 32 H 2.037019 -3.924749 4.459926 0
M  V30 33 H 3.598407 -3.505467 2.581562 0
M  V30 34 H 2.708609 -2.651152 0.424371 0
M  V30 35 H 3.171436 -0.533574 -0.950641 0
M  V30 36 H 4.604414 1.147068 0.192625 0
M  V30 37 H 1.683331 3.508230 3.056533 0
M  V30 38 H -0.721728 3.360846 3.538600 0
M  V30 39 H -3.293812 3.004985 4.249625 0
M  V30 40 H -3.554956 3.253482 2.880422 0
M  V30 41 H -1.077583 0.215108 0.806184 0
M  V30 42 H -0.912125 1.279333 -2.458849 0
M  V30 43 H 0.537525 0.631401 -3.346815 0
M  V30 44 H -2.128775 0.288153 -4.097652 0
M  V30 45 H -0.712908 -0.698404 -4.726686 0
M  V30 46 H -1.605083 -2.561493 -3.751494 0
M  V30 47 H -2.850970 -1.498321 -2.906107 0
M  V30 END ATOM
M  V30 BEGIN BOND
M  V30 1 1 1 2
M  V30 2 2 2 3
M  V30 3 1 3 4
M  V30 4 2 4 5
M  V30 5 1 5 6
M  V30 6 1 6 7
M  V30 7 2 7 8
M  V30 8 1 8 9
M  V30 9 1 9 10
M  V30 10 2 10 11
M  V30 11 1 11 12
M  V30 12 2 12 13
M  V30 13 1 13 14
M  V30 14 2 14 15
M  V30 15 1 15 16
M  V30 16 2 16 17
M  V30 17 1 17 18
M  V30 18 2 18 19
M  V30 19 1 19 20
M  V30 20 1 20 21
M  V30 21 2 20 22
M  V30 22 1 19 23
M  V30 23 2 23 24
M  V30 24 1 10 25
M  V30 25 1 25 26
M  V30 26 1 26 27
M  V30 27 2 6 28
M  V30 28 1 28 2
M  V30 29 1 11 7
M  V30 30 1 24 12
M  V30 31 1 27 9
M  V30 32 1 24 16
M  V30 33 1 1 29
M  V30 34 1 1 30
M  V30 35 1 1 31
M  V30 36 1 3 32
M  V30 37 1 4 33
M  V30 38 1 5 34
M  V30 39 1 13 35
M  V30 40 1 14 36
M  V30 41 1 17 37
M  V30 42 1 18 38
M  V30 43 1 21 39
M  V30 44 1 21 40
M  V30 45 1 23 41
M  V30 46 1 25 42
M  V30 47 1 25 43
M  V30 48 1 26 44
M  V30 49 1 26 45
M  V30 50 1 27 46
M  V30 51 1 27 47
M  V30 END BOND
M  V30 END CTAB
M  END
>  <Dataset>  (214) 
ChEMBL_Kinases

>  <Ligand_Instance>  (214) 
nan

>  <PDB_ID>  (214) 
nan

>  <Standardized_SMILES>  (214) 
Cc1cccc(-c2nn3c(c2-c2ccnc4ccc(C(N)=O)cc24)CCC3)n1

>  <Name>  (214) 
GALUNISERTIB

>  <Pocket>  (214) 
nan

>  <ATP_Site>  (214) 
nan

>  <Peripheral>  (214) 
nan

>  <Num_H_Atoms_ProtBoundConf>  (214) 
nan

>  <Num_Resolved_Atoms>  (214) 
nan

>  <Num_Not_Resolved_Atoms>  (214) 
nan

$$$$
CHEMBL4062453
     RDKit          3D

  0  0  0  0  0  0  0  0  0  0999 V3000
M  V30 BEGIN CTAB
M  V30 COUNTS 64 68 0 0 0
M  V30 BEGIN ATOM
M  V30 1 C 5.698548 -2.408643 4.023683 0
M  V30 2 N 6.724119 -1.758641 3.219205 0
M  V30 3 C 7.528690 -2.741254 2.518211 0
M  V30 4 C 6.102370 -0.867040 2.240852 0
M  V30 5 C 5.458173 0.308604 2.960109 0
M  V30 6 N 4.853581 1.161263 1.952906 0
M  V30 7 C 3.584039 1.032325 1.511275 0
M  V30 8 C 3.340340 2.002391 0.559579 0
M  V30 9 C 2.038631 2.105975 -0.098416 0
M  V30 10 C 1.323469 0.927039 -0.294126 0
M  V30 11 C 0.084410 0.833663 -0.894934 0
M  V30 12 N -0.451902 2.005319 -1.317747 0
M  V30 13 C -1.642806 2.247505 -1.942121 0
M  V30 14 C -2.672760 1.289419 -2.327100 0
M  V30 15 C -3.289260 1.273487 -3.561198 0
M  V30 16 C -4.271260 0.330512 -3.864789 0
M  V30 17 C -4.663740 -0.619466 -2.948115 0
M  V30 18 C -5.683702 -1.558983 -3.333964 0
M  V30 19 N -6.201818 -2.596462 -2.517026 0
M  V30 20 O -6.167711 -1.467450 -4.490519 0
M  V30 21 C -4.072006 -0.650145 -1.679326 0
M  V30 22 O -4.452241 -1.589165 -0.756806 0
M  V30 23 C -3.897005 -1.674715 0.538245 0
M  V30 24 C -4.470796 -2.777388 1.352253 0
M  V30 25 C -3.892721 -4.028234 1.314560 0
M  V30 26 C -4.291439 -5.135386 1.995656 0
M  V30 27 C -5.408275 -5.009522 2.830029 0
M  V30 28 C -6.010278 -3.774659 2.891900 0
M  V30 29 F -7.104811 -3.644576 3.708798 0
M  V30 30 C -5.585955 -2.667593 2.190652 0
M  V30 31 C -3.113684 0.312956 -1.460508 0
M  V30 32 C -1.699343 3.628602 -2.157394 0
M  V30 33 N -0.558770 4.170587 -1.664258 0
M  V30 34 C 0.195508 3.174970 -1.154631 0
M  V30 35 C 1.436510 3.263827 -0.552174 0
M  V30 36 C 4.515398 2.718094 0.448319 0
M  V30 37 N 5.417136 2.181886 1.309034 0
M  V30 38 H 4.718823 -2.254080 3.559959 0
M  V30 39 H 5.926587 -3.489352 4.028467 0
M  V30 40 H 5.774393 -2.029779 5.070705 0
M  V30 41 H 8.349347 -2.241365 1.998762 0
M  V30 42 H 6.920142 -3.334815 1.801033 0
M  V30 43 H 7.965523 -3.397877 3.297920 0
M  V30 44 H 5.375730 -1.480368 1.689197 0
M  V30 45 H 6.896678 -0.479793 1.573708 0
M  V30 46 H 6.266596 0.838097 3.501174 0
M  V30 47 H 4.654049 -0.038429 3.626594 0
M  V30 48 H 2.888632 0.260371 1.879662 0
M  V30 49 H 1.762935 -0.021428 0.051113 0
M  V30 50 H -0.399910 -0.125733 -1.007742 0
M  V30 51 H -2.983254 2.022022 -4.291512 0
M  V30 52 H -4.701949 0.399907 -4.872506 0
M  V30 53 H -6.674323 -2.258635 -1.647582 0
M  V30 54 H -6.198349 -3.636143 -2.624499 0
M  V30 55 H -3.965674 -0.713093 1.088196 0
M  V30 56 H -2.813073 -1.880100 0.420184 0
M  V30 57 H -3.014170 -4.139386 0.661566 0
M  V30 58 H -3.786376 -6.086585 1.916637 0
M  V30 59 H -5.718667 -5.884236 3.364888 0
M  V30 60 H -6.055934 -1.701616 2.238385 0
M  V30 61 H -2.688002 0.242858 -0.449818 0
M  V30 62 H -2.526626 4.130947 -2.636820 0
M  V30 63 H 1.992459 4.173378 -0.399683 0
M  V30 64 H 4.546239 3.540752 -0.254386 0
M  V30 END ATOM
M  V30 BEGIN BOND
M  V30 1 1 1 2
M  V30 2 1 2 3
M  V30 3 1 2 4
M  V30 4 1 4 5
M  V30 5 1 5 6
M  V30 6 1 6 7
M  V30 7 2 7 8
M  V30 8 1 8 9
M  V30 9 1 9 10
M  V30 10 2 10 11
M  V30 11 1 11 12
M  V30 12 1 12 13
M  V30 13 1 13 14
M  V30 14 2 14 15
M  V30 15 1 15 16
M  V30 16 2 16 17
M  V30 17 1 17 18
M  V30 18 1 18 19
M  V30 19 2 18 20
M  V30 20 1 17 21
M  V30 21 1 21 22
M  V30 22 1 22 23
M  V30 23 1 23 24
M  V30 24 2 24 25
M  V30 25 1 25 26
M  V30 26 2 26 27
M  V30 27 1 27 28
M  V30 28 1 28 29
M  V30 29 2 28 30
M  V30 30 2 21 31
M  V30 31 2 13 32
M  V30 32 1 32 33
M  V30 33 2 33 34
M  V30 34 1 34 35
M  V30 35 1 8 36
M  V30 36 2 36 37
M  V30 37 1 37 6
M  V30 38 2 35 9
M  V30 39 1 34 12
M  V30 40 1 31 14
M  V30 41 1 30 24
M  V30 42 1 1 38
M  V30 43 1 1 39
M  V30 44 1 1 40
M  V30 45 1 3 41
M  V30 46 1 3 42
M  V30 47 1 3 43
M  V30 48 1 4 44
M  V30 49 1 4 45
M  V30 50 1 5 46
M  V30 51 1 5 47
M  V30 52 1 7 48
M  V30 53 1 10 49
M  V30 54 1 11 50
M  V30 55 1 15 51
M  V30 56 1 16 52
M  V30 57 1 19 53
M  V30 58 1 19 54
M  V30 59 1 23 55
M  V30 60 1 23 56
M  V30 61 1 25 57
M  V30 62 1 26 58
M  V30 63 1 27 59
M  V30 64 1 30 60
M  V30 65 1 31 61
M  V30 66 1 32 62
M  V30 67 1 35 63
M  V30 68 1 36 64
M  V30 END BOND
M  V30 END CTAB
M  END
>  <Dataset>  (215) 
ChEMBL_Kinases

>  <Ligand_Instance>  (215) 
nan

>  <PDB_ID>  (215) 
nan

>  <Standardized_SMILES>  (215) 
CN(C)CCn1cc(-c2ccn3c(-c4ccc(C(N)=O)c(OCc5cccc(F)c5)c4)cnc3c2)cn1

>  <Name>  (215) 
nan

>  <Pocket>  (215) 
nan

>  <ATP_Site>  (215) 
nan

>  <Peripheral>  (215) 
nan

>  <Num_H_Atoms_ProtBoundConf>  (215) 
nan

>  <Num_Resolved_Atoms>  (215) 
nan

>  <Num_Not_Resolved_Atoms>  (215) 
nan

$$$$
CHEMBL3589662
     RDKit          3D

  0  0  0  0  0  0  0  0  0  0999 V3000
M  V30 BEGIN CTAB
M  V30 COUNTS 30 33 0 0 0
M  V30 BEGIN ATOM
M  V30 1 O 0.526180 -0.561672 4.704430 0
M  V30 2 C 1.082659 -0.779509 3.619626 0
M  V30 3 O 2.141557 -1.088461 4.415497 0
M  V30 4 C 1.103980 -0.840187 2.172880 0
M  V30 5 N 2.261112 -1.203359 1.611261 0
M  V30 6 C 2.523698 -1.330435 0.319158 0
M  V30 7 C 3.768379 -1.715055 -0.129028 0
M  V30 8 C 3.892686 -1.804507 -1.505386 0
M  V30 9 C 2.843113 -1.527764 -2.368979 0
M  V30 10 C 1.620657 -1.146996 -1.850070 0
M  V30 11 C 1.449539 -1.044177 -0.485491 0
M  V30 12 C 0.203315 -0.659574 -0.049353 0
M  V30 13 N -0.951790 -0.342317 -0.649693 0
M  V30 14 C -1.835827 -0.044811 0.317558 0
M  V30 15 C -3.155184 0.339741 0.216543 0
M  V30 16 I -4.045910 0.529094 -1.688519 0
M  V30 17 C -3.876346 0.595863 1.362187 0
M  V30 18 C -3.259864 0.462156 2.611656 0
M  V30 19 C -1.943171 0.076098 2.652570 0
M  V30 20 C -1.211128 -0.182090 1.536073 0
M  V30 21 C 0.075851 -0.569495 1.318342 0
M  V30 22 H 2.267906 -1.856104 5.092409 0
M  V30 23 H 4.542353 -1.916227 0.583490 0
M  V30 24 H 4.871265 -2.108492 -1.899334 0
M  V30 25 H 3.029680 -1.623832 -3.438678 0
M  V30 26 H 0.843566 -0.945278 -2.572402 0
M  V30 27 H -1.116753 -0.333275 -1.681285 0
M  V30 28 H -4.907605 0.895711 1.263920 0
M  V30 29 H -3.918699 0.687855 3.441858 0
M  V30 30 H -1.622344 0.019958 3.661663 0
M  V30 END ATOM
M  V30 BEGIN BOND
M  V30 1 2 1 2
M  V30 2 1 2 3
M  V30 3 1 2 4
M  V30 4 2 4 5
M  V30 5 1 5 6
M  V30 6 2 6 7
M  V30 7 1 7 8
M  V30 8 2 8 9
M  V30 9 1 9 10
M  V30 10 2 10 11
M  V30 11 1 11 12
M  V30 12 1 12 13
M  V30 13 1 13 14
M  V30 14 2 14 15
M  V30 15 1 15 16
M  V30 16 1 15 17
M  V30 17 2 17 18
M  V30 18 1 18 19
M  V30 19 2 19 20
M  V30 20 1 20 21
M  V30 21 1 21 4
M  V30 22 1 11 6
M  V30 23 2 21 12
M  V30 24 1 20 14
M  V30 25 1 3 22
M  V30 26 1 7 23
M  V30 27 1 8 24
M  V30 28 1 9 25
M  V30 29 1 10 26
M  V30 30 1 13 27
M  V30 31 1 17 28
M  V30 32 1 18 29
M  V30 33 1 19 30
M  V30 END BOND
M  V30 END CTAB
M  END
>  <Dataset>  (216) 
ChEMBL_Kinases

>  <Ligand_Instance>  (216) 
nan

>  <PDB_ID>  (216) 
nan

>  <Standardized_SMILES>  (216) 
O=C(O)c1nc2ccccc2c2[nH]c3c(I)cccc3c12

>  <Name>  (216) 
nan

>  <Pocket>  (216) 
nan

>  <ATP_Site>  (216) 
nan

>  <Peripheral>  (216) 
nan

>  <Num_H_Atoms_ProtBoundConf>  (216) 
nan

>  <Num_Resolved_Atoms>  (216) 
nan

>  <Num_Not_Resolved_Atoms>  (216) 
nan

$$$$
CHEMBL3348923
     RDKit          3D

  0  0  0  0  0  0  0  0  0  0999 V3000
M  V30 BEGIN CTAB
M  V30 COUNTS 44 46 0 0 0
M  V30 BEGIN ATOM
M  V30 1 C 2.978964 1.380790 3.786338 0
M  V30 2 C 2.895774 1.547431 2.299957 0 CFG=1
M  V30 3 N 3.674565 0.543514 1.572036 0
M  V30 4 C 4.662618 0.809318 0.584734 0
M  V30 5 O 4.965178 1.977412 0.237303 0
M  V30 6 C 5.322462 -0.348844 -0.019148 0
M  V30 7 N 5.049311 -1.628584 0.303671 0
M  V30 8 C 5.721750 -2.639832 -0.318563 0
M  V30 9 N 6.660599 -2.401052 -1.255733 0
M  V30 10 C 6.983645 -1.149812 -1.626654 0
M  V30 11 N 7.973223 -0.838669 -2.616917 0
M  V30 12 C 6.297193 -0.136023 -0.990684 0
M  V30 13 Cl 6.697851 1.523828 -1.455204 0
M  V30 14 C 1.435328 1.433584 1.863402 0
M  V30 15 N 0.518733 2.020121 1.549254 0
M  V30 16 C -0.673102 1.560831 1.214679 0
M  V30 17 C -0.865548 0.224502 1.236994 0
M  V30 18 C -1.963435 -0.686787 0.958277 0
M  V30 19 O -1.764597 -1.919839 1.093218 0
M  V30 20 N -3.130582 -0.030946 0.563846 0
M  V30 21 C -4.321834 -0.782722 0.247121 0
M  V30 22 C -5.172321 -1.020135 1.305722 0
M  V30 23 C -6.320293 -1.734970 1.041792 0
M  V30 24 C -7.364972 -2.090893 2.066572 0
M  V30 25 F -7.016775 -1.604665 3.303273 0
M  V30 26 F -8.621975 -1.747511 1.660465 0
M  V30 27 F -7.348598 -3.486201 2.196448 0
M  V30 28 C -6.598096 -2.189890 -0.232265 0
M  V30 29 Cl -8.036447 -3.101307 -0.630702 0
M  V30 30 C -5.708922 -1.927100 -1.276457 0
M  V30 31 N -4.569937 -1.219605 -1.022065 0
M  V30 32 S 0.799162 -0.356414 1.778244 0
M  V30 33 H 3.935667 0.870671 4.016862 0
M  V30 34 H 2.087673 0.859053 4.175242 0
M  V30 35 H 3.051170 2.384523 4.240119 0
M  V30 36 H 3.190817 2.536820 1.966996 0
M  V30 37 H 3.396572 -0.426400 1.886930 0
M  V30 38 H 5.499933 -3.680399 -0.056367 0
M  V30 39 H 7.752834 -0.938069 -3.646741 0
M  V30 40 H 8.962449 -0.500922 -2.497404 0
M  V30 41 H -1.511112 2.208480 0.920743 0
M  V30 42 H -3.264503 0.981531 0.461952 0
M  V30 43 H -5.013892 -0.697402 2.303914 0
M  V30 44 H -5.848647 -2.248236 -2.313612 0
M  V30 END ATOM
M  V30 BEGIN BOND
M  V30 1 1 1 2
M  V30 2 1 2 3
M  V30 3 1 3 4
M  V30 4 2 4 5
M  V30 5 1 4 6
M  V30 6 2 6 7
M  V30 7 1 7 8
M  V30 8 2 8 9
M  V30 9 1 9 10
M  V30 10 1 10 11
M  V30 11 2 10 12
M  V30 12 1 12 13
M  V30 13 1 2 14
M  V30 14 2 14 15
M  V30 15 1 15 16
M  V30 16 2 16 17
M  V30 17 1 17 18
M  V30 18 2 18 19
M  V30 19 1 18 20
M  V30 20 1 20 21
M  V30 21 2 21 22
M  V30 22 1 22 23
M  V30 23 1 23 24
M  V30 24 1 24 25
M  V30 25 1 24 26
M  V30 26 1 24 27
M  V30 27 2 23 28
M  V30 28 1 28 29
M  V30 29 1 28 30
M  V30 30 2 30 31
M  V30 31 1 17 32
M  V30 32 1 12 6
M  V30 33 1 32 14
M  V30 34 1 31 21
M  V30 35 1 1 33
M  V30 36 1 1 34
M  V30 37 1 1 35
M  V30 38 1 2 36 CFG=1
M  V30 39 1 3 37
M  V30 40 1 8 38
M  V30 41 1 11 39
M  V30 42 1 11 40
M  V30 43 1 16 41
M  V30 44 1 20 42
M  V30 45 1 22 43
M  V30 46 1 30 44
M  V30 END BOND
M  V30 END CTAB
M  END
>  <Dataset>  (217) 
ChEMBL_Kinases

>  <Ligand_Instance>  (217) 
nan

>  <PDB_ID>  (217) 
nan

>  <Standardized_SMILES>  (217) 
C[C@@H](NC(=O)c1ncnc(N)c1Cl)c1ncc(C(=O)Nc2cc(C(F)(F)F)c(Cl)cn2)s1

>  <Name>  (217) 
TOVORAFENIB

>  <Pocket>  (217) 
nan

>  <ATP_Site>  (217) 
nan

>  <Peripheral>  (217) 
nan

>  <Num_H_Atoms_ProtBoundConf>  (217) 
nan

>  <Num_Resolved_Atoms>  (217) 
nan

>  <Num_Not_Resolved_Atoms>  (217) 
nan

$$$$
CHEMBL4762964
     RDKit          3D

  0  0  0  0  0  0  0  0  0  0999 V3000
M  V30 BEGIN CTAB
M  V30 COUNTS 41 45 0 0 0
M  V30 BEGIN ATOM
M  V30 1 C 0.217350 -4.131584 3.641226 0
M  V30 2 N 0.426679 -4.182762 2.200273 0
M  V30 3 C 0.613127 -3.101281 1.420637 0
M  V30 4 C 0.780427 -3.479199 0.118261 0
M  V30 5 C 1.004540 -2.564318 -0.991080 0
M  V30 6 C 1.170226 -2.943401 -2.283523 0
M  V30 7 C 1.379653 -1.969283 -3.267200 0
M  V30 8 C 1.425286 -0.621059 -2.973476 0
M  V30 9 O 1.593092 0.505193 -3.607063 0
M  V30 10 C 1.545771 1.537411 -2.824714 0
M  V30 11 C 1.325054 1.106568 -1.521503 0
M  V30 12 C 1.178137 1.791455 -0.219342 0
M  V30 13 C 2.005019 2.820288 0.222013 0
M  V30 14 C 1.769185 3.376997 1.448877 0
M  V30 15 C 0.727937 2.943047 2.264081 0
M  V30 16 C -0.092648 1.921603 1.825371 0
M  V30 17 C -1.202971 1.419413 2.631812 0
M  V30 18 C -1.580183 1.862813 3.882703 0
M  V30 19 C -2.680814 1.094707 4.251996 0
M  V30 20 N -2.937987 0.230916 3.249488 0
M  V30 21 N -2.061595 0.426467 2.293448 0
M  V30 22 C 0.144896 1.359790 0.587919 0
M  V30 23 C 1.250685 -0.287540 -1.640978 0
M  V30 24 N 1.053608 -1.244280 -0.733234 0
M  V30 25 C 0.689242 -4.846421 0.124778 0
M  V30 26 N 0.474190 -5.225569 1.412191 0
M  V30 27 H 1.175457 -3.856158 4.120432 0
M  V30 28 H -0.143712 -5.087933 4.036267 0
M  V30 29 H -0.548921 -3.351771 3.903267 0
M  V30 30 H 0.624144 -2.070517 1.806812 0
M  V30 31 H 1.137717 -3.992160 -2.532211 0
M  V30 32 H 1.514325 -2.258356 -4.309192 0
M  V30 33 H 1.643927 2.596425 -3.016353 0
M  V30 34 H 2.793281 3.121058 -0.439271 0
M  V30 35 H 2.419920 4.168414 1.767175 0
M  V30 36 H 0.551534 3.394949 3.238247 0
M  V30 37 H -1.124660 2.646774 4.471385 0
M  V30 38 H -3.243613 1.173784 5.191565 0
M  V30 39 H -3.728211 -0.455003 3.300712 0
M  V30 40 H -0.512489 0.549110 0.248591 0
M  V30 41 H 0.776227 -5.474639 -0.745306 0
M  V30 END ATOM
M  V30 BEGIN BOND
M  V30 1 1 1 2
M  V30 2 1 2 3
M  V30 3 2 3 4
M  V30 4 1 4 5
M  V30 5 2 5 6
M  V30 6 1 6 7
M  V30 7 2 7 8
M  V30 8 1 8 9
M  V30 9 1 9 10
M  V30 10 2 10 11
M  V30 11 1 11 12
M  V30 12 2 12 13
M  V30 13 1 13 14
M  V30 14 2 14 15
M  V30 15 1 15 16
M  V30 16 1 16 17
M  V30 17 1 17 18
M  V30 18 2 18 19
M  V30 19 1 19 20
M  V30 20 1 20 21
M  V30 21 2 16 22
M  V30 22 1 11 23
M  V30 23 2 23 24
M  V30 24 1 4 25
M  V30 25 2 25 26
M  V30 26 1 26 2
M  V30 27 1 24 5
M  V30 28 1 23 8
M  V30 29 1 22 12
M  V30 30 2 21 17
M  V30 31 1 1 27
M  V30 32 1 1 28
M  V30 33 1 1 29
M  V30 34 1 3 30
M  V30 35 1 6 31
M  V30 36 1 7 32
M  V30 37 1 10 33
M  V30 38 1 13 34
M  V30 39 1 14 35
M  V30 40 1 15 36
M  V30 41 1 18 37
M  V30 42 1 19 38
M  V30 43 1 20 39
M  V30 44 1 22 40
M  V30 45 1 25 41
M  V30 END BOND
M  V30 END CTAB
M  END
>  <Dataset>  (218) 
ChEMBL_Kinases

>  <Ligand_Instance>  (218) 
nan

>  <PDB_ID>  (218) 
nan

>  <Standardized_SMILES>  (218) 
Cn1cc(-c2ccc3occ(-c4cccc(-c5cc[nH]n5)c4)c3n2)cn1

>  <Name>  (218) 
nan

>  <Pocket>  (218) 
nan

>  <ATP_Site>  (218) 
nan

>  <Peripheral>  (218) 
nan

>  <Num_H_Atoms_ProtBoundConf>  (218) 
nan

>  <Num_Resolved_Atoms>  (218) 
nan

>  <Num_Not_Resolved_Atoms>  (218) 
nan

$$$$
CHEMBL3039525
     RDKit          3D

  0  0  0  0  0  0  0  0  0  0999 V3000
M  V30 BEGIN CTAB
M  V30 COUNTS 83 88 0 0 0
M  V30 BEGIN ATOM
M  V30 1 C 1.075059 -4.064594 2.204114 0
M  V30 2 N 2.482782 -4.047753 1.891253 0
M  V30 3 C 2.830788 -4.807792 0.727192 0
M  V30 4 C 3.050872 -3.941810 -0.493450 0
M  V30 5 N 4.121134 -3.022819 -0.122542 0
M  V30 6 C 4.715804 -2.476330 -1.299299 0
M  V30 7 C 5.837007 -1.510099 -1.010139 0
M  V30 8 C 5.497352 -0.090618 -1.353864 0
M  V30 9 N 4.101986 0.242744 -1.212388 0
M  V30 10 C 3.478373 1.205734 -0.350228 0
M  V30 11 O 2.229065 1.323732 -0.393938 0
M  V30 12 N 4.203141 2.021186 0.538351 0
M  V30 13 C 3.729039 3.003829 1.438836 0
M  V30 14 C 2.438628 3.371656 1.662590 0
M  V30 15 C 2.037954 4.345087 2.552706 0
M  V30 16 O 0.700248 4.676586 2.737728 0
M  V30 17 C -0.219436 3.944744 2.003509 0
M  V30 18 C -0.691245 2.815248 2.628698 0
M  V30 19 C -1.605185 2.030793 1.971600 0
M  V30 20 C -2.051121 2.367022 0.694806 0
M  V30 21 N -2.981654 1.492152 0.124593 0
M  V30 22 C -3.718346 1.317777 -1.038289 0
M  V30 23 O -3.444014 2.285854 -1.844993 0
M  V30 24 C -4.697000 0.421582 -1.672437 0
M  V30 25 C -5.175183 -0.779675 -0.925914 0
M  V30 26 O -6.040559 -1.471488 -1.616309 0
M  V30 27 N -5.182378 -1.613726 0.208136 0
M  V30 28 C -6.061214 -2.736700 0.085558 0
M  V30 29 C -5.568136 -3.922093 -0.444920 0
M  V30 30 C -6.444500 -4.982454 -0.549242 0
M  V30 31 C -7.750088 -4.830201 -0.132018 0
M  V30 32 F -8.621943 -5.866954 -0.229582 0
M  V30 33 C -8.253592 -3.664317 0.394886 0
M  V30 34 C -7.371247 -2.607275 0.496462 0
M  V30 35 C -4.714731 0.320077 -3.170333 0
M  V30 36 C -5.781306 1.101096 -2.452118 0
M  V30 37 C -1.518822 3.513713 0.160929 0
M  V30 38 F -1.884513 3.927733 -1.067451 0
M  V30 39 C -0.606692 4.346277 0.749982 0
M  V30 40 C 2.991583 5.014710 3.286786 0
M  V30 41 C 4.296723 4.635533 3.054037 0
M  V30 42 N 4.630863 3.678608 2.172652 0
M  V30 43 C 3.295270 -0.554075 -2.105370 0
M  V30 44 C 3.747221 -1.945428 -2.323761 0
M  V30 45 C 3.561740 -2.090410 0.802271 0
M  V30 46 C 3.106117 -2.786492 2.047615 0
M  V30 47 H 0.452367 -4.454456 1.381390 0
M  V30 48 H 0.728892 -3.077607 2.597291 0
M  V30 49 H 0.936215 -4.770461 3.059893 0
M  V30 50 H 2.015853 -5.514634 0.490976 0
M  V30 51 H 3.735028 -5.411388 0.943831 0
M  V30 52 H 3.377658 -4.594099 -1.315025 0
M  V30 53 H 2.093351 -3.417535 -0.700315 0
M  V30 54 H 5.209865 -3.350044 -1.780809 0
M  V30 55 H 6.095153 -1.610841 0.063124 0
M  V30 56 H 6.759741 -1.787402 -1.558464 0
M  V30 57 H 5.764023 0.091786 -2.431264 0
M  V30 58 H 6.181366 0.551863 -0.764150 0
M  V30 59 H 5.231411 1.836310 0.487846 0
M  V30 60 H 1.657914 2.894200 1.130314 0
M  V30 61 H -0.364417 2.528667 3.618207 0
M  V30 62 H -1.951481 1.136959 2.518847 0
M  V30 63 H -3.283285 0.668410 0.683962 0
M  V30 64 H -4.500613 -1.161719 0.878569 0
M  V30 65 H -4.548812 -4.055173 -0.776070 0
M  V30 66 H -6.094008 -5.940028 -0.965134 0
M  V30 67 H -9.283112 -3.556129 0.720188 0
M  V30 68 H -7.717750 -1.671944 0.904316 0
M  V30 69 H -3.883023 0.834420 -3.695386 0
M  V30 70 H -4.978331 -0.648323 -3.604221 0
M  V30 71 H -6.793990 0.657988 -2.468200 0
M  V30 72 H -5.775870 2.217401 -2.541912 0
M  V30 73 H -0.207060 5.232485 0.315890 0
M  V30 74 H 2.742573 5.787026 3.999653 0
M  V30 75 H 5.122015 5.098903 3.578050 0
M  V30 76 H 2.236517 -0.569077 -1.750568 0
M  V30 77 H 3.249287 0.051254 -3.059708 0
M  V30 78 H 4.250463 -1.978290 -3.336662 0
M  V30 79 H 2.922684 -2.681901 -2.403847 0
M  V30 80 H 4.370286 -1.405232 1.129045 0
M  V30 81 H 2.670055 -1.551950 0.391784 0
M  V30 82 H 2.356323 -2.115732 2.548801 0
M  V30 83 H 3.923325 -2.872747 2.792457 0
M  V30 END ATOM
M  V30 BEGIN BOND
M  V30 1 1 1 2
M  V30 2 1 2 3
M  V30 3 1 3 4
M  V30 4 1 4 5
M  V30 5 1 5 6
M  V30 6 1 6 7
M  V30 7 1 7 8
M  V30 8 1 8 9
M  V30 9 1 9 10
M  V30 10 2 10 11
M  V30 11 1 10 12
M  V30 12 1 12 13
M  V30 13 2 13 14
M  V30 14 1 14 15
M  V30 15 1 15 16
M  V30 16 1 16 17
M  V30 17 2 17 18
M  V30 18 1 18 19
M  V30 19 2 19 20
M  V30 20 1 20 21
M  V30 21 1 21 22
M  V30 22 2 22 23
M  V30 23 1 22 24
M  V30 24 1 24 25
M  V30 25 2 25 26
M  V30 26 1 25 27
M  V30 27 1 27 28
M  V30 28 2 28 29
M  V30 29 1 29 30
M  V30 30 2 30 31
M  V30 31 1 31 32
M  V30 32 1 31 33
M  V30 33 2 33 34
M  V30 34 1 24 35
M  V30 35 1 35 36
M  V30 36 1 20 37
M  V30 37 1 37 38
M  V30 38 2 37 39
M  V30 39 2 15 40
M  V30 40 1 40 41
M  V30 41 2 41 42
M  V30 42 1 9 43
M  V30 43 1 43 44
M  V30 44 1 5 45
M  V30 45 1 45 46
M  V30 46 1 46 2
M  V30 47 1 44 6
M  V30 48 1 42 13
M  V30 49 1 39 17
M  V30 50 1 36 24
M  V30 51 1 34 28
M  V30 52 1 1 47
M  V30 53 1 1 48
M  V30 54 1 1 49
M  V30 55 1 3 50
M  V30 56 1 3 51
M  V30 57 1 4 52
M  V30 58 1 4 53
M  V30 59 1 6 54
M  V30 60 1 7 55
M  V30 61 1 7 56
M  V30 62 1 8 57
M  V30 63 1 8 58
M  V30 64 1 12 59
M  V30 65 1 14 60
M  V30 66 1 18 61
M  V30 67 1 19 62
M  V30 68 1 21 63
M  V30 69 1 27 64
M  V30 70 1 29 65
M  V30 71 1 30 66
M  V30 72 1 33 67
M  V30 73 1 34 68
M  V30 74 1 35 69
M  V30 75 1 35 70
M  V30 76 1 36 71
M  V30 77 1 36 72
M  V30 78 1 39 73
M  V30 79 1 40 74
M  V30 80 1 41 75
M  V30 81 1 43 76
M  V30 82 1 43 77
M  V30 83 1 44 78
M  V30 84 1 44 79
M  V30 85 1 45 80
M  V30 86 1 45 81
M  V30 87 1 46 82
M  V30 88 1 46 83
M  V30 END BOND
M  V30 END CTAB
M  END
>  <Dataset>  (219) 
ChEMBL_Kinases

>  <Ligand_Instance>  (219) 
nan

>  <PDB_ID>  (219) 
nan

>  <Standardized_SMILES>  (219) 
CN1CCN(C2CCN(C(=O)Nc3cc(Oc4ccc(NC(=O)C5(C(=O)Nc6ccc(F)cc6)CC5)c(F)c4)ccn3)CC2)CC1

>  <Name>  (219) 
GOLVATINIB

>  <Pocket>  (219) 
nan

>  <ATP_Site>  (219) 
nan

>  <Peripheral>  (219) 
nan

>  <Num_H_Atoms_ProtBoundConf>  (219) 
nan

>  <Num_Resolved_Atoms>  (219) 
nan

>  <Num_Not_Resolved_Atoms>  (219) 
nan

$$$$
CHEMBL4084919
     RDKit          3D

  0  0  0  0  0  0  0  0  0  0999 V3000
M  V30 BEGIN CTAB
M  V30 COUNTS 55 57 0 0 0
M  V30 BEGIN ATOM
M  V30 1 C -0.820496 -0.404261 5.414250 0
M  V30 2 C -0.426101 -0.423803 3.953082 0
M  V30 3 C 1.055985 -0.675174 3.788493 0 CFG=2
M  V30 4 C 1.742623 0.484562 4.527604 0
M  V30 5 O 3.120690 0.332053 4.373916 0
M  V30 6 N 1.482731 -0.530313 2.418034 0
M  V30 7 C 2.577879 -0.949735 1.933250 0
M  V30 8 C 2.931675 -0.757821 0.524688 0
M  V30 9 C 4.138461 -1.233723 0.051989 0
M  V30 10 C 4.537682 -1.083453 -1.261580 0
M  V30 11 C 3.678545 -0.426396 -2.121560 0
M  V30 12 C 2.482572 0.044663 -1.651610 0
M  V30 13 C 1.482748 0.768221 -2.468824 0
M  V30 14 C 1.805242 1.807488 -3.346740 0
M  V30 15 N 0.651570 2.236537 -3.925432 0
M  V30 16 C -0.364865 1.480664 -3.418761 0
M  V30 17 C -1.714841 1.543008 -3.702739 0
M  V30 18 C -2.496978 0.615492 -3.004421 0
M  V30 19 C -1.974445 -0.292894 -2.102963 0
M  V30 20 N -2.762359 -1.215490 -1.410232 0
M  V30 21 C -3.481986 -1.438097 -0.196436 0 CFG=2
M  V30 22 C -2.583569 -1.389884 1.026348 0
M  V30 23 C -1.541666 -2.492122 0.834286 0
M  V30 24 C -4.069565 -2.855244 -0.236675 0
M  V30 25 O -4.929926 -2.999576 -1.318452 0
M  V30 26 N -0.642501 -0.242879 -1.922361 0
M  V30 27 N 0.153179 0.599722 -2.541809 0
M  V30 28 C 2.079842 -0.103713 -0.339663 0
M  V30 29 H -1.873655 -0.726642 5.525395 0
M  V30 30 H -0.213770 -1.137732 5.977259 0
M  V30 31 H -0.755449 0.617368 5.842200 0
M  V30 32 H -1.017584 -1.221911 3.466181 0
M  V30 33 H -0.690632 0.570125 3.538058 0
M  V30 34 H 1.333655 -1.625383 4.259819 0
M  V30 35 H 1.513014 0.491728 5.592598 0
M  V30 36 H 1.448488 1.435887 4.017036 0
M  V30 37 H 3.331881 -0.526233 4.851219 0
M  V30 38 H 3.262183 -1.464076 2.593086 0
M  V30 39 H 4.842586 -1.758793 0.705975 0
M  V30 40 H 5.477112 -1.445478 -1.667943 0
M  V30 41 H 3.877308 -0.245926 -3.171812 0
M  V30 42 H 2.830655 2.162624 -3.492408 0
M  V30 43 H -2.158939 2.238894 -4.400946 0
M  V30 44 H -3.566839 0.622639 -3.192169 0
M  V30 45 H -2.723819 -1.951463 -2.177482 0
M  V30 46 H -4.300250 -0.713576 -0.032295 0
M  V30 47 H -3.216575 -1.656703 1.902257 0
M  V30 48 H -2.132462 -0.409446 1.183598 0
M  V30 49 H -1.414076 -2.699715 -0.259766 0
M  V30 50 H -0.611827 -2.162889 1.301398 0
M  V30 51 H -1.920992 -3.442444 1.260402 0
M  V30 52 H -3.258647 -3.603500 -0.356600 0
M  V30 53 H -4.584877 -3.098980 0.693947 0
M  V30 54 H -4.769545 -3.851464 -1.790485 0
M  V30 55 H 1.126012 0.264322 0.063041 0
M  V30 END ATOM
M  V30 BEGIN BOND
M  V30 1 1 1 2
M  V30 2 1 2 3
M  V30 3 1 3 4
M  V30 4 1 4 5
M  V30 5 1 3 6
M  V30 6 2 6 7
M  V30 7 1 7 8
M  V30 8 2 8 9
M  V30 9 1 9 10
M  V30 10 2 10 11
M  V30 11 1 11 12
M  V30 12 1 12 13
M  V30 13 2 13 14
M  V30 14 1 14 15
M  V30 15 2 15 16
M  V30 16 1 16 17
M  V30 17 2 17 18
M  V30 18 1 18 19
M  V30 19 1 19 20
M  V30 20 1 20 21
M  V30 21 1 21 22
M  V30 22 1 22 23
M  V30 23 1 21 24
M  V30 24 1 24 25
M  V30 25 2 19 26
M  V30 26 1 26 27
M  V30 27 2 12 28
M  V30 28 1 28 8
M  V30 29 1 27 13
M  V30 30 1 27 16
M  V30 31 1 1 29
M  V30 32 1 1 30
M  V30 33 1 1 31
M  V30 34 1 2 32
M  V30 35 1 2 33
M  V30 36 1 3 34 CFG=1
M  V30 37 1 4 35
M  V30 38 1 4 36
M  V30 39 1 5 37
M  V30 40 1 7 38
M  V30 41 1 9 39
M  V30 42 1 10 40
M  V30 43 1 11 41
M  V30 44 1 14 42
M  V30 45 1 17 43
M  V30 46 1 18 44
M  V30 47 1 20 45
M  V30 48 1 21 46 CFG=1
M  V30 49 1 22 47
M  V30 50 1 22 48
M  V30 51 1 23 49
M  V30 52 1 23 50
M  V30 53 1 23 51
M  V30 54 1 24 52
M  V30 55 1 24 53
M  V30 56 1 25 54
M  V30 57 1 28 55
M  V30 END BOND
M  V30 END CTAB
M  END
>  <Dataset>  (220) 
ChEMBL_Kinases

>  <Ligand_Instance>  (220) 
nan

>  <PDB_ID>  (220) 
nan

>  <Standardized_SMILES>  (220) 
CC[C@H](CO)/N=C/c1cccc(-c2cnc3ccc(N[C@H](CC)CO)nn23)c1

>  <Name>  (220) 
nan

>  <Pocket>  (220) 
nan

>  <ATP_Site>  (220) 
nan

>  <Peripheral>  (220) 
nan

>  <Num_H_Atoms_ProtBoundConf>  (220) 
nan

>  <Num_Resolved_Atoms>  (220) 
nan

>  <Num_Not_Resolved_Atoms>  (220) 
nan

$$$$
CHEMBL4074499
     RDKit          3D

  0  0  0  0  0  0  0  0  0  0999 V3000
M  V30 BEGIN CTAB
M  V30 COUNTS 43 46 0 0 0
M  V30 BEGIN ATOM
M  V30 1 C 6.191702 -3.702550 3.328429 0
M  V30 2 C 5.001815 -3.150240 2.594046 0
M  V30 3 O 4.003060 -2.856800 3.301832 0
M  V30 4 N 4.877633 -2.920997 1.181903 0
M  V30 5 C 3.555803 -2.385594 0.974197 0
M  V30 6 C 2.489604 -3.224638 0.731842 0
M  V30 7 C 1.237682 -2.685054 0.537058 0
M  V30 8 C 1.123150 -1.316872 0.596897 0
M  V30 9 C 2.144677 -0.426052 0.834220 0
M  V30 10 N 2.032939 0.983894 0.897058 0
M  V30 11 C 0.864647 1.768169 0.731725 0
M  V30 12 C 0.920020 3.143849 0.822958 0
M  V30 13 C -0.177084 3.957962 0.672273 0
M  V30 14 C -1.418578 3.418708 0.415542 0
M  V30 15 N -2.676058 3.874668 0.214659 0
M  V30 16 C -3.486982 2.808996 0.004853 0
M  V30 17 C -2.722474 1.677220 0.076539 0
M  V30 18 C -3.303313 0.343926 -0.107375 0
M  V30 19 C -4.194245 0.030986 -1.115511 0
M  V30 20 C -4.653434 -1.274000 -1.155757 0
M  V30 21 C -4.240872 -2.218421 -0.232356 0
M  V30 22 C -3.348605 -1.884676 0.768765 0
M  V30 23 Cl -2.846518 -3.113400 1.925780 0
M  V30 24 C -2.880273 -0.569267 0.816336 0
M  V30 25 N -1.445603 2.078329 0.331526 0
M  V30 26 N -0.371236 1.329112 0.481926 0
M  V30 27 C 3.369408 -1.027411 1.020444 0
M  V30 28 H 6.733118 -2.930368 3.881819 0
M  V30 29 H 5.768255 -4.418977 4.091030 0
M  V30 30 H 6.844301 -4.308300 2.697148 0
M  V30 31 H 5.750207 -3.187300 0.640801 0
M  V30 32 H 2.611927 -4.297382 0.690808 0
M  V30 33 H 0.385930 -3.323458 0.345315 0
M  V30 34 H 0.125751 -0.941221 0.438503 0
M  V30 35 H 2.912578 1.513426 1.087543 0
M  V30 36 H 1.851027 3.663384 1.022259 0
M  V30 37 H -0.097573 5.033490 0.750166 0
M  V30 38 H -4.556391 2.898288 -0.183608 0
M  V30 39 H -4.480854 0.809388 -1.808257 0
M  V30 40 H -5.348772 -1.517038 -1.943078 0
M  V30 41 H -4.640564 -3.235136 -0.317335 0
M  V30 42 H -2.186544 -0.390581 1.628546 0
M  V30 43 H 4.255707 -0.407439 1.217323 0
M  V30 END ATOM
M  V30 BEGIN BOND
M  V30 1 1 1 2
M  V30 2 2 2 3
M  V30 3 1 2 4
M  V30 4 1 4 5
M  V30 5 2 5 6
M  V30 6 1 6 7
M  V30 7 2 7 8
M  V30 8 1 8 9
M  V30 9 1 9 10
M  V30 10 1 10 11
M  V30 11 1 11 12
M  V30 12 2 12 13
M  V30 13 1 13 14
M  V30 14 2 14 15
M  V30 15 1 15 16
M  V30 16 2 16 17
M  V30 17 1 17 18
M  V30 18 2 18 19
M  V30 19 1 19 20
M  V30 20 2 20 21
M  V30 21 1 21 22
M  V30 22 1 22 23
M  V30 23 2 22 24
M  V30 24 1 17 25
M  V30 25 1 25 26
M  V30 26 2 9 27
M  V30 27 1 27 5
M  V30 28 2 26 11
M  V30 29 1 25 14
M  V30 30 1 24 18
M  V30 31 1 1 28
M  V30 32 1 1 29
M  V30 33 1 1 30
M  V30 34 1 4 31
M  V30 35 1 6 32
M  V30 36 1 7 33
M  V30 37 1 8 34
M  V30 38 1 10 35
M  V30 39 1 12 36
M  V30 40 1 13 37
M  V30 41 1 16 38
M  V30 42 1 19 39
M  V30 43 1 20 40
M  V30 44 1 21 41
M  V30 45 1 24 42
M  V30 46 1 27 43
M  V30 END BOND
M  V30 END CTAB
M  END
>  <Dataset>  (221) 
ChEMBL_Kinases

>  <Ligand_Instance>  (221) 
nan

>  <PDB_ID>  (221) 
nan

>  <Standardized_SMILES>  (221) 
CC(=O)Nc1cccc(Nc2ccc3ncc(-c4cccc(Cl)c4)n3n2)c1

>  <Name>  (221) 
nan

>  <Pocket>  (221) 
nan

>  <ATP_Site>  (221) 
nan

>  <Peripheral>  (221) 
nan

>  <Num_H_Atoms_ProtBoundConf>  (221) 
nan

>  <Num_Resolved_Atoms>  (221) 
nan

>  <Num_Not_Resolved_Atoms>  (221) 
nan

$$$$
CHEMBL4076663
     RDKit          3D

  0  0  0  0  0  0  0  0  0  0999 V3000
M  V30 BEGIN CTAB
M  V30 COUNTS 56 58 0 0 0
M  V30 BEGIN ATOM
M  V30 1 C 0.176945 -3.509728 4.705465 0
M  V30 2 C 0.371238 -2.795684 3.385579 0
M  V30 3 C 1.661664 -2.009486 3.376742 0 CFG=2
M  V30 4 C 1.533087 -1.002169 4.523392 0
M  V30 5 O 0.379323 -0.246979 4.387083 0
M  V30 6 N 1.703658 -1.192888 2.171922 0
M  V30 7 C 2.797365 -1.230170 1.261737 0
M  V30 8 O 3.729177 -2.000186 1.542349 0
M  V30 9 C 2.875992 -0.428365 0.045392 0
M  V30 10 C 4.030007 -0.558278 -0.706335 0
M  V30 11 C 4.218713 0.156350 -1.877893 0
M  V30 12 C 3.254894 1.029113 -2.340037 0
M  V30 13 C 2.100298 1.163303 -1.594820 0
M  V30 14 C 0.951505 2.038451 -1.888523 0
M  V30 15 C 1.062063 3.373725 -2.258473 0
M  V30 16 N -0.186440 3.865327 -2.451405 0
M  V30 17 C -1.067190 2.851855 -2.205841 0
M  V30 18 C -2.447117 2.863901 -2.272592 0
M  V30 19 C -3.059224 1.661000 -1.965480 0
M  V30 20 C -2.362530 0.518583 -1.615303 0
M  V30 21 N -2.946983 -0.720564 -1.296199 0
M  V30 22 C -3.401078 -1.522513 -0.190471 0 CFG=2
M  V30 23 C -2.259787 -1.858158 0.758100 0
M  V30 24 C -1.172941 -2.635302 0.035669 0
M  V30 25 C -3.933674 -2.811913 -0.778023 0
M  V30 26 O -4.977449 -2.593995 -1.646885 0
M  V30 27 N -1.010175 0.640372 -1.586586 0
M  V30 28 N -0.363493 1.755363 -1.867406 0
M  V30 29 C 1.921750 0.435300 -0.412269 0
M  V30 30 H 1.064491 -4.144286 4.938751 0
M  V30 31 H 0.034325 -2.826386 5.559203 0
M  V30 32 H -0.716657 -4.161221 4.644324 0
M  V30 33 H 0.362898 -3.601844 2.602075 0
M  V30 34 H -0.485257 -2.126793 3.243994 0
M  V30 35 H 2.537943 -2.642753 3.488930 0
M  V30 36 H 1.603668 -1.499926 5.498421 0
M  V30 37 H 2.389428 -0.278260 4.492822 0
M  V30 38 H 0.542128 0.725797 4.481010 0
M  V30 39 H 0.901035 -0.558087 1.970560 0
M  V30 40 H 4.842679 -1.223146 -0.417537 0
M  V30 41 H 5.109230 0.065280 -2.469580 0
M  V30 42 H 3.292253 1.637130 -3.235597 0
M  V30 43 H 1.987362 3.933621 -2.374896 0
M  V30 44 H -3.037015 3.741791 -2.543339 0
M  V30 45 H -4.155847 1.576822 -1.991646 0
M  V30 46 H -3.002128 -1.033280 -2.311506 0
M  V30 47 H -4.188385 -1.019292 0.400250 0
M  V30 48 H -2.647499 -2.513521 1.563262 0
M  V30 49 H -1.862860 -0.946154 1.246761 0
M  V30 50 H -1.043035 -2.265900 -1.003381 0
M  V30 51 H -0.224967 -2.445618 0.578459 0
M  V30 52 H -1.347318 -3.730445 0.065461 0
M  V30 53 H -4.248861 -3.468301 0.064280 0
M  V30 54 H -3.088660 -3.360133 -1.271066 0
M  V30 55 H -4.608957 -2.376108 -2.552291 0
M  V30 56 H 1.033914 0.498880 0.216235 0
M  V30 END ATOM
M  V30 BEGIN BOND
M  V30 1 1 1 2
M  V30 2 1 2 3
M  V30 3 1 3 4
M  V30 4 1 4 5
M  V30 5 1 3 6
M  V30 6 1 6 7
M  V30 7 2 7 8
M  V30 8 1 7 9
M  V30 9 2 9 10
M  V30 10 1 10 11
M  V30 11 2 11 12
M  V30 12 1 12 13
M  V30 13 1 13 14
M  V30 14 2 14 15
M  V30 15 1 15 16
M  V30 16 2 16 17
M  V30 17 1 17 18
M  V30 18 2 18 19
M  V30 19 1 19 20
M  V30 20 1 20 21
M  V30 21 1 21 22
M  V30 22 1 22 23
M  V30 23 1 23 24
M  V30 24 1 22 25
M  V30 25 1 25 26
M  V30 26 2 20 27
M  V30 27 1 27 28
M  V30 28 2 13 29
M  V30 29 1 29 9
M  V30 30 1 28 14
M  V30 31 1 28 17
M  V30 32 1 1 30
M  V30 33 1 1 31
M  V30 34 1 1 32
M  V30 35 1 2 33
M  V30 36 1 2 34
M  V30 37 1 3 35 CFG=1
M  V30 38 1 4 36
M  V30 39 1 4 37
M  V30 40 1 5 38
M  V30 41 1 6 39
M  V30 42 1 10 40
M  V30 43 1 11 41
M  V30 44 1 12 42
M  V30 45 1 15 43
M  V30 46 1 18 44
M  V30 47 1 19 45
M  V30 48 1 21 46
M  V30 49 1 22 47 CFG=1
M  V30 50 1 23 48
M  V30 51 1 23 49
M  V30 52 1 24 50
M  V30 53 1 24 51
M  V30 54 1 24 52
M  V30 55 1 25 53
M  V30 56 1 25 54
M  V30 57 1 26 55
M  V30 58 1 29 56
M  V30 END BOND
M  V30 END CTAB
M  END
>  <Dataset>  (222) 
ChEMBL_Kinases

>  <Ligand_Instance>  (222) 
nan

>  <PDB_ID>  (222) 
nan

>  <Standardized_SMILES>  (222) 
CC[C@H](CO)NC(=O)c1cccc(-c2cnc3ccc(N[C@H](CC)CO)nn23)c1

>  <Name>  (222) 
nan

>  <Pocket>  (222) 
nan

>  <ATP_Site>  (222) 
nan

>  <Peripheral>  (222) 
nan

>  <Num_H_Atoms_ProtBoundConf>  (222) 
nan

>  <Num_Resolved_Atoms>  (222) 
nan

>  <Num_Not_Resolved_Atoms>  (222) 
nan

$$$$
CHEMBL4076906
     RDKit          3D

  0  0  0  0  0  0  0  0  0  0999 V3000
M  V30 BEGIN CTAB
M  V30 COUNTS 23 25 0 0 0
M  V30 BEGIN ATOM
M  V30 1 Cl -0.579031 -0.921562 4.940257 0
M  V30 2 C 0.225634 -1.321403 3.436473 0
M  V30 3 C 0.931439 -2.527225 3.407376 0
M  V30 4 C 1.569728 -2.840365 2.208433 0
M  V30 5 C 1.498982 -1.994783 1.118103 0
M  V30 6 N 2.028079 -2.097816 -0.111874 0
M  V30 7 C 1.678883 -1.005666 -0.845051 0
M  V30 8 C 0.913365 -0.240120 0.004573 0
M  V30 9 C 0.279001 1.057825 -0.292342 0
M  V30 10 C -1.039286 1.206392 0.125784 0
M  V30 11 C -1.678306 2.404246 -0.128787 0
M  V30 12 C -0.959709 3.393403 -0.791335 0
M  V30 13 N 0.316485 3.189966 -1.171896 0
M  V30 14 C 0.996175 2.047698 -0.954664 0
M  V30 15 N 0.800669 -0.840627 1.205530 0
M  V30 16 N 0.193215 -0.539324 2.341588 0
M  V30 17 H 1.015979 -3.228492 4.243891 0
M  V30 18 H 2.118228 -3.767108 2.170225 0
M  V30 19 H 1.875911 -0.677914 -1.855382 0
M  V30 20 H -1.539902 0.382650 0.642041 0
M  V30 21 H -2.705464 2.557129 0.181907 0
M  V30 22 H -1.438813 4.358185 -1.009283 0
M  V30 23 H 2.013384 1.881750 -1.256455 0
M  V30 END ATOM
M  V30 BEGIN BOND
M  V30 1 1 1 2
M  V30 2 1 2 3
M  V30 3 2 3 4
M  V30 4 1 4 5
M  V30 5 2 5 6
M  V30 6 1 6 7
M  V30 7 2 7 8
M  V30 8 1 8 9
M  V30 9 2 9 10
M  V30 10 1 10 11
M  V30 11 2 11 12
M  V30 12 1 12 13
M  V30 13 2 13 14
M  V30 14 1 8 15
M  V30 15 1 15 16
M  V30 16 2 16 2
M  V30 17 1 15 5
M  V30 18 1 14 9
M  V30 19 1 3 17
M  V30 20 1 4 18
M  V30 21 1 7 19
M  V30 22 1 10 20
M  V30 23 1 11 21
M  V30 24 1 12 22
M  V30 25 1 14 23
M  V30 END BOND
M  V30 END CTAB
M  END
>  <Dataset>  (223) 
ChEMBL_Kinases

>  <Ligand_Instance>  (223) 
nan

>  <PDB_ID>  (223) 
nan

>  <Standardized_SMILES>  (223) 
Clc1ccc2ncc(-c3cccnc3)n2n1

>  <Name>  (223) 
nan

>  <Pocket>  (223) 
nan

>  <ATP_Site>  (223) 
nan

>  <Peripheral>  (223) 
nan

>  <Num_H_Atoms_ProtBoundConf>  (223) 
nan

>  <Num_Resolved_Atoms>  (223) 
nan

>  <Num_Not_Resolved_Atoms>  (223) 
nan

$$$$
CHEMBL4077967
     RDKit          3D

  0  0  0  0  0  0  0  0  0  0999 V3000
M  V30 BEGIN CTAB
M  V30 COUNTS 54 58 0 0 0
M  V30 BEGIN ATOM
M  V30 1 C 4.806853 -0.097589 3.817697 0
M  V30 2 N 3.817310 -1.107377 3.780882 0
M  V30 3 C 2.774225 -1.022883 4.745528 0
M  V30 4 C 3.509086 -1.710436 2.540246 0
M  V30 5 C 3.023025 -0.781518 1.490549 0
M  V30 6 C 3.920838 -0.205102 0.602679 0
M  V30 7 C 3.494988 0.662773 -0.398972 0
M  V30 8 C 2.143063 0.970105 -0.526553 0
M  V30 9 C 1.666687 1.815469 -1.534290 0
M  V30 10 C 0.306900 2.057598 -1.620752 0
M  V30 11 C -0.595117 1.481969 -0.728631 0
M  V30 12 Cl -2.269943 1.901692 -0.995380 0
M  V30 13 C -0.123708 0.637541 0.282638 0
M  V30 14 C -1.140722 0.087250 1.159492 0
M  V30 15 C -2.247001 -0.626545 1.067698 0
M  V30 16 C -2.873112 -1.162683 -0.132337 0
M  V30 17 C -4.245479 -1.099767 -0.331715 0
M  V30 18 N -4.564475 -1.668421 -1.505050 0
M  V30 19 C -5.914256 -1.778551 -2.030035 0
M  V30 20 C -3.455499 -2.118267 -2.114008 0
M  V30 21 C -3.221510 -2.768703 -3.308189 0
M  V30 22 C -1.917703 -3.091335 -3.618486 0
M  V30 23 C -0.881851 -2.776567 -2.766981 0
M  V30 24 C -1.131207 -2.125339 -1.574222 0
M  V30 25 C -2.416351 -1.805738 -1.266227 0
M  V30 26 C -2.843596 -0.812280 2.410421 0
M  V30 27 O -3.920384 -1.464281 2.638574 0
M  V30 28 N -1.996017 -0.137293 3.355470 0
M  V30 29 C -0.921629 0.432256 2.574786 0
M  V30 30 O -0.121464 1.056215 3.352784 0
M  V30 31 C 1.236447 0.414313 0.339350 0
M  V30 32 C 1.690457 -0.440905 1.318262 0
M  V30 33 H 5.212882 0.261094 2.878056 0
M  V30 34 H 4.405504 0.773599 4.418286 0
M  V30 35 H 5.651371 -0.471866 4.470755 0
M  V30 36 H 3.151942 -1.208460 5.769512 0
M  V30 37 H 1.956279 -1.718172 4.464052 0
M  V30 38 H 2.343216 -0.011480 4.720860 0
M  V30 39 H 2.693943 -2.456914 2.729948 0
M  V30 40 H 4.379319 -2.308790 2.183249 0
M  V30 41 H 4.975378 -0.374163 0.608671 0
M  V30 42 H 4.171848 1.135743 -1.113390 0
M  V30 43 H 2.426886 2.224484 -2.183756 0
M  V30 44 H 0.082451 2.722535 -2.438677 0
M  V30 45 H -4.984033 -0.657810 0.350121 0
M  V30 46 H -6.502445 -0.851178 -1.845221 0
M  V30 47 H -6.418158 -2.589180 -1.452863 0
M  V30 48 H -5.912375 -2.083552 -3.087254 0
M  V30 49 H -4.120811 -2.966883 -3.906262 0
M  V30 50 H -1.783854 -3.606339 -4.580150 0
M  V30 51 H 0.132824 -3.040920 -3.036601 0
M  V30 52 H -0.305947 -1.908084 -0.945017 0
M  V30 53 H -2.287779 -0.177495 4.363787 0
M  V30 54 H 1.033661 -0.925222 2.015370 0
M  V30 END ATOM
M  V30 BEGIN BOND
M  V30 1 1 1 2
M  V30 2 1 2 3
M  V30 3 1 2 4
M  V30 4 1 4 5
M  V30 5 2 5 6
M  V30 6 1 6 7
M  V30 7 2 7 8
M  V30 8 1 8 9
M  V30 9 2 9 10
M  V30 10 1 10 11
M  V30 11 1 11 12
M  V30 12 2 11 13
M  V30 13 1 13 14
M  V30 14 2 14 15
M  V30 15 1 15 16
M  V30 16 2 16 17
M  V30 17 1 17 18
M  V30 18 1 18 19
M  V30 19 1 18 20
M  V30 20 2 20 21
M  V30 21 1 21 22
M  V30 22 2 22 23
M  V30 23 1 23 24
M  V30 24 2 24 25
M  V30 25 1 15 26
M  V30 26 2 26 27
M  V30 27 1 26 28
M  V30 28 1 28 29
M  V30 29 2 29 30
M  V30 30 1 13 31
M  V30 31 2 31 32
M  V30 32 1 32 5
M  V30 33 1 31 8
M  V30 34 1 29 14
M  V30 35 1 25 16
M  V30 36 1 25 20
M  V30 37 1 1 33
M  V30 38 1 1 34
M  V30 39 1 1 35
M  V30 40 1 3 36
M  V30 41 1 3 37
M  V30 42 1 3 38
M  V30 43 1 4 39
M  V30 44 1 4 40
M  V30 45 1 6 41
M  V30 46 1 7 42
M  V30 47 1 9 43
M  V30 48 1 10 44
M  V30 49 1 17 45
M  V30 50 1 19 46
M  V30 51 1 19 47
M  V30 52 1 19 48
M  V30 53 1 21 49
M  V30 54 1 22 50
M  V30 55 1 23 51
M  V30 56 1 24 52
M  V30 57 1 28 53
M  V30 58 1 32 54
M  V30 END BOND
M  V30 END CTAB
M  END
>  <Dataset>  (224) 
ChEMBL_Kinases

>  <Ligand_Instance>  (224) 
nan

>  <PDB_ID>  (224) 
nan

>  <Standardized_SMILES>  (224) 
CN(C)Cc1ccc2ccc(Cl)c(C3=C(c4cn(C)c5ccccc45)C(=O)NC3=O)c2c1

>  <Name>  (224) 
nan

>  <Pocket>  (224) 
nan

>  <ATP_Site>  (224) 
nan

>  <Peripheral>  (224) 
nan

>  <Num_H_Atoms_ProtBoundConf>  (224) 
nan

>  <Num_Resolved_Atoms>  (224) 
nan

>  <Num_Not_Resolved_Atoms>  (224) 
nan

$$$$
CHEMBL3605057
     RDKit          3D

  0  0  0  0  0  0  0  0  0  0999 V3000
M  V30 BEGIN CTAB
M  V30 COUNTS 70 74 0 0 0
M  V30 BEGIN ATOM
M  V30 1 O 1.855258 1.835610 3.082748 0
M  V30 2 C 1.168630 0.779404 3.072684 0
M  V30 3 N 1.474008 -0.325889 3.961171 0
M  V30 4 C 2.611790 -0.008046 4.775464 0
M  V30 5 C 3.847528 0.144381 3.979927 0
M  V30 6 C 4.383765 -1.060545 3.294063 0
M  V30 7 N 3.612231 -1.775668 2.368260 0
M  V30 8 C 2.859103 -1.793727 1.175148 0
M  V30 9 N 2.816936 -0.628897 0.468226 0
M  V30 10 C 2.166891 -0.578145 -0.722370 0
M  V30 11 N 1.961565 0.457468 -1.672232 0
M  V30 12 C 0.697000 0.816781 -2.215063 0
M  V30 13 C 0.597413 1.751427 -3.219276 0
M  V30 14 C -0.643055 2.096601 -3.719185 0
M  V30 15 C -1.795782 1.519296 -3.228424 0
M  V30 16 C -1.772451 0.565783 -2.212507 0
M  V30 17 C -2.922037 -0.108866 -1.606622 0
M  V30 18 N -3.178450 -1.340710 -2.296500 0
M  V30 19 C -4.268059 -2.090461 -1.680609 0
M  V30 20 C -5.533169 -1.283961 -1.728393 0
M  V30 21 O -5.934914 -1.019952 -3.038045 0
M  V30 22 C -4.923298 -0.386275 -3.761671 0
M  V30 23 C -3.600366 -1.089780 -3.659479 0
M  V30 24 C -0.480666 0.269580 -1.759823 0
M  V30 25 N 1.585066 -1.711720 -1.147993 0
M  V30 26 C 1.586370 -2.873176 -0.513095 0
M  V30 27 C 2.234254 -2.943902 0.685317 0
M  V30 28 C 2.201588 -4.242734 1.407429 0
M  V30 29 C 0.843380 -4.783360 1.815221 0
M  V30 30 C 1.718809 -4.252565 2.867490 0
M  V30 31 C 0.128667 0.968011 2.056501 0
M  V30 32 C -1.257867 0.785361 2.694784 0
M  V30 33 C -1.721392 1.873543 1.712446 0
M  V30 34 C -0.321908 2.431248 1.869953 0
M  V30 35 H 0.731495 -1.053291 3.724723 0
M  V30 36 H 2.704091 -0.751737 5.599325 0
M  V30 37 H 2.334235 0.958708 5.302629 0
M  V30 38 H 3.861259 1.002683 3.266146 0
M  V30 39 H 4.643264 0.489072 4.742891 0
M  V30 40 H 4.866361 -1.676704 4.115527 0
M  V30 41 H 5.335931 -0.689931 2.742674 0
M  V30 42 H 3.636283 -2.762395 2.780915 0
M  V30 43 H 2.808915 0.985516 -1.985283 0
M  V30 44 H 1.503072 2.194707 -3.593714 0
M  V30 45 H -0.716321 2.839756 -4.516697 0
M  V30 46 H -2.763840 1.785682 -3.609679 0
M  V30 47 H -2.776643 -0.316033 -0.523353 0
M  V30 48 H -3.790655 0.586708 -1.677365 0
M  V30 49 H -4.061477 -2.341717 -0.625748 0
M  V30 50 H -4.404802 -2.996896 -2.311994 0
M  V30 51 H -6.333868 -1.930265 -1.297072 0
M  V30 52 H -5.490690 -0.392725 -1.081643 0
M  V30 53 H -5.233337 -0.450386 -4.837861 0
M  V30 54 H -4.874808 0.693370 -3.514067 0
M  V30 55 H -2.843125 -0.530346 -4.199654 0
M  V30 56 H -3.685066 -2.073179 -4.177613 0
M  V30 57 H -0.420187 -0.468555 -0.975612 0
M  V30 58 H 1.101253 -3.778271 -0.887433 0
M  V30 59 H 3.001691 -4.931022 1.119942 0
M  V30 60 H 0.700580 -5.883513 1.719047 0
M  V30 61 H -0.057199 -4.198314 1.506841 0
M  V30 62 H 1.431987 -3.296199 3.329915 0
M  V30 63 H 2.270561 -4.929147 3.560000 0
M  V30 64 H 0.241037 0.479822 1.096231 0
M  V30 65 H -1.291082 1.134987 3.721899 0
M  V30 66 H -1.630337 -0.226693 2.452744 0
M  V30 67 H -1.799315 1.488344 0.657495 0
M  V30 68 H -2.552863 2.486624 2.045133 0
M  V30 69 H -0.259859 2.987374 2.845703 0
M  V30 70 H 0.098390 2.933525 0.997969 0
M  V30 END ATOM
M  V30 BEGIN BOND
M  V30 1 2 1 2
M  V30 2 1 2 3
M  V30 3 1 3 4
M  V30 4 1 4 5
M  V30 5 1 5 6
M  V30 6 1 6 7
M  V30 7 1 7 8
M  V30 8 2 8 9
M  V30 9 1 9 10
M  V30 10 1 10 11
M  V30 11 1 11 12
M  V30 12 2 12 13
M  V30 13 1 13 14
M  V30 14 2 14 15
M  V30 15 1 15 16
M  V30 16 1 16 17
M  V30 17 1 17 18
M  V30 18 1 18 19
M  V30 19 1 19 20
M  V30 20 1 20 21
M  V30 21 1 21 22
M  V30 22 1 22 23
M  V30 23 2 16 24
M  V30 24 2 10 25
M  V30 25 1 25 26
M  V30 26 2 26 27
M  V30 27 1 27 28
M  V30 28 1 28 29
M  V30 29 1 29 30
M  V30 30 1 2 31
M  V30 31 1 31 32
M  V30 32 1 32 33
M  V30 33 1 33 34
M  V30 34 1 27 8
M  V30 35 1 30 28
M  V30 36 1 34 31
M  V30 37 1 24 12
M  V30 38 1 23 18
M  V30 39 1 3 35
M  V30 40 1 4 36
M  V30 41 1 4 37
M  V30 42 1 5 38
M  V30 43 1 5 39
M  V30 44 1 6 40
M  V30 45 1 6 41
M  V30 46 1 7 42
M  V30 47 1 11 43
M  V30 48 1 13 44
M  V30 49 1 14 45
M  V30 50 1 15 46
M  V30 51 1 17 47
M  V30 52 1 17 48
M  V30 53 1 19 49
M  V30 54 1 19 50
M  V30 55 1 20 51
M  V30 56 1 20 52
M  V30 57 1 22 53
M  V30 58 1 22 54
M  V30 59 1 23 55
M  V30 60 1 23 56
M  V30 61 1 24 57
M  V30 62 1 26 58
M  V30 63 1 28 59
M  V30 64 1 29 60
M  V30 65 1 29 61
M  V30 66 1 30 62
M  V30 67 1 30 63
M  V30 68 1 31 64
M  V30 69 1 32 65
M  V30 70 1 32 66
M  V30 71 1 33 67
M  V30 72 1 33 68
M  V30 73 1 34 69
M  V30 74 1 34 70
M  V30 END BOND
M  V30 END CTAB
M  END
>  <Dataset>  (225) 
ChEMBL_Kinases

>  <Ligand_Instance>  (225) 
nan

>  <PDB_ID>  (225) 
nan

>  <Standardized_SMILES>  (225) 
O=C(NCCCNc1nc(Nc2cccc(CN3CCOCC3)c2)ncc1C1CC1)C1CCC1

>  <Name>  (225) 
nan

>  <Pocket>  (225) 
nan

>  <ATP_Site>  (225) 
nan

>  <Peripheral>  (225) 
nan

>  <Num_H_Atoms_ProtBoundConf>  (225) 
nan

>  <Num_Resolved_Atoms>  (225) 
nan

>  <Num_Not_Resolved_Atoms>  (225) 
nan

$$$$
CHEMBL4079343
     RDKit          3D

  0  0  0  0  0  0  0  0  0  0999 V3000
M  V30 BEGIN CTAB
M  V30 COUNTS 56 58 0 0 0
M  V30 BEGIN ATOM
M  V30 1 C 1.911466 0.247558 5.515052 0
M  V30 2 C 1.741832 -1.206010 5.116429 0
M  V30 3 C 2.565697 -1.424481 3.871336 0 CFG=1
M  V30 4 C 2.476753 -2.855106 3.372053 0
M  V30 5 O 3.418610 -2.957851 2.333294 0
M  V30 6 N 2.258529 -0.477578 2.822024 0
M  V30 7 C 3.063509 0.466540 2.169894 0
M  V30 8 O 4.273176 0.558235 2.508142 0
M  V30 9 C 2.566276 1.345192 1.120439 0
M  V30 10 C 3.504449 2.220215 0.558093 0
M  V30 11 C 3.107026 3.099718 -0.456480 0
M  V30 12 C 1.779463 3.020225 -0.822086 0
M  V30 13 C 0.825540 2.173481 -0.292950 0
M  V30 14 C -0.536605 2.236463 -0.810278 0
M  V30 15 C -1.095222 3.505183 -0.990001 0
M  V30 16 N -2.358592 3.329297 -1.475573 0
M  V30 17 C -2.592817 2.003761 -1.599237 0
M  V30 18 C -3.620217 1.184578 -2.011511 0
M  V30 19 C -3.477603 -0.176767 -1.992628 0
M  V30 20 C -2.333497 -0.787300 -1.573605 0
M  V30 21 N -2.165249 -2.190594 -1.560396 0
M  V30 22 C -3.030509 -3.204321 -2.069202 0 CFG=2
M  V30 23 C -2.566695 -4.603027 -1.604922 0
M  V30 24 C -2.556698 -4.732325 -0.117150 0
M  V30 25 C -2.889777 -3.308889 -3.599591 0
M  V30 26 O -3.193799 -2.158044 -4.264370 0
M  V30 27 N -1.344067 0.046422 -1.174904 0
M  V30 28 N -1.484710 1.360301 -1.194030 0
M  V30 29 C 1.252267 1.320662 0.704735 0
M  V30 30 H 2.967656 0.493595 5.714898 0
M  V30 31 H 1.538597 0.885669 4.682800 0
M  V30 32 H 1.329129 0.453321 6.431105 0
M  V30 33 H 0.654037 -1.374225 4.928768 0
M  V30 34 H 2.122219 -1.863939 5.908429 0
M  V30 35 H 3.646265 -1.321233 4.188634 0
M  V30 36 H 2.803193 -3.502165 4.200729 0
M  V30 37 H 1.473467 -3.148250 3.034116 0
M  V30 38 H 4.210535 -2.416435 2.647542 0
M  V30 39 H 1.249970 -0.592075 2.578288 0
M  V30 40 H 4.540156 2.262912 0.861553 0
M  V30 41 H 3.777763 3.801084 -0.931450 0
M  V30 42 H 1.481766 3.708535 -1.612196 0
M  V30 43 H -0.773179 4.527046 -0.840443 0
M  V30 44 H -4.537565 1.688258 -2.347364 0
M  V30 45 H -4.334039 -0.706174 -2.319817 0
M  V30 46 H -1.266396 -2.538025 -1.107287 0
M  V30 47 H -4.084793 -3.135266 -1.795514 0
M  V30 48 H -3.362894 -5.295008 -1.999184 0
M  V30 49 H -1.627233 -4.906953 -2.074074 0
M  V30 50 H -2.896147 -5.770664 0.158145 0
M  V30 51 H -3.297735 -4.060342 0.351178 0
M  V30 52 H -1.537118 -4.597101 0.281196 0
M  V30 53 H -3.545115 -4.178704 -3.884104 0
M  V30 54 H -1.853769 -3.675607 -3.837646 0
M  V30 55 H -4.095987 -2.235915 -4.711500 0
M  V30 56 H 0.542181 0.656260 1.133465 0
M  V30 END ATOM
M  V30 BEGIN BOND
M  V30 1 1 1 2
M  V30 2 1 2 3
M  V30 3 1 3 4
M  V30 4 1 4 5
M  V30 5 1 3 6
M  V30 6 1 6 7
M  V30 7 2 7 8
M  V30 8 1 7 9
M  V30 9 2 9 10
M  V30 10 1 10 11
M  V30 11 2 11 12
M  V30 12 1 12 13
M  V30 13 1 13 14
M  V30 14 2 14 15
M  V30 15 1 15 16
M  V30 16 2 16 17
M  V30 17 1 17 18
M  V30 18 2 18 19
M  V30 19 1 19 20
M  V30 20 1 20 21
M  V30 21 1 21 22
M  V30 22 1 22 23
M  V30 23 1 23 24
M  V30 24 1 22 25
M  V30 25 1 25 26
M  V30 26 2 20 27
M  V30 27 1 27 28
M  V30 28 2 13 29
M  V30 29 1 29 9
M  V30 30 1 28 14
M  V30 31 1 28 17
M  V30 32 1 1 30
M  V30 33 1 1 31
M  V30 34 1 1 32
M  V30 35 1 2 33
M  V30 36 1 2 34
M  V30 37 1 3 35 CFG=1
M  V30 38 1 4 36
M  V30 39 1 4 37
M  V30 40 1 5 38
M  V30 41 1 6 39
M  V30 42 1 10 40
M  V30 43 1 11 41
M  V30 44 1 12 42
M  V30 45 1 15 43
M  V30 46 1 18 44
M  V30 47 1 19 45
M  V30 48 1 21 46
M  V30 49 1 22 47 CFG=3
M  V30 50 1 23 48
M  V30 51 1 23 49
M  V30 52 1 24 50
M  V30 53 1 24 51
M  V30 54 1 24 52
M  V30 55 1 25 53
M  V30 56 1 25 54
M  V30 57 1 26 55
M  V30 58 1 29 56
M  V30 END BOND
M  V30 END CTAB
M  END
>  <Dataset>  (226) 
ChEMBL_Kinases

>  <Ligand_Instance>  (226) 
nan

>  <PDB_ID>  (226) 
nan

>  <Standardized_SMILES>  (226) 
CC[C@@H](CO)NC(=O)c1cccc(-c2cnc3ccc(N[C@H](CC)CO)nn23)c1

>  <Name>  (226) 
nan

>  <Pocket>  (226) 
nan

>  <ATP_Site>  (226) 
nan

>  <Peripheral>  (226) 
nan

>  <Num_H_Atoms_ProtBoundConf>  (226) 
nan

>  <Num_Resolved_Atoms>  (226) 
nan

>  <Num_Not_Resolved_Atoms>  (226) 
nan

$$$$
CHEMBL4297639
     RDKit          3D

  0  0  0  0  0  0  0  0  0  0999 V3000
M  V30 BEGIN CTAB
M  V30 COUNTS 62 67 0 0 0
M  V30 BEGIN ATOM
M  V30 1 C 2.712471 -2.573321 5.942370 0
M  V30 2 C 4.153690 -2.610520 5.465567 0
M  V30 3 C 4.421433 -3.851747 4.632587 0
M  V30 4 C 4.597268 -1.360717 4.818220 0
M  V30 5 C 3.850938 -0.950338 3.622158 0
M  V30 6 O 2.884258 -1.692034 3.236544 0
M  V30 7 N 4.140746 0.210315 2.880264 0
M  V30 8 C 3.225973 0.327829 1.767431 0
M  V30 9 C 3.469724 -0.218034 0.523900 0
M  V30 10 N 2.528103 -0.036847 -0.433919 0
M  V30 11 C 1.406613 0.648411 -0.171481 0
M  V30 12 C 1.152682 1.203410 1.082953 0
M  V30 13 C -0.132106 1.916702 1.177017 0
M  V30 14 C -0.304325 3.020656 2.022079 0
M  V30 15 C -1.525262 3.659899 2.081367 0
M  V30 16 C -2.573085 3.208551 1.307004 0
M  V30 17 N -3.851149 3.589031 1.129948 0
M  V30 18 N -4.453033 2.812158 0.257852 0
M  V30 19 C -3.622732 1.852188 -0.215137 0
M  V30 20 C -3.973570 0.838995 -1.184640 0
M  V30 21 N -5.215119 0.773110 -1.717540 0
M  V30 22 C -5.349049 -0.219577 -2.587483 0
M  V30 23 C -6.405768 -0.653781 -3.355748 0
M  V30 24 N -6.216049 -1.727131 -4.169981 0
M  V30 25 C -5.018749 -2.341520 -4.214205 0
M  V30 26 C -3.922986 -1.941620 -3.458961 0
M  V30 27 C -2.629840 -2.599759 -3.490150 0
M  V30 28 C -1.820460 -3.008568 -2.460981 0
M  V30 29 C -0.609718 -3.618234 -2.720959 0
M  V30 30 C -0.138192 -3.854668 -3.989845 0
M  V30 31 C -0.963372 -3.438091 -5.018122 0
M  V30 32 F -0.480416 -3.680576 -6.279741 0
M  V30 33 C -2.190695 -2.819922 -4.797996 0
M  V30 34 C -4.132482 -0.855492 -2.642330 0
M  V30 35 N -3.365026 -0.172214 -1.783555 0
M  V30 36 C -2.457374 2.127684 0.459485 0
M  V30 37 C -1.223029 1.521525 0.432472 0
M  V30 38 C 2.073614 1.044428 2.074116 0
M  V30 39 H 2.582380 -3.296190 6.777317 0
M  V30 40 H 2.005141 -2.909554 5.158327 0
M  V30 41 H 2.504086 -1.573833 6.336459 0
M  V30 42 H 4.764677 -2.730453 6.388637 0
M  V30 43 H 5.234592 -3.683052 3.899228 0
M  V30 44 H 4.744182 -4.726019 5.236531 0
M  V30 45 H 3.468613 -4.146551 4.154349 0
M  V30 46 H 5.677134 -1.473828 4.585544 0
M  V30 47 H 4.530713 -0.540559 5.566616 0
M  V30 48 H 4.930864 0.767177 3.239789 0
M  V30 49 H 4.404421 -0.752699 0.413672 0
M  V30 50 H 0.785812 0.676901 -1.075490 0
M  V30 51 H 0.538328 3.364385 2.629356 0
M  V30 52 H -1.703011 4.517039 2.720626 0
M  V30 53 H -4.341364 4.384547 1.597883 0
M  V30 54 H -7.352216 -0.151344 -3.306947 0
M  V30 55 H -4.894739 -3.184823 -4.863722 0
M  V30 56 H -2.225978 -2.809083 -1.489470 0
M  V30 57 H -0.015858 -3.918241 -1.875888 0
M  V30 58 H 0.814961 -4.334519 -4.123113 0
M  V30 59 H -2.701490 -2.562080 -5.703072 0
M  V30 60 H -2.385144 -0.440001 -1.629540 0
M  V30 61 H -1.050748 0.685640 -0.190935 0
M  V30 62 H 1.839538 1.484723 3.016990 0
M  V30 END ATOM
M  V30 BEGIN BOND
M  V30 1 1 1 2
M  V30 2 1 2 3
M  V30 3 1 2 4
M  V30 4 1 4 5
M  V30 5 2 5 6
M  V30 6 1 5 7
M  V30 7 1 7 8
M  V30 8 2 8 9
M  V30 9 1 9 10
M  V30 10 2 10 11
M  V30 11 1 11 12
M  V30 12 1 12 13
M  V30 13 2 13 14
M  V30 14 1 14 15
M  V30 15 2 15 16
M  V30 16 1 16 17
M  V30 17 1 17 18
M  V30 18 2 18 19
M  V30 19 1 19 20
M  V30 20 2 20 21
M  V30 21 1 21 22
M  V30 22 2 22 23
M  V30 23 1 23 24
M  V30 24 2 24 25
M  V30 25 1 25 26
M  V30 26 1 26 27
M  V30 27 2 27 28
M  V30 28 1 28 29
M  V30 29 2 29 30
M  V30 30 1 30 31
M  V30 31 1 31 32
M  V30 32 2 31 33
M  V30 33 2 26 34
M  V30 34 1 34 35
M  V30 35 1 19 36
M  V30 36 2 36 37
M  V30 37 2 12 38
M  V30 38 1 38 8
M  V30 39 1 37 13
M  V30 40 1 36 16
M  V30 41 1 35 20
M  V30 42 1 34 22
M  V30 43 1 33 27
M  V30 44 1 1 39
M  V30 45 1 1 40
M  V30 46 1 1 41
M  V30 47 1 2 42
M  V30 48 1 3 43
M  V30 49 1 3 44
M  V30 50 1 3 45
M  V30 51 1 4 46
M  V30 52 1 4 47
M  V30 53 1 7 48
M  V30 54 1 9 49
M  V30 55 1 11 50
M  V30 56 1 14 51
M  V30 57 1 15 52
M  V30 58 1 17 53
M  V30 59 1 23 54
M  V30 60 1 25 55
M  V30 61 1 28 56
M  V30 62 1 29 57
M  V30 63 1 30 58
M  V30 64 1 33 59
M  V30 65 1 35 60
M  V30 66 1 37 61
M  V30 67 1 38 62
M  V30 END BOND
M  V30 END CTAB
M  END
>  <Dataset>  (227) 
ChEMBL_Kinases

>  <Ligand_Instance>  (227) 
nan

>  <PDB_ID>  (227) 
nan

>  <Standardized_SMILES>  (227) 
CC(C)CC(=O)Nc1cncc(-c2ccc3[nH]nc(-c4nc5cncc(-c6cccc(F)c6)c5[nH]4)c3c2)c1

>  <Name>  (227) 
LORECIVIVINT

>  <Pocket>  (227) 
nan

>  <ATP_Site>  (227) 
nan

>  <Peripheral>  (227) 
nan

>  <Num_H_Atoms_ProtBoundConf>  (227) 
nan

>  <Num_Resolved_Atoms>  (227) 
nan

>  <Num_Not_Resolved_Atoms>  (227) 
nan

$$$$
CHEMBL4079347
     RDKit          3D

  0  0  0  0  0  0  0  0  0  0999 V3000
M  V30 BEGIN CTAB
M  V30 COUNTS 32 35 0 0 0
M  V30 BEGIN ATOM
M  V30 1 C -1.157181 -1.534141 3.907681 0
M  V30 2 O -1.232692 -2.834485 3.400694 0
M  V30 3 C -0.822222 -3.256598 2.159076 0
M  V30 4 C -0.903199 -4.539261 1.675060 0
M  V30 5 C -0.441469 -4.800354 0.392439 0
M  V30 6 C 0.084326 -3.770110 -0.359656 0
M  V30 7 N 0.597520 -3.720727 -1.604016 0
M  V30 8 C 0.989158 -2.461408 -1.901676 0
M  V30 9 C 0.700979 -1.693066 -0.778071 0
M  V30 10 C 0.916045 -0.250903 -0.540931 0
M  V30 11 C 2.096907 0.413535 -0.869405 0
M  V30 12 C 2.174491 1.768714 -0.596187 0
M  V30 13 C 1.127905 2.451160 -0.019299 0
M  V30 14 N 0.976067 3.759695 0.336270 0
M  V30 15 C -0.279212 3.848007 0.864060 0
M  V30 16 C -0.930962 2.633896 0.854879 0
M  V30 17 C -0.024747 1.759602 0.291665 0
M  V30 18 C -0.166895 0.408620 0.045514 0
M  V30 19 N 0.150218 -2.520867 0.143881 0
M  V30 20 N -0.300174 -2.307093 1.373173 0
M  V30 21 H -0.342731 -1.397820 4.652569 0
M  V30 22 H -2.084256 -1.215175 4.445344 0
M  V30 23 H -0.970722 -0.751166 3.138303 0
M  V30 24 H -1.336852 -5.297433 2.344208 0
M  V30 25 H -0.511661 -5.817222 0.023544 0
M  V30 26 H 1.438220 -2.064554 -2.801799 0
M  V30 27 H 2.885809 -0.168520 -1.319472 0
M  V30 28 H 3.087391 2.289553 -0.848520 0
M  V30 29 H 1.654748 4.546420 0.238480 0
M  V30 30 H -0.667023 4.798272 1.234583 0
M  V30 31 H -1.931325 2.480780 1.225259 0
M  V30 32 H -1.078577 -0.101652 0.299724 0
M  V30 END ATOM
M  V30 BEGIN BOND
M  V30 1 1 1 2
M  V30 2 1 2 3
M  V30 3 1 3 4
M  V30 4 2 4 5
M  V30 5 1 5 6
M  V30 6 2 6 7
M  V30 7 1 7 8
M  V30 8 2 8 9
M  V30 9 1 9 10
M  V30 10 2 10 11
M  V30 11 1 11 12
M  V30 12 2 12 13
M  V30 13 1 13 14
M  V30 14 1 14 15
M  V30 15 2 15 16
M  V30 16 1 16 17
M  V30 17 2 17 18
M  V30 18 1 9 19
M  V30 19 1 19 20
M  V30 20 2 20 3
M  V30 21 1 19 6
M  V30 22 1 18 10
M  V30 23 1 17 13
M  V30 24 1 1 21
M  V30 25 1 1 22
M  V30 26 1 1 23
M  V30 27 1 4 24
M  V30 28 1 5 25
M  V30 29 1 8 26
M  V30 30 1 11 27
M  V30 31 1 12 28
M  V30 32 1 14 29
M  V30 33 1 15 30
M  V30 34 1 16 31
M  V30 35 1 18 32
M  V30 END BOND
M  V30 END CTAB
M  END
>  <Dataset>  (228) 
ChEMBL_Kinases

>  <Ligand_Instance>  (228) 
nan

>  <PDB_ID>  (228) 
nan

>  <Standardized_SMILES>  (228) 
COc1ccc2ncc(-c3ccc4[nH]ccc4c3)n2n1

>  <Name>  (228) 
nan

>  <Pocket>  (228) 
nan

>  <ATP_Site>  (228) 
nan

>  <Peripheral>  (228) 
nan

>  <Num_H_Atoms_ProtBoundConf>  (228) 
nan

>  <Num_Resolved_Atoms>  (228) 
nan

>  <Num_Not_Resolved_Atoms>  (228) 
nan

$$$$
CHEMBL2338333
     RDKit          3D

  0  0  0  0  0  0  0  0  0  0999 V3000
M  V30 BEGIN CTAB
M  V30 COUNTS 39 41 0 0 0
M  V30 BEGIN ATOM
M  V30 1 C -0.454355 -3.145967 2.234631 0
M  V30 2 N -0.090353 -1.874952 1.742488 0
M  V30 3 C 1.024627 -1.812234 0.868379 0
M  V30 4 C 1.698224 -0.498688 1.048966 0
M  V30 5 C 2.924737 -0.187164 0.609236 0
M  V30 6 C 3.821713 -1.074668 -0.126125 0
M  V30 7 C 4.278399 -2.329112 0.114581 0
M  V30 8 C 5.092880 -2.965116 -0.827980 0
M  V30 9 C 5.430790 -2.322145 -1.997395 0
M  V30 10 C 4.945154 -1.035699 -2.211503 0
M  V30 11 N 4.153474 -0.429823 -1.285040 0
M  V30 12 C 0.962563 0.583879 1.750758 0
M  V30 13 O 1.488192 1.534771 2.366362 0
M  V30 14 C -0.518704 0.464951 1.672914 0
M  V30 15 C -1.281157 1.564110 1.684311 0
M  V30 16 C -2.730430 1.531558 1.607831 0
M  V30 17 C -3.214006 2.583213 0.828787 0
M  V30 18 C -4.564426 2.831883 0.564322 0
M  V30 19 C -5.464837 1.943006 1.135633 0
M  V30 20 C -4.958082 0.907024 1.904026 0
M  V30 21 N -3.641011 0.722536 2.121853 0
M  V30 22 C -1.107475 -0.897903 1.589747 0
M  V30 23 H 0.448411 -3.718617 2.500996 0
M  V30 24 H -1.018339 -3.002088 3.178363 0
M  V30 25 H -1.123170 -3.737042 1.572677 0
M  V30 26 H 0.776636 -1.977726 -0.212542 0
M  V30 27 H 1.725598 -2.624868 1.216748 0
M  V30 28 H 3.302400 0.832948 0.829009 0
M  V30 29 H 3.987591 -2.745578 1.039562 0
M  V30 30 H 5.402530 -3.970261 -0.537356 0
M  V30 31 H 6.051338 -2.913272 -2.630428 0
M  V30 32 H 5.268503 -0.623786 -3.148530 0
M  V30 33 H -0.737276 2.516271 1.757961 0
M  V30 34 H -2.594662 3.339265 0.336046 0
M  V30 35 H -4.941205 3.629206 -0.024172 0
M  V30 36 H -6.531579 2.104556 0.951381 0
M  V30 37 H -5.669881 0.239288 2.333713 0
M  V30 38 H -1.752310 -1.049669 0.711160 0
M  V30 39 H -1.803539 -1.032892 2.474741 0
M  V30 END ATOM
M  V30 BEGIN BOND
M  V30 1 1 1 2
M  V30 2 1 2 3
M  V30 3 1 3 4
M  V30 4 2 4 5
M  V30 5 1 5 6
M  V30 6 2 6 7
M  V30 7 1 7 8
M  V30 8 2 8 9
M  V30 9 1 9 10
M  V30 10 2 10 11
M  V30 11 1 4 12
M  V30 12 2 12 13
M  V30 13 1 12 14
M  V30 14 2 14 15
M  V30 15 1 15 16
M  V30 16 2 16 17
M  V30 17 1 17 18
M  V30 18 2 18 19
M  V30 19 1 19 20
M  V30 20 2 20 21
M  V30 21 1 14 22
M  V30 22 1 22 2
M  V30 23 1 11 6
M  V30 24 1 21 16
M  V30 25 1 1 23
M  V30 26 1 1 24
M  V30 27 1 1 25
M  V30 28 1 3 26
M  V30 29 1 3 27
M  V30 30 1 5 28
M  V30 31 1 7 29
M  V30 32 1 8 30
M  V30 33 1 9 31
M  V30 34 1 10 32
M  V30 35 1 15 33
M  V30 36 1 17 34
M  V30 37 1 18 35
M  V30 38 1 19 36
M  V30 39 1 20 37
M  V30 40 1 22 38
M  V30 41 1 22 39
M  V30 END BOND
M  V30 END CTAB
M  END
>  <Dataset>  (229) 
ChEMBL_Kinases

>  <Ligand_Instance>  (229) 
nan

>  <PDB_ID>  (229) 
nan

>  <Standardized_SMILES>  (229) 
CN1C/C(=C\c2ccccn2)C(=O)/C(=C/c2ccccn2)C1

>  <Name>  (229) 
nan

>  <Pocket>  (229) 
nan

>  <ATP_Site>  (229) 
nan

>  <Peripheral>  (229) 
nan

>  <Num_H_Atoms_ProtBoundConf>  (229) 
nan

>  <Num_Resolved_Atoms>  (229) 
nan

>  <Num_Not_Resolved_Atoms>  (229) 
nan

$$$$
CHEMBL513909
     RDKit          3D

  0  0  0  0  0  0  0  0  0  0999 V3000
M  V30 BEGIN CTAB
M  V30 COUNTS 77 81 0 0 0
M  V30 BEGIN ATOM
M  V30 1 C 7.515590 -3.566432 1.344025 0
M  V30 2 C 7.107265 -2.261802 0.640553 0
M  V30 3 C 5.662341 -2.197705 0.672073 0 CFG=2
M  V30 4 C 5.203809 -3.416023 -0.064590 0
M  V30 5 O 5.976537 -4.245278 -0.667871 0
M  V30 6 N 3.815943 -3.724238 -0.131281 0
M  V30 7 C 3.293447 -5.069252 -0.343220 0
M  V30 8 C 2.945358 -2.636359 0.021341 0
M  V30 9 C 1.581698 -2.787106 -0.030488 0
M  V30 10 N 0.786254 -1.719135 0.111891 0
M  V30 11 C 1.271449 -0.485998 0.306411 0
M  V30 12 N 0.489427 0.689618 0.461897 0
M  V30 13 C -0.901418 0.826169 0.437700 0
M  V30 14 C -1.781639 -0.218155 0.244342 0
M  V30 15 C -3.154055 -0.098922 0.215488 0
M  V30 16 C -3.739919 1.135246 0.387784 0
M  V30 17 C -5.166896 1.433747 0.382924 0
M  V30 18 O -5.698563 2.573346 0.546372 0
M  V30 19 N -6.125634 0.415907 0.183529 0
M  V30 20 C -7.569875 0.539905 0.149404 0
M  V30 21 C -8.037685 0.025570 -1.191676 0
M  V30 22 C -8.984152 -1.144572 -1.048920 0
M  V30 23 N -8.441479 -2.197254 -0.242224 0
M  V30 24 C -7.475022 -2.971598 -0.973693 0
M  V30 25 C -7.963786 -1.771191 1.035208 0
M  V30 26 C -8.197826 -0.305789 1.249722 0
M  V30 27 C -2.893539 2.207152 0.584386 0
M  V30 28 C -1.525090 2.068340 0.610068 0
M  V30 29 O -0.727244 3.168861 0.809538 0
M  V30 30 C -1.309711 4.438722 0.987544 0
M  V30 31 N 2.604207 -0.352195 0.355425 0
M  V30 32 C 3.492608 -1.380833 0.221118 0
M  V30 33 N 4.924063 -1.022999 0.299040 0
M  V30 34 C 5.279694 0.331222 0.015160 0
M  V30 35 C 6.208021 0.353411 -1.163698 0
M  V30 36 C 7.521483 0.861019 -0.639440 0
M  V30 37 C 7.323369 1.345518 0.771053 0
M  V30 38 C 5.856457 1.233988 0.944260 0
M  V30 39 H 6.680330 -3.932953 1.982649 0
M  V30 40 H 8.359137 -3.398588 2.070725 0
M  V30 41 H 7.883634 -4.331127 0.663234 0
M  V30 42 H 7.719441 -1.517914 1.083966 0
M  V30 43 H 7.479721 -2.411361 -0.409012 0
M  V30 44 H 5.368305 -2.434162 1.747365 0
M  V30 45 H 4.092061 -5.809392 -0.457640 0
M  V30 46 H 2.666842 -5.135888 -1.246884 0
M  V30 47 H 2.641933 -5.367898 0.517910 0
M  V30 48 H 1.223956 -3.793087 -0.188312 0
M  V30 49 H 1.002976 1.588873 0.616990 0
M  V30 50 H -1.462639 -1.219901 0.098865 0
M  V30 51 H -3.839055 -0.919751 0.063836 0
M  V30 52 H -5.848936 -0.579185 0.034162 0
M  V30 53 H -7.825621 1.594645 0.307168 0
M  V30 54 H -8.625140 0.855182 -1.666173 0
M  V30 55 H -7.197154 -0.158960 -1.868343 0
M  V30 56 H -9.941358 -0.755041 -0.658146 0
M  V30 57 H -9.189135 -1.493387 -2.081475 0
M  V30 58 H -7.775345 -4.043066 -0.960899 0
M  V30 59 H -6.439770 -2.828953 -0.588850 0
M  V30 60 H -7.445143 -2.628145 -2.026178 0
M  V30 61 H -8.597793 -2.303834 1.798944 0
M  V30 62 H -6.921612 -2.086920 1.259724 0
M  V30 63 H -7.692713 -0.038194 2.206899 0
M  V30 64 H -9.282037 -0.120375 1.324525 0
M  V30 65 H -3.290722 3.209029 0.726836 0
M  V30 66 H -0.555255 5.214923 1.220026 0
M  V30 67 H -1.858522 4.794979 0.087383 0
M  V30 68 H -2.058767 4.411426 1.831361 0
M  V30 69 H 4.324817 0.824587 -0.389339 0
M  V30 70 H 5.837158 1.037119 -1.978495 0
M  V30 71 H 6.377822 -0.667388 -1.583678 0
M  V30 72 H 7.910434 1.711548 -1.259603 0
M  V30 73 H 8.280126 0.025608 -0.647728 0
M  V30 74 H 7.720686 2.407065 0.851967 0
M  V30 75 H 7.956956 0.791524 1.481336 0
M  V30 76 H 5.512200 2.282304 0.651663 0
M  V30 77 H 5.504438 1.238761 1.997735 0
M  V30 END ATOM
M  V30 BEGIN BOND
M  V30 1 1 1 2
M  V30 2 1 2 3
M  V30 3 1 3 4
M  V30 4 2 4 5
M  V30 5 1 4 6
M  V30 6 1 6 7
M  V30 7 1 6 8
M  V30 8 2 8 9
M  V30 9 1 9 10
M  V30 10 2 10 11
M  V30 11 1 11 12
M  V30 12 1 12 13
M  V30 13 2 13 14
M  V30 14 1 14 15
M  V30 15 2 15 16
M  V30 16 1 16 17
M  V30 17 2 17 18
M  V30 18 1 17 19
M  V30 19 1 19 20
M  V30 20 1 20 21
M  V30 21 1 21 22
M  V30 22 1 22 23
M  V30 23 1 23 24
M  V30 24 1 23 25
M  V30 25 1 25 26
M  V30 26 1 16 27
M  V30 27 2 27 28
M  V30 28 1 28 29
M  V30 29 1 29 30
M  V30 30 1 11 31
M  V30 31 2 31 32
M  V30 32 1 32 33
M  V30 33 1 33 34
M  V30 34 1 34 35
M  V30 35 1 35 36
M  V30 36 1 36 37
M  V30 37 1 37 38
M  V30 38 1 33 3
M  V30 39 1 38 34
M  V30 40 1 32 8
M  V30 41 1 28 13
M  V30 42 1 26 20
M  V30 43 1 1 39
M  V30 44 1 1 40
M  V30 45 1 1 41
M  V30 46 1 2 42
M  V30 47 1 2 43
M  V30 48 1 3 44 CFG=1
M  V30 49 1 7 45
M  V30 50 1 7 46
M  V30 51 1 7 47
M  V30 52 1 9 48
M  V30 53 1 12 49
M  V30 54 1 14 50
M  V30 55 1 15 51
M  V30 56 1 19 52
M  V30 57 1 20 53
M  V30 58 1 21 54
M  V30 59 1 21 55
M  V30 60 1 22 56
M  V30 61 1 22 57
M  V30 62 1 24 58
M  V30 63 1 24 59
M  V30 64 1 24 60
M  V30 65 1 25 61
M  V30 66 1 25 62
M  V30 67 1 26 63
M  V30 68 1 26 64
M  V30 69 1 27 65
M  V30 70 1 30 66
M  V30 71 1 30 67
M  V30 72 1 30 68
M  V30 73 1 34 69
M  V30 74 1 35 70
M  V30 75 1 35 71
M  V30 76 1 36 72
M  V30 77 1 36 73
M  V30 78 1 37 74
M  V30 79 1 37 75
M  V30 80 1 38 76
M  V30 81 1 38 77
M  V30 END BOND
M  V30 END CTAB
M  END
>  <Dataset>  (230) 
ChEMBL_Kinases

>  <Ligand_Instance>  (230) 
nan

>  <PDB_ID>  (230) 
nan

>  <Standardized_SMILES>  (230) 
CC[C@@H]1C(=O)N(C)c2cnc(Nc3ccc(C(=O)NC4CCN(C)CC4)cc3OC)nc2N1C1CCCC1

>  <Name>  (230) 
BI-2536

>  <Pocket>  (230) 
nan

>  <ATP_Site>  (230) 
nan

>  <Peripheral>  (230) 
nan

>  <Num_H_Atoms_ProtBoundConf>  (230) 
nan

>  <Num_Resolved_Atoms>  (230) 
nan

>  <Num_Not_Resolved_Atoms>  (230) 
nan

$$$$
CHEMBL4102871
     RDKit          3D

  0  0  0  0  0  0  0  0  0  0999 V3000
M  V30 BEGIN CTAB
M  V30 COUNTS 50 53 0 0 0
M  V30 BEGIN ATOM
M  V30 1 C 0.361944 -3.279878 -0.460438 0
M  V30 2 C 1.498452 -2.332079 -0.276202 0
M  V30 3 O 1.842235 -1.829935 0.835237 0
M  V30 4 N 2.345707 -1.871803 -1.345099 0
M  V30 5 C 3.273223 -0.992567 -0.669104 0
M  V30 6 C 4.475270 -1.486202 -0.213786 0
M  V30 7 C 5.288662 -0.587803 0.433282 0
M  V30 8 C 4.948509 0.731765 0.629153 0
M  V30 9 C 3.745665 1.226090 0.173604 0
M  V30 10 N 3.195724 2.555577 0.260445 0
M  V30 11 C 2.221372 2.383847 1.317584 0
M  V30 12 C 2.584488 2.913336 2.536647 0
M  V30 13 C 1.693570 2.746514 3.571144 0
M  V30 14 C 0.493711 2.067042 3.345883 0
M  V30 15 N -0.557356 1.741327 4.115420 0
M  V30 16 C -1.458045 1.063955 3.361387 0
M  V30 17 C -0.954789 0.960017 2.069297 0
M  V30 18 C -1.706627 0.282454 1.042937 0
M  V30 19 C -1.754298 0.936446 -0.153963 0
M  V30 20 C -2.468410 0.345223 -1.200591 0
M  V30 21 C -3.076853 -0.863404 -0.950838 0
M  V30 22 C -3.050219 -1.550262 0.236267 0
M  V30 23 N -3.675077 -2.768921 0.517894 0
M  V30 24 C -4.504155 -3.570419 -0.296081 0
M  V30 25 C -5.126341 -4.856290 0.097622 0
M  V30 26 O -4.756268 -3.191023 -1.448360 0
M  V30 27 C -2.336664 -0.926929 1.231648 0
M  V30 28 N 0.226186 1.584729 2.120722 0
M  V30 29 N 1.062540 1.729397 1.106422 0
M  V30 30 C 2.880766 0.344127 -0.494203 0
M  V30 31 H -0.136402 -3.339752 0.527449 0
M  V30 32 H -0.385267 -2.953445 -1.181152 0
M  V30 33 H 0.726754 -4.294613 -0.763284 0
M  V30 34 H 2.154368 -2.222244 -2.307149 0
M  V30 35 H 4.741470 -2.521189 -0.369326 0
M  V30 36 H 6.245566 -0.907714 0.814944 0
M  V30 37 H 5.537015 1.487907 1.127525 0
M  V30 38 H 3.529652 3.331422 -0.358519 0
M  V30 39 H 3.526614 3.443258 2.702200 0
M  V30 40 H 1.922436 3.144819 4.567688 0
M  V30 41 H -2.380114 0.709486 3.799700 0
M  V30 42 H -1.269812 1.894064 -0.337263 0
M  V30 43 H -2.530120 0.839151 -2.165634 0
M  V30 44 H -3.612688 -1.270286 -1.790909 0
M  V30 45 H -3.553513 -3.216783 1.461277 0
M  V30 46 H -6.181054 -4.642501 0.416492 0
M  V30 47 H -5.176210 -5.567993 -0.762407 0
M  V30 48 H -4.613565 -5.293435 0.982250 0
M  V30 49 H -2.262623 -1.403516 2.204469 0
M  V30 50 H 1.906093 0.637595 -0.893016 0
M  V30 END ATOM
M  V30 BEGIN BOND
M  V30 1 1 1 2
M  V30 2 2 2 3
M  V30 3 1 2 4
M  V30 4 1 4 5
M  V30 5 2 5 6
M  V30 6 1 6 7
M  V30 7 2 7 8
M  V30 8 1 8 9
M  V30 9 1 9 10
M  V30 10 1 10 11
M  V30 11 1 11 12
M  V30 12 2 12 13
M  V30 13 1 13 14
M  V30 14 2 14 15
M  V30 15 1 15 16
M  V30 16 2 16 17
M  V30 17 1 17 18
M  V30 18 2 18 19
M  V30 19 1 19 20
M  V30 20 2 20 21
M  V30 21 1 21 22
M  V30 22 1 22 23
M  V30 23 1 23 24
M  V30 24 1 24 25
M  V30 25 2 24 26
M  V30 26 2 22 27
M  V30 27 1 17 28
M  V30 28 1 28 29
M  V30 29 2 9 30
M  V30 30 1 30 5
M  V30 31 2 29 11
M  V30 32 1 28 14
M  V30 33 1 27 18
M  V30 34 1 1 31
M  V30 35 1 1 32
M  V30 36 1 1 33
M  V30 37 1 4 34
M  V30 38 1 6 35
M  V30 39 1 7 36
M  V30 40 1 8 37
M  V30 41 1 10 38
M  V30 42 1 12 39
M  V30 43 1 13 40
M  V30 44 1 16 41
M  V30 45 1 19 42
M  V30 46 1 20 43
M  V30 47 1 21 44
M  V30 48 1 23 45
M  V30 49 1 25 46
M  V30 50 1 25 47
M  V30 51 1 25 48
M  V30 52 1 27 49
M  V30 53 1 30 50
M  V30 END BOND
M  V30 END CTAB
M  END
>  <Dataset>  (231) 
ChEMBL_Kinases

>  <Ligand_Instance>  (231) 
nan

>  <PDB_ID>  (231) 
nan

>  <Standardized_SMILES>  (231) 
CC(=O)Nc1cccc(Nc2ccc3ncc(-c4cccc(NC(C)=O)c4)n3n2)c1

>  <Name>  (231) 
nan

>  <Pocket>  (231) 
nan

>  <ATP_Site>  (231) 
nan

>  <Peripheral>  (231) 
nan

>  <Num_H_Atoms_ProtBoundConf>  (231) 
nan

>  <Num_Resolved_Atoms>  (231) 
nan

>  <Num_Not_Resolved_Atoms>  (231) 
nan

$$$$
CHEMBL319467
     RDKit          3D

  0  0  0  0  0  0  0  0  0  0999 V3000
M  V30 BEGIN CTAB
M  V30 COUNTS 50 53 0 0 0
M  V30 BEGIN ATOM
M  V30 1 N 2.793199 -6.723503 0.532490 0
M  V30 2 S 3.601552 -5.203123 0.505104 0
M  V30 3 O 3.646215 -4.664144 1.895792 0
M  V30 4 O 4.986610 -5.408782 -0.032918 0
M  V30 5 C 2.699548 -4.079949 -0.501275 0
M  V30 6 C 1.705018 -3.334898 0.074661 0
M  V30 7 C 0.918315 -2.402834 -0.609985 0
M  V30 8 C 1.197414 -2.255240 -1.959010 0
M  V30 9 N 0.427240 -1.312617 -2.709288 0
M  V30 10 C -0.658777 -0.646025 -2.082314 0
M  V30 11 N -0.646121 0.190534 -1.037700 0
M  V30 12 C -1.724804 0.775103 -0.530478 0
M  V30 13 O -1.642513 1.633306 0.555818 0
M  V30 14 C -0.384021 1.890448 1.141660 0
M  V30 15 C -0.429088 2.827833 2.308006 0
M  V30 16 C 0.964754 3.023050 2.851470 0
M  V30 17 C 1.489756 1.713321 3.362968 0
M  V30 18 C 0.610220 1.112357 4.402554 0
M  V30 19 C -0.852432 1.217814 4.186947 0
M  V30 20 C -1.343319 2.380608 3.407643 0
M  V30 21 C -2.945537 0.501147 -1.121270 0
M  V30 22 N -4.205237 0.889864 -0.896718 0
M  V30 23 C -5.068752 0.326046 -1.776424 0
M  V30 24 N -4.305810 -0.455917 -2.592268 0
M  V30 25 C -3.015844 -0.366946 -2.216072 0
M  V30 26 N -1.853343 -0.901129 -2.643579 0
M  V30 27 C 2.195621 -2.999343 -2.551470 0
M  V30 28 C 2.954542 -3.913708 -1.839944 0
M  V30 29 H 2.180593 -6.799499 1.397190 0
M  V30 30 H 2.221561 -6.889876 -0.317077 0
M  V30 31 H 1.503143 -3.459323 1.112322 0
M  V30 32 H 0.155519 -1.857180 -0.083561 0
M  V30 33 H 0.663880 -1.119023 -3.710282 0
M  V30 34 H 0.265908 2.345296 0.366907 0
M  V30 35 H 0.107753 0.923400 1.410525 0
M  V30 36 H -0.777213 3.820805 1.956861 0
M  V30 37 H 0.936932 3.715337 3.716674 0
M  V30 38 H 1.651200 3.449865 2.108148 0
M  V30 39 H 1.787038 0.997171 2.558215 0
M  V30 40 H 2.474277 1.961080 3.856859 0
M  V30 41 H 0.906311 1.499889 5.405148 0
M  V30 42 H 0.845992 0.009370 4.472760 0
M  V30 43 H -1.305517 0.266768 3.788606 0
M  V30 44 H -1.324497 1.302257 5.210565 0
M  V30 45 H -2.299892 2.101379 2.914133 0
M  V30 46 H -1.609271 3.255616 4.048017 0
M  V30 47 H -6.137933 0.425304 -1.872087 0
M  V30 48 H -4.557163 -1.064390 -3.401606 0
M  V30 49 H 2.355950 -2.837092 -3.588365 0
M  V30 50 H 3.742544 -4.501864 -2.305090 0
M  V30 END ATOM
M  V30 BEGIN BOND
M  V30 1 1 1 2
M  V30 2 2 2 3
M  V30 3 2 2 4
M  V30 4 1 2 5
M  V30 5 2 5 6
M  V30 6 1 6 7
M  V30 7 2 7 8
M  V30 8 1 8 9
M  V30 9 1 9 10
M  V30 10 2 10 11
M  V30 11 1 11 12
M  V30 12 1 12 13
M  V30 13 1 13 14
M  V30 14 1 14 15
M  V30 15 1 15 16
M  V30 16 1 16 17
M  V30 17 1 17 18
M  V30 18 1 18 19
M  V30 19 1 19 20
M  V30 20 2 12 21
M  V30 21 1 21 22
M  V30 22 2 22 23
M  V30 23 1 23 24
M  V30 24 1 24 25
M  V30 25 2 25 26
M  V30 26 1 8 27
M  V30 27 2 27 28
M  V30 28 1 28 5
M  V30 29 1 26 10
M  V30 30 1 20 15
M  V30 31 1 25 21
M  V30 32 1 1 29
M  V30 33 1 1 30
M  V30 34 1 6 31
M  V30 35 1 7 32
M  V30 36 1 9 33
M  V30 37 1 14 34
M  V30 38 1 14 35
M  V30 39 1 15 36
M  V30 40 1 16 37
M  V30 41 1 16 38
M  V30 42 1 17 39
M  V30 43 1 17 40
M  V30 44 1 18 41
M  V30 45 1 18 42
M  V30 46 1 19 43
M  V30 47 1 19 44
M  V30 48 1 20 45
M  V30 49 1 20 46
M  V30 50 1 23 47
M  V30 51 1 24 48
M  V30 52 1 27 49
M  V30 53 1 28 50
M  V30 END BOND
M  V30 END CTAB
M  END
>  <Dataset>  (232) 
ChEMBL_Kinases

>  <Ligand_Instance>  (232) 
nan

>  <PDB_ID>  (232) 
nan

>  <Standardized_SMILES>  (232) 
NS(=O)(=O)c1ccc(Nc2nc(OCC3CCCCC3)c3nc[nH]c3n2)cc1

>  <Name>  (232) 
nan

>  <Pocket>  (232) 
nan

>  <ATP_Site>  (232) 
nan

>  <Peripheral>  (232) 
nan

>  <Num_H_Atoms_ProtBoundConf>  (232) 
nan

>  <Num_Resolved_Atoms>  (232) 
nan

>  <Num_Not_Resolved_Atoms>  (232) 
nan

$$$$
CHEMBL5085753
     RDKit          3D

  0  0  0  0  0  0  0  0  0  0999 V3000
M  V30 BEGIN CTAB
M  V30 COUNTS 103 111 0 0 0
M  V30 BEGIN ATOM
M  V30 1 C 2.608372 0.071673 -1.201414 0
M  V30 2 C 3.136662 0.950976 -2.307424 0
M  V30 3 C 4.465721 1.543822 -2.002514 0
M  V30 4 C 5.603109 1.026877 -2.600183 0
M  V30 5 C 6.778760 1.634595 -2.271201 0
M  V30 6 C 6.863022 2.697056 -1.403736 0
M  V30 7 C 5.714331 3.222876 -0.796900 0
M  V30 8 C 5.934581 4.376248 0.112030 0
M  V30 9 C 5.557273 5.695680 -0.468208 0
M  V30 10 C 4.520694 2.606963 -1.129211 0
M  V30 11 N 3.376948 3.185296 -0.465413 0
M  V30 12 C 2.485946 4.254181 -0.786153 0
M  V30 13 C 1.051284 3.815271 -0.610652 0
M  V30 14 N 0.834496 3.175176 0.670671 0
M  V30 15 C -0.334841 3.097919 1.356146 0
M  V30 16 C -0.108781 2.383018 2.512301 0
M  V30 17 C -0.920396 1.935293 3.671089 0
M  V30 18 N -0.813532 0.642831 4.103291 0
M  V30 19 C -1.506013 0.138275 5.133691 0
M  V30 20 N -1.111917 -1.227951 5.265602 0
M  V30 21 C -1.675269 -2.126828 4.307371 0
M  V30 22 C -2.575965 -1.707658 3.337481 0
M  V30 23 C -3.130704 -2.536644 2.385519 0
M  V30 24 C -2.775429 -3.870951 2.385946 0
M  V30 25 N -3.368376 -4.707977 1.389294 0
M  V30 26 C -2.765525 -5.895146 0.748691 0
M  V30 27 C -2.630972 -5.544807 -0.734792 0
M  V30 28 C -3.224277 -4.179417 -1.014633 0
M  V30 29 C -3.255103 -3.974342 -2.454654 0
M  V30 30 O -4.285409 -3.815803 -3.147601 0
M  V30 31 N -2.736712 -3.821670 -3.752736 0
M  V30 32 C -3.530664 -3.611092 -4.944896 0
M  V30 33 C -2.313923 -3.001935 -5.549075 0
M  V30 34 C -2.231462 -1.520654 -5.621172 0
M  V30 35 N -2.550952 -1.679707 -7.053708 0
M  V30 36 C -1.600443 -0.924226 -7.843455 0
M  V30 37 C -2.095821 -3.087362 -6.993229 0
M  V30 38 C -1.534498 -3.768084 -4.576672 0
M  V30 39 C -4.642394 -4.031533 -0.517665 0
M  V30 40 C -4.707510 -4.429176 0.926238 0
M  V30 41 C -1.881005 -4.314006 3.342058 0
M  V30 42 C -1.333784 -3.464666 4.292338 0
M  V30 43 O -0.438912 -3.910617 5.251423 0
M  V30 44 C -0.099167 -5.284307 5.230769 0
M  V30 45 N -2.358859 0.939963 5.789599 0
M  V30 46 C -2.528710 2.232418 5.432387 0
M  V30 47 N -3.301765 3.209677 5.925090 0
M  V30 48 C -3.067026 4.322919 5.172244 0
M  V30 49 C -2.123522 4.035209 4.184189 0
M  V30 50 C -1.799485 2.713921 4.368008 0
M  V30 51 C 1.239886 2.008357 2.543125 0
M  V30 52 C 1.768738 2.523503 1.386111 0
M  V30 53 C 3.115492 2.530834 0.778764 0
M  V30 54 O 3.987263 1.902939 1.474185 0
M  V30 55 H 3.363650 -0.084726 -0.411333 0
M  V30 56 H 1.690999 0.542309 -0.753249 0
M  V30 57 H 2.364536 -0.942737 -1.588333 0
M  V30 58 H 2.393690 1.745145 -2.540365 0
M  V30 59 H 3.274775 0.303484 -3.221508 0
M  V30 60 H 5.493211 0.188059 -3.277619 0
M  V30 61 H 7.662713 1.205461 -2.757300 0
M  V30 62 H 7.847142 3.139662 -1.181061 0
M  V30 63 H 6.992396 4.424913 0.450978 0
M  V30 64 H 5.345907 4.201174 1.029339 0
M  V30 65 H 5.057528 5.594359 -1.476908 0
M  V30 66 H 6.390225 6.428003 -0.488819 0
M  V30 67 H 4.775106 6.159282 0.165919 0
M  V30 68 H 2.609301 4.630824 -1.825688 0
M  V30 69 H 2.622934 5.149069 -0.130976 0
M  V30 70 H 0.747925 3.109227 -1.437437 0
M  V30 71 H 0.408563 4.715851 -0.706404 0
M  V30 72 H -1.322834 3.461022 1.178324 0
M  V30 73 H -0.462334 -1.608414 5.986040 0
M  V30 74 H -2.847683 -0.650379 3.346341 0
M  V30 75 H -3.824876 -2.078890 1.682350 0
M  V30 76 H -3.453910 -6.768335 0.798628 0
M  V30 77 H -1.765968 -6.095318 1.131722 0
M  V30 78 H -1.552814 -5.450676 -0.948867 0
M  V30 79 H -3.014487 -6.326597 -1.400154 0
M  V30 80 H -2.561969 -3.410020 -0.520165 0
M  V30 81 H -4.285025 -2.785162 -4.782220 0
M  V30 82 H -3.991200 -4.477189 -5.415134 0
M  V30 83 H -1.298501 -1.013061 -5.397469 0
M  V30 84 H -3.132542 -1.015718 -5.168959 0
M  V30 85 H -2.099347 -0.029488 -8.289098 0
M  V30 86 H -1.206821 -1.535389 -8.689532 0
M  V30 87 H -0.693607 -0.612160 -7.247831 0
M  V30 88 H -1.027410 -3.217527 -7.270180 0
M  V30 89 H -2.733203 -3.805707 -7.505480 0
M  V30 90 H -0.652204 -3.273086 -4.088905 0
M  V30 91 H -1.199908 -4.751435 -4.966220 0
M  V30 92 H -4.867315 -2.923732 -0.548578 0
M  V30 93 H -5.363388 -4.591554 -1.147790 0
M  V30 94 H -5.217996 -3.668526 1.558038 0
M  V30 95 H -5.364980 -5.343341 1.042873 0
M  V30 96 H -1.615368 -5.369149 3.321629 0
M  V30 97 H 0.432507 -5.553527 6.182703 0
M  V30 98 H 0.514691 -5.588967 4.383479 0
M  V30 99 H -1.021919 -5.910696 5.216520 0
M  V30 100 H -3.931868 3.054796 6.734570 0
M  V30 101 H -3.558542 5.278963 5.342199 0
M  V30 102 H -1.752445 4.717198 3.455280 0
M  V30 103 H 1.818843 1.440813 3.273009 0
M  V30 END ATOM
M  V30 BEGIN BOND
M  V30 1 1 1 2
M  V30 2 1 2 3
M  V30 3 2 3 4
M  V30 4 1 4 5
M  V30 5 2 5 6
M  V30 6 1 6 7
M  V30 7 1 7 8
M  V30 8 1 8 9
M  V30 9 2 7 10
M  V30 10 1 10 11
M  V30 11 1 11 12
M  V30 12 1 12 13
M  V30 13 1 13 14
M  V30 14 1 14 15
M  V30 15 2 15 16
M  V30 16 1 16 17
M  V30 17 2 17 18
M  V30 18 1 18 19
M  V30 19 1 19 20
M  V30 20 1 20 21
M  V30 21 2 21 22
M  V30 22 1 22 23
M  V30 23 2 23 24
M  V30 24 1 24 25
M  V30 25 1 25 26
M  V30 26 1 26 27
M  V30 27 1 27 28
M  V30 28 1 28 29
M  V30 29 2 29 30
M  V30 30 1 29 31
M  V30 31 1 31 32
M  V30 32 1 32 33
M  V30 33 1 33 34
M  V30 34 1 34 35
M  V30 35 1 35 36
M  V30 36 1 35 37
M  V30 37 1 33 38
M  V30 38 1 28 39
M  V30 39 1 39 40
M  V30 40 1 24 41
M  V30 41 2 41 42
M  V30 42 1 42 43
M  V30 43 1 43 44
M  V30 44 2 19 45
M  V30 45 1 45 46
M  V30 46 1 46 47
M  V30 47 1 47 48
M  V30 48 2 48 49
M  V30 49 1 49 50
M  V30 50 1 16 51
M  V30 51 2 51 52
M  V30 52 1 52 53
M  V30 53 2 53 54
M  V30 54 1 10 3
M  V30 55 1 53 11
M  V30 56 1 52 14
M  V30 57 1 50 17
M  V30 58 1 42 21
M  V30 59 2 50 46
M  V30 60 1 40 25
M  V30 61 1 38 31
M  V30 62 1 37 33
M  V30 63 1 1 55
M  V30 64 1 1 56
M  V30 65 1 1 57
M  V30 66 1 2 58
M  V30 67 1 2 59
M  V30 68 1 4 60
M  V30 69 1 5 61
M  V30 70 1 6 62
M  V30 71 1 8 63
M  V30 72 1 8 64
M  V30 73 1 9 65
M  V30 74 1 9 66
M  V30 75 1 9 67
M  V30 76 1 12 68
M  V30 77 1 12 69
M  V30 78 1 13 70
M  V30 79 1 13 71
M  V30 80 1 15 72
M  V30 81 1 20 73
M  V30 82 1 22 74
M  V30 83 1 23 75
M  V30 84 1 26 76
M  V30 85 1 26 77
M  V30 86 1 27 78
M  V30 87 1 27 79
M  V30 88 1 28 80
M  V30 89 1 32 81
M  V30 90 1 32 82
M  V30 91 1 34 83
M  V30 92 1 34 84
M  V30 93 1 36 85
M  V30 94 1 36 86
M  V30 95 1 36 87
M  V30 96 1 37 88
M  V30 97 1 37 89
M  V30 98 1 38 90
M  V30 99 1 38 91
M  V30 100 1 39 92
M  V30 101 1 39 93
M  V30 102 1 40 94
M  V30 103 1 40 95
M  V30 104 1 41 96
M  V30 105 1 44 97
M  V30 106 1 44 98
M  V30 107 1 44 99
M  V30 108 1 47 100
M  V30 109 1 48 101
M  V30 110 1 49 102
M  V30 111 1 51 103
M  V30 END BOND
M  V30 END CTAB
M  END
>  <Dataset>  (233) 
ChEMBL_Kinases

>  <Ligand_Instance>  (233) 
nan

>  <PDB_ID>  (233) 
nan

>  <Standardized_SMILES>  (233) 
CCc1cccc(CC)c1N1CCn2cc(-c3nc(Nc4ccc(N5CCC(C(=O)N6CC7(CN(C)C7)C6)CC5)cc4OC)nc4[nH]ccc34)cc2C1=O

>  <Name>  (233) 
nan

>  <Pocket>  (233) 
nan

>  <ATP_Site>  (233) 
nan

>  <Peripheral>  (233) 
nan

>  <Num_H_Atoms_ProtBoundConf>  (233) 
nan

>  <Num_Resolved_Atoms>  (233) 
nan

>  <Num_Not_Resolved_Atoms>  (233) 
nan

$$$$
CHEMBL514409
     RDKit          3D

  0  0  0  0  0  0  0  0  0  0999 V3000
M  V30 BEGIN CTAB
M  V30 COUNTS 69 73 0 0 0
M  V30 BEGIN ATOM
M  V30 1 C 4.333544 -2.099597 2.532550 0
M  V30 2 C 4.820079 -2.837101 1.314164 0
M  V30 3 S 5.714506 -1.708918 0.282715 0
M  V30 4 O 6.161164 -2.503295 -0.923238 0
M  V30 5 O 6.958862 -1.237516 0.968813 0
M  V30 6 N 4.735171 -0.395109 -0.242504 0
M  V30 7 C 4.094651 0.571095 0.569120 0
M  V30 8 C 4.767499 1.140902 1.657665 0
M  V30 9 C 4.108445 2.061703 2.436509 0
M  V30 10 C 2.808765 2.481552 2.229025 0
M  V30 11 C 2.102099 1.942358 1.155868 0
M  V30 12 C 2.802891 1.027660 0.412113 0
M  V30 13 C 0.746745 2.431252 1.041623 0
M  V30 14 C -0.168841 2.210881 0.154576 0
M  V30 15 N -1.442385 2.866118 0.360621 0
M  V30 16 C -2.392050 1.790095 0.382366 0
M  V30 17 C -3.243961 1.383383 -0.633938 0
M  V30 18 C -4.038137 0.286173 -0.383998 0
M  V30 19 C -4.018250 -0.403216 0.803055 0
M  V30 20 C -4.838084 -1.618873 1.061537 0
M  V30 21 N -4.113974 -2.825796 0.783186 0
M  V30 22 C -3.720206 -2.895428 -0.562291 0
M  V30 23 C -3.491166 -4.260358 -1.138416 0
M  V30 24 C -3.215058 -5.337344 -0.142679 0
M  V30 25 C -4.042533 -5.246213 1.109045 0
M  V30 26 C -4.859877 -3.970238 1.161849 0
M  V30 27 C -3.176736 -0.018683 1.845224 0
M  V30 28 C -2.367186 1.096341 1.597344 0
M  V30 29 C 0.087116 1.449296 -1.038141 0
M  V30 30 C -0.367152 0.223805 -1.393665 0
M  V30 31 C -0.078625 -0.321087 -2.641719 0
M  V30 32 C 0.691882 0.390204 -3.559711 0
M  V30 33 C 1.204745 1.667795 -3.278011 0
M  V30 34 C 0.841429 2.095925 -1.995926 0
M  V30 35 C 0.639126 3.363115 2.178659 0
M  V30 36 O -0.284060 4.076154 2.592340 0
M  V30 37 N 1.892735 3.367333 2.865689 0
M  V30 38 H 3.485024 -1.453215 2.242106 0
M  V30 39 H 3.947128 -2.786461 3.314886 0
M  V30 40 H 5.146522 -1.512433 3.002208 0
M  V30 41 H 5.421175 -3.693903 1.625715 0
M  V30 42 H 3.968666 -3.226619 0.709981 0
M  V30 43 H 4.575818 -0.271671 -1.283360 0
M  V30 44 H 5.782071 0.874814 1.896396 0
M  V30 45 H 4.641484 2.504970 3.292994 0
M  V30 46 H 2.354727 0.498309 -0.446926 0
M  V30 47 H -1.571670 3.874924 0.460093 0
M  V30 48 H -3.197396 1.969570 -1.516131 0
M  V30 49 H -4.689236 0.006004 -1.191857 0
M  V30 50 H -5.752372 -1.500944 0.445582 0
M  V30 51 H -5.192710 -1.541332 2.111457 0
M  V30 52 H -4.416879 -2.327793 -1.204156 0
M  V30 53 H -2.751622 -2.305460 -0.648204 0
M  V30 54 H -4.388406 -4.512859 -1.745499 0
M  V30 55 H -2.644955 -4.195578 -1.850677 0
M  V30 56 H -3.437323 -6.315096 -0.617781 0
M  V30 57 H -2.138372 -5.379595 0.127503 0
M  V30 58 H -4.748229 -6.089898 1.234711 0
M  V30 59 H -3.398343 -5.245341 2.010176 0
M  V30 60 H -5.217292 -3.838125 2.214777 0
M  V30 61 H -5.750256 -4.066725 0.502425 0
M  V30 62 H -3.129970 -0.524308 2.789994 0
M  V30 63 H -1.714899 1.372703 2.435612 0
M  V30 64 H -0.950014 -0.312570 -0.666262 0
M  V30 65 H -0.452224 -1.306922 -2.912734 0
M  V30 66 H 0.943873 -0.006679 -4.559713 0
M  V30 67 H 1.797688 2.243163 -3.965477 0
M  V30 68 H 1.253537 3.100769 -1.795906 0
M  V30 69 H 2.180120 3.918155 3.730978 0
M  V30 END ATOM
M  V30 BEGIN BOND
M  V30 1 1 1 2
M  V30 2 1 2 3
M  V30 3 2 3 4
M  V30 4 2 3 5
M  V30 5 1 3 6
M  V30 6 1 6 7
M  V30 7 2 7 8
M  V30 8 1 8 9
M  V30 9 2 9 10
M  V30 10 1 10 11
M  V30 11 2 11 12
M  V30 12 1 11 13
M  V30 13 2 13 14
M  V30 14 1 14 15
M  V30 15 1 15 16
M  V30 16 2 16 17
M  V30 17 1 17 18
M  V30 18 2 18 19
M  V30 19 1 19 20
M  V30 20 1 20 21
M  V30 21 1 21 22
M  V30 22 1 22 23
M  V30 23 1 23 24
M  V30 24 1 24 25
M  V30 25 1 25 26
M  V30 26 1 19 27
M  V30 27 2 27 28
M  V30 28 1 14 29
M  V30 29 2 29 30
M  V30 30 1 30 31
M  V30 31 2 31 32
M  V30 32 1 32 33
M  V30 33 2 33 34
M  V30 34 1 13 35
M  V30 35 2 35 36
M  V30 36 1 35 37
M  V30 37 1 12 7
M  V30 38 1 28 16
M  V30 39 1 34 29
M  V30 40 1 37 10
M  V30 41 1 26 21
M  V30 42 1 1 38
M  V30 43 1 1 39
M  V30 44 1 1 40
M  V30 45 1 2 41
M  V30 46 1 2 42
M  V30 47 1 6 43
M  V30 48 1 8 44
M  V30 49 1 9 45
M  V30 50 1 12 46
M  V30 51 1 15 47
M  V30 52 1 17 48
M  V30 53 1 18 49
M  V30 54 1 20 50
M  V30 55 1 20 51
M  V30 56 1 22 52
M  V30 57 1 22 53
M  V30 58 1 23 54
M  V30 59 1 23 55
M  V30 60 1 24 56
M  V30 61 1 24 57
M  V30 62 1 25 58
M  V30 63 1 25 59
M  V30 64 1 26 60
M  V30 65 1 26 61
M  V30 66 1 27 62
M  V30 67 1 28 63
M  V30 68 1 30 64
M  V30 69 1 31 65
M  V30 70 1 32 66
M  V30 71 1 33 67
M  V30 72 1 34 68
M  V30 73 1 37 69
M  V30 END BOND
M  V30 END CTAB
M  END
>  <Dataset>  (234) 
ChEMBL_Kinases

>  <Ligand_Instance>  (234) 
nan

>  <PDB_ID>  (234) 
nan

>  <Standardized_SMILES>  (234) 
CCS(=O)(=O)Nc1ccc2c(c1)/C(=C(/Nc1ccc(CN3CCCCC3)cc1)c1ccccc1)C(=O)N2

>  <Name>  (234) 
HESPERADIN

>  <Pocket>  (234) 
nan

>  <ATP_Site>  (234) 
nan

>  <Peripheral>  (234) 
nan

>  <Num_H_Atoms_ProtBoundConf>  (234) 
nan

>  <Num_Resolved_Atoms>  (234) 
nan

>  <Num_Not_Resolved_Atoms>  (234) 
nan

$$$$
CHEMBL3125890
     RDKit          3D

  0  0  0  0  0  0  0  0  0  0999 V3000
M  V30 BEGIN CTAB
M  V30 COUNTS 57 61 0 0 0
M  V30 BEGIN ATOM
M  V30 1 N -0.159920 -1.542329 3.236047 0
M  V30 2 C 0.502944 -2.186314 2.574742 0
M  V30 3 C 1.345511 -2.977005 1.765721 0
M  V30 4 C 2.708244 -3.146091 1.871311 0
M  V30 5 O 3.328794 -2.450531 2.888827 0
M  V30 6 C 3.329958 -1.068926 2.966247 0
M  V30 7 C 3.947125 -0.672650 4.147357 0
M  V30 8 C 4.081753 0.683029 4.472928 0
M  V30 9 C 3.581449 1.612483 3.582517 0
M  V30 10 F 3.658847 2.934036 3.799406 0
M  V30 11 C 2.970597 1.229913 2.413665 0
M  V30 12 N 2.413147 2.071396 1.411563 0
M  V30 13 C 1.042567 2.375793 1.621121 0
M  V30 14 O 0.002308 2.254033 2.315365 0
M  V30 15 C 0.285222 3.253832 0.659845 0
M  V30 16 C -1.117359 3.408743 1.112939 0
M  V30 17 C -1.529171 4.421709 1.949936 0
M  V30 18 C -2.862564 4.456917 2.299591 0
M  V30 19 C -3.792006 3.538248 1.857262 0
M  V30 20 C -3.376590 2.526295 1.020092 0
M  V30 21 C -4.367626 1.524085 0.532345 0
M  V30 22 F -5.653536 2.022612 0.573288 0
M  V30 23 F -4.003358 1.142500 -0.743755 0
M  V30 24 F -4.372272 0.418782 1.391411 0
M  V30 25 C -2.053803 2.476424 0.662364 0
M  V30 26 C 2.845573 -0.106630 2.106718 0
M  V30 27 C 3.347593 -3.993557 0.959071 0
M  V30 28 C 2.698329 -4.674993 -0.045947 0
M  V30 29 C 1.333205 -4.553549 -0.212451 0
M  V30 30 N 0.514126 -5.095637 -1.082933 0
M  V30 31 C -0.629200 -4.990580 -1.218210 0
M  V30 32 N -1.561761 -5.571586 -2.165664 0
M  V30 33 C -1.659143 -4.705473 -3.291454 0
M  V30 34 O -0.966900 -3.638950 -3.290983 0
M  V30 35 C -2.510862 -4.949761 -4.475058 0
M  V30 36 C -3.288272 -3.815567 -5.092735 0
M  V30 37 C -2.071303 -4.364646 -5.798401 0
M  V30 38 S -1.061982 -3.771328 0.208572 0
M  V30 39 C 0.752375 -3.688850 0.735424 0
M  V30 40 H 4.380846 -1.302391 4.928999 0
M  V30 41 H 4.551433 1.050146 5.375069 0
M  V30 42 H 2.820071 2.500073 0.562590 0
M  V30 43 H 0.744013 4.257474 0.650616 0
M  V30 44 H 0.305128 2.731779 -0.313524 0
M  V30 45 H -0.784003 5.127706 2.282378 0
M  V30 46 H -3.204531 5.240181 2.952687 0
M  V30 47 H -4.824628 3.635741 2.179137 0
M  V30 48 H -1.759808 1.662481 -0.001074 0
M  V30 49 H 2.399330 -0.511873 1.233456 0
M  V30 50 H 4.438335 -4.100629 1.079840 0
M  V30 51 H 3.313487 -5.297111 -0.681578 0
M  V30 52 H -2.115918 -6.429980 -2.159733 0
M  V30 53 H -3.080234 -5.882364 -4.420333 0
M  V30 54 H -4.226371 -4.039421 -5.629216 0
M  V30 55 H -3.237210 -2.811379 -4.639073 0
M  V30 56 H -2.171846 -4.982790 -6.694877 0
M  V30 57 H -1.138120 -3.747272 -5.732354 0
M  V30 END ATOM
M  V30 BEGIN BOND
M  V30 1 3 1 2
M  V30 2 1 2 3
M  V30 3 2 3 4
M  V30 4 1 4 5
M  V30 5 1 5 6
M  V30 6 2 6 7
M  V30 7 1 7 8
M  V30 8 2 8 9
M  V30 9 1 9 10
M  V30 10 1 9 11
M  V30 11 1 11 12
M  V30 12 1 12 13
M  V30 13 2 13 14
M  V30 14 1 13 15
M  V30 15 1 15 16
M  V30 16 2 16 17
M  V30 17 1 17 18
M  V30 18 2 18 19
M  V30 19 1 19 20
M  V30 20 1 20 21
M  V30 21 1 21 22
M  V30 22 1 21 23
M  V30 23 1 21 24
M  V30 24 2 20 25
M  V30 25 2 11 26
M  V30 26 1 4 27
M  V30 27 2 27 28
M  V30 28 1 28 29
M  V30 29 1 29 30
M  V30 30 2 30 31
M  V30 31 1 31 32
M  V30 32 1 32 33
M  V30 33 2 33 34
M  V30 34 1 33 35
M  V30 35 1 35 36
M  V30 36 1 36 37
M  V30 37 1 31 38
M  V30 38 1 38 39
M  V30 39 1 39 3
M  V30 40 1 26 6
M  V30 41 2 39 29
M  V30 42 1 25 16
M  V30 43 1 37 35
M  V30 44 1 7 40
M  V30 45 1 8 41
M  V30 46 1 12 42
M  V30 47 1 15 43
M  V30 48 1 15 44
M  V30 49 1 17 45
M  V30 50 1 18 46
M  V30 51 1 19 47
M  V30 52 1 25 48
M  V30 53 1 26 49
M  V30 54 1 27 50
M  V30 55 1 28 51
M  V30 56 1 32 52
M  V30 57 1 35 53
M  V30 58 1 36 54
M  V30 59 1 36 55
M  V30 60 1 37 56
M  V30 61 1 37 57
M  V30 END BOND
M  V30 END CTAB
M  END
>  <Dataset>  (235) 
ChEMBL_Kinases

>  <Ligand_Instance>  (235) 
nan

>  <PDB_ID>  (235) 
nan

>  <Standardized_SMILES>  (235) 
N#Cc1c(Oc2ccc(F)c(NC(=O)Cc3cccc(C(F)(F)F)c3)c2)ccc2nc(NC(=O)C3CC3)sc12

>  <Name>  (235) 
nan

>  <Pocket>  (235) 
nan

>  <ATP_Site>  (235) 
nan

>  <Peripheral>  (235) 
nan

>  <Num_H_Atoms_ProtBoundConf>  (235) 
nan

>  <Num_Resolved_Atoms>  (235) 
nan

>  <Num_Not_Resolved_Atoms>  (235) 
nan

$$$$
CHEMBL1094408
     RDKit          3D

  0  0  0  0  0  0  0  0  0  0999 V3000
M  V30 BEGIN CTAB
M  V30 COUNTS 61 65 0 0 0
M  V30 BEGIN ATOM
M  V30 1 C 2.633454 -2.147268 4.696457 0
M  V30 2 O 1.700158 -1.438652 3.946888 0
M  V30 3 C 1.909634 -0.321892 3.198127 0
M  V30 4 C 3.075285 0.335576 3.029014 0
M  V30 5 C 3.060372 1.444752 2.210569 0
M  V30 6 C 1.932571 1.901592 1.581303 0
M  V30 7 N 1.988188 2.974028 0.672858 0
M  V30 8 C 3.237608 3.040030 -0.117814 0
M  V30 9 C 2.726089 2.587628 -1.526776 0
M  V30 10 N 1.860395 3.641489 -1.969154 0
M  V30 11 C 1.478395 3.303026 -3.340030 0
M  V30 12 C 0.673099 3.809301 -1.175940 0
M  V30 13 C 1.037347 3.975472 0.300797 0
M  V30 14 C 0.719386 1.287168 1.722775 0
M  V30 15 C 0.750866 0.148754 2.555706 0
M  V30 16 N -0.519927 -0.425875 2.518062 0
M  V30 17 C -1.799770 -0.986372 2.465301 0
M  V30 18 N -2.880036 -1.118775 3.293983 0
M  V30 19 C -3.855382 -1.985941 2.842783 0
M  V30 20 C -3.689096 -2.616332 1.654887 0
M  V30 21 C -2.634367 -2.508402 0.798313 0
M  V30 22 N -1.665714 -1.636830 1.259432 0
M  V30 23 C -2.043146 -3.342409 -0.281933 0
M  V30 24 C -2.742674 -4.550610 -0.408301 0
M  V30 25 C -2.058714 -5.137657 -1.416850 0
M  V30 26 C -2.271577 -6.470461 -1.907123 0
M  V30 27 N -1.957944 -7.479472 -2.821724 0
M  V30 28 O -3.188029 -7.069564 -1.191282 0
M  V30 29 N -1.057107 -4.327844 -1.849080 0
M  V30 30 N -1.031457 -3.195932 -1.152337 0
M  V30 31 C -0.199548 -2.048357 -1.331044 0
M  V30 32 C -3.892597 -4.832422 0.516906 0
M  V30 33 C -4.575838 -3.564304 0.954001 0
M  V30 34 H 3.438011 -2.640061 4.094528 0
M  V30 35 H 3.107292 -1.483020 5.433531 0
M  V30 36 H 2.088120 -3.011478 5.214661 0
M  V30 37 H 3.890179 -0.101944 3.526716 0
M  V30 38 H 4.016203 1.903281 2.133853 0
M  V30 39 H 3.963889 2.268386 0.189456 0
M  V30 40 H 3.638303 4.039554 -0.230196 0
M  V30 41 H 2.096321 1.675994 -1.332340 0
M  V30 42 H 3.536170 2.410862 -2.203900 0
M  V30 43 H 2.374355 2.764704 -3.795562 0
M  V30 44 H 1.211945 4.181267 -3.941262 0
M  V30 45 H 0.662040 2.542350 -3.249587 0
M  V30 46 H 0.003189 2.919217 -1.229019 0
M  V30 47 H 0.126274 4.703209 -1.502295 0
M  V30 48 H 1.323211 4.989438 0.564352 0
M  V30 49 H 0.097831 3.751286 0.854209 0
M  V30 50 H -0.124185 1.700830 1.237239 0
M  V30 51 H -0.345915 -1.155911 3.304548 0
M  V30 52 H -4.728826 -2.164632 3.415851 0
M  V30 53 H -2.488117 -8.261072 -3.213380 0
M  V30 54 H -0.960940 -7.087399 -2.902153 0
M  V30 55 H -0.297233 -1.288200 -0.579894 0
M  V30 56 H -0.631000 -1.544156 -2.278882 0
M  V30 57 H 0.833010 -2.274867 -1.610606 0
M  V30 58 H -4.637299 -5.411708 -0.105881 0
M  V30 59 H -3.505247 -5.416640 1.354749 0
M  V30 60 H -4.980686 -3.071745 0.012222 0
M  V30 61 H -5.454628 -3.841602 1.545701 0
M  V30 END ATOM
M  V30 BEGIN BOND
M  V30 1 1 1 2
M  V30 2 1 2 3
M  V30 3 2 3 4
M  V30 4 1 4 5
M  V30 5 2 5 6
M  V30 6 1 6 7
M  V30 7 1 7 8
M  V30 8 1 8 9
M  V30 9 1 9 10
M  V30 10 1 10 11
M  V30 11 1 10 12
M  V30 12 1 12 13
M  V30 13 1 6 14
M  V30 14 2 14 15
M  V30 15 1 15 16
M  V30 16 1 16 17
M  V30 17 2 17 18
M  V30 18 1 18 19
M  V30 19 2 19 20
M  V30 20 1 20 21
M  V30 21 2 21 22
M  V30 22 1 21 23
M  V30 23 2 23 24
M  V30 24 1 24 25
M  V30 25 1 25 26
M  V30 26 1 26 27
M  V30 27 2 26 28
M  V30 28 2 25 29
M  V30 29 1 29 30
M  V30 30 1 30 31
M  V30 31 1 24 32
M  V30 32 1 32 33
M  V30 33 1 15 3
M  V30 34 1 22 17
M  V30 35 1 30 23
M  V30 36 1 13 7
M  V30 37 1 33 20
M  V30 38 1 1 34
M  V30 39 1 1 35
M  V30 40 1 1 36
M  V30 41 1 4 37
M  V30 42 1 5 38
M  V30 43 1 8 39
M  V30 44 1 8 40
M  V30 45 1 9 41
M  V30 46 1 9 42
M  V30 47 1 11 43
M  V30 48 1 11 44
M  V30 49 1 11 45
M  V30 50 1 12 46
M  V30 51 1 12 47
M  V30 52 1 13 48
M  V30 53 1 13 49
M  V30 54 1 14 50
M  V30 55 1 16 51
M  V30 56 1 19 52
M  V30 57 1 27 53
M  V30 58 1 27 54
M  V30 59 1 31 55
M  V30 60 1 31 56
M  V30 61 1 31 57
M  V30 62 1 32 58
M  V30 63 1 32 59
M  V30 64 1 33 60
M  V30 65 1 33 61
M  V30 END BOND
M  V30 END CTAB
M  END
>  <Dataset>  (236) 
ChEMBL_Kinases

>  <Ligand_Instance>  (236) 
nan

>  <PDB_ID>  (236) 
nan

>  <Standardized_SMILES>  (236) 
COc1ccc(N2CCN(C)CC2)cc1Nc1ncc2c(n1)-c1c(c(C(N)=O)nn1C)CC2

>  <Name>  (236) 
NMS-1286937

>  <Pocket>  (236) 
nan

>  <ATP_Site>  (236) 
nan

>  <Peripheral>  (236) 
nan

>  <Num_H_Atoms_ProtBoundConf>  (236) 
nan

>  <Num_Resolved_Atoms>  (236) 
nan

>  <Num_Not_Resolved_Atoms>  (236) 
nan

$$$$
CHEMBL3593777
     RDKit          3D

  0  0  0  0  0  0  0  0  0  0999 V3000
M  V30 BEGIN CTAB
M  V30 COUNTS 46 49 0 0 0
M  V30 BEGIN ATOM
M  V30 1 N 3.279221 -7.348762 2.647580 0
M  V30 2 C 3.009062 -6.425020 2.010087 0
M  V30 3 C 2.690344 -5.266540 1.233290 0
M  V30 4 C 3.604641 -4.307239 0.841945 0
M  V30 5 C 3.216606 -3.205330 0.084933 0
M  V30 6 C 1.884540 -3.116469 -0.254218 0
M  V30 7 N 1.407489 -2.032274 -1.019601 0
M  V30 8 C 2.180683 -0.929577 -1.533943 0
M  V30 9 C 1.735431 0.416787 -1.007263 0
M  V30 10 C 0.472783 0.127999 -0.172881 0 CFG=1
M  V30 11 N -0.052687 1.252140 0.495474 0
M  V30 12 C -1.029364 1.604061 1.428747 0
M  V30 13 C -1.290177 2.895502 1.827598 0
M  V30 14 C -0.514474 3.976619 1.238501 0
M  V30 15 N -0.678536 5.350962 1.557888 0
M  V30 16 O 0.355935 4.397891 0.481262 0
M  V30 17 C -2.230086 3.271281 2.745529 0
M  V30 18 N -2.943184 2.276729 3.286765 0
M  V30 19 C -2.766376 0.987022 2.966691 0
M  V30 20 N -3.406178 -0.089582 3.439055 0
M  V30 21 C -2.902114 -1.180815 2.846407 0
M  V30 22 C -1.924268 -0.724582 1.989102 0
M  V30 23 C -1.810226 0.647219 2.038175 0
M  V30 24 C -0.486122 -0.488261 -1.178008 0 CFG=1
M  V30 25 F -0.433164 0.216523 -2.381285 0
M  V30 26 C 0.007332 -1.909588 -1.388176 0
M  V30 27 N 1.004960 -4.056085 0.132512 0
M  V30 28 C 1.365523 -5.126399 0.864326 0
M  V30 29 H 4.606839 -4.495284 1.171236 0
M  V30 30 H 3.950224 -2.494922 -0.192650 0
M  V30 31 H 1.981870 -0.898036 -2.646765 0
M  V30 32 H 3.276209 -1.062578 -1.470003 0
M  V30 33 H 1.386087 1.108866 -1.808174 0
M  V30 34 H 2.491562 0.902552 -0.388721 0
M  V30 35 H 0.783314 -0.650874 0.526041 0
M  V30 36 H 0.483075 2.102129 0.167071 0
M  V30 37 H -0.558776 5.873656 2.471047 0
M  V30 38 H -0.561094 5.883255 2.468187 0
M  V30 39 H -2.371898 4.309109 3.002967 0
M  V30 40 H -4.167140 -0.146417 4.139988 0
M  V30 41 H -3.187470 -2.228845 2.992628 0
M  V30 42 H -1.324478 -1.363738 1.366843 0
M  V30 43 H -1.528157 -0.492301 -0.868263 0
M  V30 44 H -0.643416 -2.650444 -0.889045 0
M  V30 45 H -0.021512 -2.140937 -2.485746 0
M  V30 46 H 0.545464 -5.815870 1.110768 0
M  V30 END ATOM
M  V30 BEGIN BOND
M  V30 1 3 1 2
M  V30 2 1 2 3
M  V30 3 2 3 4
M  V30 4 1 4 5
M  V30 5 2 5 6
M  V30 6 1 6 7
M  V30 7 1 7 8
M  V30 8 1 8 9
M  V30 9 1 9 10
M  V30 10 1 10 11
M  V30 11 1 11 12
M  V30 12 2 12 13
M  V30 13 1 13 14
M  V30 14 1 14 15
M  V30 15 2 14 16
M  V30 16 1 13 17
M  V30 17 2 17 18
M  V30 18 1 18 19
M  V30 19 1 19 20
M  V30 20 1 20 21
M  V30 21 2 21 22
M  V30 22 1 22 23
M  V30 23 1 10 24
M  V30 24 1 24 25
M  V30 25 1 24 26
M  V30 26 1 6 27
M  V30 27 2 27 28
M  V30 28 1 28 3
M  V30 29 1 26 7
M  V30 30 1 23 12
M  V30 31 2 23 19
M  V30 32 1 4 29
M  V30 33 1 5 30
M  V30 34 1 8 31
M  V30 35 1 8 32
M  V30 36 1 9 33
M  V30 37 1 9 34
M  V30 38 1 10 35 CFG=1
M  V30 39 1 11 36
M  V30 40 1 15 37
M  V30 41 1 15 38
M  V30 42 1 17 39
M  V30 43 1 20 40
M  V30 44 1 21 41
M  V30 45 1 22 42
M  V30 46 1 24 43 CFG=1
M  V30 47 1 26 44
M  V30 48 1 26 45
M  V30 49 1 28 46
M  V30 END BOND
M  V30 END CTAB
M  END
>  <Dataset>  (237) 
ChEMBL_Kinases

>  <Ligand_Instance>  (237) 
nan

>  <PDB_ID>  (237) 
nan

>  <Standardized_SMILES>  (237) 
N#Cc1ccc(N2CC[C@@H](Nc3c(C(N)=O)cnc4[nH]ccc34)[C@@H](F)C2)nc1

>  <Name>  (237) 
nan

>  <Pocket>  (237) 
nan

>  <ATP_Site>  (237) 
nan

>  <Peripheral>  (237) 
nan

>  <Num_H_Atoms_ProtBoundConf>  (237) 
nan

>  <Num_Resolved_Atoms>  (237) 
nan

>  <Num_Not_Resolved_Atoms>  (237) 
nan

$$$$
CHEMBL4072506
     RDKit          3D

  0  0  0  0  0  0  0  0  0  0999 V3000
M  V30 BEGIN CTAB
M  V30 COUNTS 32 34 0 0 0
M  V30 BEGIN ATOM
M  V30 1 C -0.900147 -1.454449 4.084581 0
M  V30 2 O -0.927571 -2.743745 3.523061 0
M  V30 3 C -0.527110 -3.053455 2.245699 0
M  V30 4 C -0.587022 -4.348243 1.772636 0
M  V30 5 C -0.192276 -4.690585 0.495142 0
M  V30 6 C 0.274939 -3.657673 -0.304679 0
M  V30 7 N 0.721337 -3.661466 -1.559473 0
M  V30 8 C 1.067038 -2.405384 -1.907717 0
M  V30 9 C 0.825583 -1.567895 -0.815282 0
M  V30 10 C 1.033806 -0.113879 -0.679615 0
M  V30 11 C 2.232929 0.385913 -1.154665 0
M  V30 12 C 2.466787 1.747551 -1.045623 0
M  V30 13 C 1.508976 2.567208 -0.471711 0
M  V30 14 C 0.328829 2.014844 -0.013827 0
M  V30 15 C -0.661006 2.902093 0.585665 0
M  V30 16 N -1.790740 2.457261 1.037366 0
M  V30 17 O -2.708038 3.315426 1.598652 0
M  V30 18 C 0.062906 0.674668 -0.104607 0
M  V30 19 N 0.336530 -2.374750 0.157781 0
M  V30 20 N -0.058641 -2.126311 1.389968 0
M  V30 21 H -0.015458 -1.295449 4.764295 0
M  V30 22 H -1.799549 -1.353656 4.728917 0
M  V30 23 H -0.915081 -0.631411 3.342885 0
M  V30 24 H -0.959563 -5.111060 2.440449 0
M  V30 25 H -0.231294 -5.706064 0.101792 0
M  V30 26 H 1.470562 -2.026567 -2.852707 0
M  V30 27 H 2.985707 -0.248183 -1.604134 0
M  V30 28 H 3.400711 2.163452 -1.411358 0
M  V30 29 H 1.695608 3.647967 -0.385643 0
M  V30 30 H -0.494989 3.967269 0.678777 0
M  V30 31 H -3.088691 3.136722 2.518118 0
M  V30 32 H -0.857187 0.245554 0.252631 0
M  V30 END ATOM
M  V30 BEGIN BOND
M  V30 1 1 1 2
M  V30 2 1 2 3
M  V30 3 1 3 4
M  V30 4 2 4 5
M  V30 5 1 5 6
M  V30 6 2 6 7
M  V30 7 1 7 8
M  V30 8 2 8 9
M  V30 9 1 9 10
M  V30 10 2 10 11
M  V30 11 1 11 12
M  V30 12 2 12 13
M  V30 13 1 13 14
M  V30 14 1 14 15
M  V30 15 2 15 16
M  V30 16 1 16 17
M  V30 17 2 14 18
M  V30 18 1 9 19
M  V30 19 1 19 20
M  V30 20 2 20 3
M  V30 21 1 19 6
M  V30 22 1 18 10
M  V30 23 1 1 21
M  V30 24 1 1 22
M  V30 25 1 1 23
M  V30 26 1 4 24
M  V30 27 1 5 25
M  V30 28 1 8 26
M  V30 29 1 11 27
M  V30 30 1 12 28
M  V30 31 1 13 29
M  V30 32 1 15 30
M  V30 33 1 17 31
M  V30 34 1 18 32
M  V30 END BOND
M  V30 END CTAB
M  END
>  <Dataset>  (238) 
ChEMBL_Kinases

>  <Ligand_Instance>  (238) 
nan

>  <PDB_ID>  (238) 
nan

>  <Standardized_SMILES>  (238) 
COc1ccc2ncc(-c3cccc(/C=N/O)c3)n2n1

>  <Name>  (238) 
nan

>  <Pocket>  (238) 
nan

>  <ATP_Site>  (238) 
nan

>  <Peripheral>  (238) 
nan

>  <Num_H_Atoms_ProtBoundConf>  (238) 
nan

>  <Num_Resolved_Atoms>  (238) 
nan

>  <Num_Not_Resolved_Atoms>  (238) 
nan

$$$$
CHEMBL4082981
     RDKit          3D

  0  0  0  0  0  0  0  0  0  0999 V3000
M  V30 BEGIN CTAB
M  V30 COUNTS 43 46 0 0 0
M  V30 BEGIN ATOM
M  V30 1 C -0.681978 -4.621491 -1.684311 0
M  V30 2 C -1.646406 -3.485260 -1.400161 0
M  V30 3 C -1.046198 -2.153381 -1.857807 0 CFG=1
M  V30 4 C -2.002358 -1.056262 -1.560506 0
M  V30 5 O -1.617802 0.170735 -2.092075 0
M  V30 6 N 0.282970 -2.001717 -1.376764 0
M  V30 7 C 1.267394 -0.975096 -1.400674 0
M  V30 8 C 2.111795 -0.565545 -2.413306 0
M  V30 9 C 2.988929 0.471065 -2.152244 0
M  V30 10 C 3.010530 1.062790 -0.930611 0
M  V30 11 N 3.730717 2.057213 -0.413206 0
M  V30 12 C 3.379089 2.287490 0.873730 0
M  V30 13 C 2.393628 1.391419 1.163321 0
M  V30 14 C 1.635812 1.172503 2.402561 0
M  V30 15 C 0.664345 0.218174 2.619879 0
M  V30 16 C 0.188060 0.307638 3.908835 0
M  V30 17 C -0.791905 -0.445018 4.576776 0
M  V30 18 C -1.033816 -0.085763 5.891619 0
M  V30 19 Br -2.364266 -1.059886 6.887790 0
M  V30 20 C -0.349631 0.949131 6.501201 0
M  V30 21 C 0.603831 1.654860 5.798619 0
M  V30 22 C 0.888996 1.343445 4.486072 0
M  V30 23 N 1.742330 1.836108 3.563660 0
M  V30 24 N 2.191527 0.655889 0.032744 0
M  V30 25 N 1.356501 -0.335965 -0.227436 0
M  V30 26 H -1.174030 -5.546646 -2.007624 0
M  V30 27 H 0.099332 -4.316225 -2.397085 0
M  V30 28 H -0.148896 -4.887090 -0.724152 0
M  V30 29 H -2.571175 -3.687495 -1.950414 0
M  V30 30 H -1.875361 -3.452790 -0.314400 0
M  V30 31 H -0.971168 -2.201073 -2.989127 0
M  V30 32 H -3.014384 -1.280591 -1.980993 0
M  V30 33 H -2.143383 -0.917325 -0.466731 0
M  V30 34 H -1.163215 0.762914 -1.412465 0
M  V30 35 H 0.720055 -2.798298 -0.869387 0
M  V30 36 H 1.971159 -1.138440 -3.331767 0
M  V30 37 H 3.632207 0.746962 -2.981180 0
M  V30 38 H 3.777669 3.021649 1.576566 0
M  V30 39 H 0.295566 -0.518046 1.909099 0
M  V30 40 H -1.305954 -1.249550 4.060737 0
M  V30 41 H -0.596668 1.181619 7.551133 0
M  V30 42 H 1.144555 2.467111 6.269000 0
M  V30 43 H 2.396562 2.640856 3.749874 0
M  V30 END ATOM
M  V30 BEGIN BOND
M  V30 1 1 1 2
M  V30 2 1 2 3
M  V30 3 1 3 4
M  V30 4 1 4 5
M  V30 5 1 3 6
M  V30 6 1 6 7
M  V30 7 1 7 8
M  V30 8 2 8 9
M  V30 9 1 9 10
M  V30 10 2 10 11
M  V30 11 1 11 12
M  V30 12 2 12 13
M  V30 13 1 13 14
M  V30 14 2 14 15
M  V30 15 1 15 16
M  V30 16 2 16 17
M  V30 17 1 17 18
M  V30 18 1 18 19
M  V30 19 2 18 20
M  V30 20 1 20 21
M  V30 21 2 21 22
M  V30 22 1 22 23
M  V30 23 1 13 24
M  V30 24 1 24 25
M  V30 25 2 25 7
M  V30 26 1 24 10
M  V30 27 1 23 14
M  V30 28 1 22 16
M  V30 29 1 1 26
M  V30 30 1 1 27
M  V30 31 1 1 28
M  V30 32 1 2 29
M  V30 33 1 2 30
M  V30 34 1 3 31 CFG=3
M  V30 35 1 4 32
M  V30 36 1 4 33
M  V30 37 1 5 34
M  V30 38 1 6 35
M  V30 39 1 8 36
M  V30 40 1 9 37
M  V30 41 1 12 38
M  V30 42 1 15 39
M  V30 43 1 17 40
M  V30 44 1 20 41
M  V30 45 1 21 42
M  V30 46 1 23 43
M  V30 END BOND
M  V30 END CTAB
M  END
>  <Dataset>  (239) 
ChEMBL_Kinases

>  <Ligand_Instance>  (239) 
nan

>  <PDB_ID>  (239) 
nan

>  <Standardized_SMILES>  (239) 
CC[C@@H](CO)Nc1ccc2ncc(-c3cc4cc(Br)ccc4[nH]3)n2n1

>  <Name>  (239) 
nan

>  <Pocket>  (239) 
nan

>  <ATP_Site>  (239) 
nan

>  <Peripheral>  (239) 
nan

>  <Num_H_Atoms_ProtBoundConf>  (239) 
nan

>  <Num_Resolved_Atoms>  (239) 
nan

>  <Num_Not_Resolved_Atoms>  (239) 
nan

$$$$
CHEMBL4071413
     RDKit          3D

  0  0  0  0  0  0  0  0  0  0999 V3000
M  V30 BEGIN CTAB
M  V30 COUNTS 56 58 0 0 0
M  V30 BEGIN ATOM
M  V30 1 C 1.919831 -0.304826 5.616167 0
M  V30 2 C 1.760993 -1.713633 5.066975 0
M  V30 3 C 2.392426 -1.781552 3.711616 0 CFG=1
M  V30 4 C 2.273902 -3.167327 3.092871 0
M  V30 5 O 3.047245 -3.197483 1.931840 0
M  V30 6 N 1.922033 -0.773235 2.795250 0
M  V30 7 C 2.733298 0.228841 2.193943 0
M  V30 8 O 3.961153 0.257859 2.467933 0
M  V30 9 C 2.218547 1.233564 1.269688 0
M  V30 10 C 3.122393 2.143942 0.763174 0
M  V30 11 C 2.679160 3.127461 -0.126959 0
M  V30 12 C 1.353136 3.203679 -0.507945 0
M  V30 13 C 0.468522 2.279839 0.013933 0
M  V30 14 C -0.917301 2.410644 -0.424967 0
M  V30 15 C -1.567198 3.638914 -0.479186 0
M  V30 16 N -2.828155 3.380302 -0.927373 0
M  V30 17 C -2.961871 2.068849 -1.141619 0
M  V30 18 C -4.032470 1.306564 -1.592506 0
M  V30 19 C -3.899336 -0.063296 -1.726494 0
M  V30 20 C -2.669258 -0.632263 -1.395920 0
M  V30 21 N -2.446853 -2.032850 -1.504250 0
M  V30 22 C -1.976888 -2.951738 -2.518889 0 CFG=1
M  V30 23 C -1.961216 -4.379316 -2.011959 0
M  V30 24 C -1.069168 -4.546831 -0.824525 0
M  V30 25 C -2.902062 -2.821337 -3.713684 0
M  V30 26 O -2.907500 -1.542607 -4.226872 0
M  V30 27 N -1.662788 0.173393 -0.960487 0
M  V30 28 N -1.799630 1.470138 -0.837206 0
M  V30 29 C 0.901716 1.307671 0.892608 0
M  V30 30 H 1.031912 0.038935 6.169104 0
M  V30 31 H 2.104482 0.438311 4.813494 0
M  V30 32 H 2.810472 -0.238191 6.289793 0
M  V30 33 H 0.683570 -1.958651 5.072407 0
M  V30 34 H 2.332760 -2.373757 5.737561 0
M  V30 35 H 3.496734 -1.644735 3.871105 0
M  V30 36 H 1.244512 -3.414001 2.773266 0
M  V30 37 H 2.607716 -3.928528 3.795957 0
M  V30 38 H 3.905668 -2.735524 2.193969 0
M  V30 39 H 0.901852 -0.807777 2.575923 0
M  V30 40 H 4.189291 2.163541 1.005229 0
M  V30 41 H 3.386894 3.849332 -0.530762 0
M  V30 42 H 1.077540 3.996053 -1.205418 0
M  V30 43 H -1.260198 4.644302 -0.247726 0
M  V30 44 H -4.990981 1.757905 -1.849051 0
M  V30 45 H -4.711605 -0.669101 -2.072145 0
M  V30 46 H -2.727385 -2.360121 -0.561344 0
M  V30 47 H -0.934558 -2.719853 -2.840329 0
M  V30 48 H -2.978441 -4.752275 -1.796696 0
M  V30 49 H -1.538727 -4.985408 -2.839978 0
M  V30 50 H -0.149084 -3.951787 -0.901350 0
M  V30 51 H -1.598335 -4.341391 0.142724 0
M  V30 52 H -0.768229 -5.618011 -0.769829 0
M  V30 53 H -3.940795 -3.027401 -3.365994 0
M  V30 54 H -2.590875 -3.555826 -4.504925 0
M  V30 55 H -2.299036 -1.533387 -5.011898 0
M  V30 56 H 0.185689 0.598114 1.284603 0
M  V30 END ATOM
M  V30 BEGIN BOND
M  V30 1 1 1 2
M  V30 2 1 2 3
M  V30 3 1 3 4
M  V30 4 1 4 5
M  V30 5 1 3 6
M  V30 6 1 6 7
M  V30 7 2 7 8
M  V30 8 1 7 9
M  V30 9 2 9 10
M  V30 10 1 10 11
M  V30 11 2 11 12
M  V30 12 1 12 13
M  V30 13 1 13 14
M  V30 14 2 14 15
M  V30 15 1 15 16
M  V30 16 2 16 17
M  V30 17 1 17 18
M  V30 18 2 18 19
M  V30 19 1 19 20
M  V30 20 1 20 21
M  V30 21 1 21 22
M  V30 22 1 22 23
M  V30 23 1 23 24
M  V30 24 1 22 25
M  V30 25 1 25 26
M  V30 26 2 20 27
M  V30 27 1 27 28
M  V30 28 2 13 29
M  V30 29 1 29 9
M  V30 30 1 28 14
M  V30 31 1 28 17
M  V30 32 1 1 30
M  V30 33 1 1 31
M  V30 34 1 1 32
M  V30 35 1 2 33
M  V30 36 1 2 34
M  V30 37 1 3 35 CFG=1
M  V30 38 1 4 36
M  V30 39 1 4 37
M  V30 40 1 5 38
M  V30 41 1 6 39
M  V30 42 1 10 40
M  V30 43 1 11 41
M  V30 44 1 12 42
M  V30 45 1 15 43
M  V30 46 1 18 44
M  V30 47 1 19 45
M  V30 48 1 21 46
M  V30 49 1 22 47 CFG=3
M  V30 50 1 23 48
M  V30 51 1 23 49
M  V30 52 1 24 50
M  V30 53 1 24 51
M  V30 54 1 24 52
M  V30 55 1 25 53
M  V30 56 1 25 54
M  V30 57 1 26 55
M  V30 58 1 29 56
M  V30 END BOND
M  V30 END CTAB
M  END
>  <Dataset>  (240) 
ChEMBL_Kinases

>  <Ligand_Instance>  (240) 
nan

>  <PDB_ID>  (240) 
nan

>  <Standardized_SMILES>  (240) 
CC[C@@H](CO)NC(=O)c1cccc(-c2cnc3ccc(N[C@@H](CC)CO)nn23)c1

>  <Name>  (240) 
nan

>  <Pocket>  (240) 
nan

>  <ATP_Site>  (240) 
nan

>  <Peripheral>  (240) 
nan

>  <Num_H_Atoms_ProtBoundConf>  (240) 
nan

>  <Num_Resolved_Atoms>  (240) 
nan

>  <Num_Not_Resolved_Atoms>  (240) 
nan

$$$$
CHEMBL2326002
     RDKit          3D

  0  0  0  0  0  0  0  0  0  0999 V3000
M  V30 BEGIN CTAB
M  V30 COUNTS 53 56 0 0 0
M  V30 BEGIN ATOM
M  V30 1 C -0.478234 -3.687983 4.306263 0
M  V30 2 C -0.363931 -3.308137 2.819865 0
M  V30 3 C -1.636829 -2.565845 2.527034 0
M  V30 4 C 0.892944 -2.500465 2.647963 0 CFG=1
M  V30 5 C 0.870811 -1.242460 3.471632 0
M  V30 6 O 1.882561 -3.309833 3.286670 0
M  V30 7 C 1.363133 -2.341537 1.247825 0 CFG=2
M  V30 8 C 0.653688 -1.379576 0.379327 0
M  V30 9 N 0.904546 -1.706424 -1.029082 0
M  V30 10 C 0.337289 -0.702136 -1.875921 0
M  V30 11 N -0.230994 0.431727 -1.434314 0
M  V30 12 C -0.760661 1.399985 -2.188489 0
M  V30 13 C -1.349370 2.585053 -1.546801 0
M  V30 14 N -1.907151 3.630298 -2.183446 0
M  V30 15 N -2.346961 4.535041 -1.336327 0
M  V30 16 C -2.105264 4.140255 -0.085524 0
M  V30 17 N -2.338104 4.664654 1.139832 0
M  V30 18 C -1.967186 4.008541 2.247025 0
M  V30 19 C -1.336349 2.777840 2.174468 0
M  V30 20 C -1.099331 2.243499 0.917354 0
M  V30 21 C -1.479185 2.915701 -0.220104 0
M  V30 22 C -0.767652 1.310620 -3.541362 0
M  V30 23 F -1.313123 2.311936 -4.259934 0
M  V30 24 C -0.207247 0.182516 -4.101927 0
M  V30 25 C 0.315532 -0.765206 -3.249383 0
M  V30 26 Cl 0.972428 -2.133064 -4.118206 0
M  V30 27 C 1.607332 -2.837025 -1.523436 0
M  V30 28 C 2.367455 -3.613557 -0.447235 0
M  V30 29 N 1.437999 -3.696334 0.670615 0
M  V30 30 H 0.485036 -4.020756 4.721008 0
M  V30 31 H -1.260397 -4.492404 4.331248 0
M  V30 32 H -0.942794 -2.830001 4.834063 0
M  V30 33 H -0.298434 -4.228216 2.235363 0
M  V30 34 H -2.474740 -2.878215 3.222615 0
M  V30 35 H -1.556284 -1.491075 2.653000 0
M  V30 36 H -1.980329 -2.799575 1.496464 0
M  V30 37 H 1.907160 -0.838000 3.556032 0
M  V30 38 H 0.607743 -1.549554 4.509832 0
M  V30 39 H 0.140424 -0.492847 3.164130 0
M  V30 40 H 2.786611 -2.991440 3.020772 0
M  V30 41 H 2.454023 -2.016849 1.240448 0
M  V30 42 H -0.425982 -1.238583 0.569448 0
M  V30 43 H 1.087236 -0.338575 0.498914 0
M  V30 44 H -2.809733 5.414340 -1.648363 0
M  V30 45 H -2.119906 4.364217 3.260474 0
M  V30 46 H -1.033154 2.239419 3.061464 0
M  V30 47 H -0.617944 1.301792 0.842361 0
M  V30 48 H -0.220872 0.127597 -5.171824 0
M  V30 49 H 1.080952 -3.569057 -2.109597 0
M  V30 50 H 2.447358 -2.452324 -2.180972 0
M  V30 51 H 3.286831 -3.029980 -0.150300 0
M  V30 52 H 2.610782 -4.595457 -0.845700 0
M  V30 53 H 0.514332 -3.956520 0.262340 0
M  V30 END ATOM
M  V30 BEGIN BOND
M  V30 1 1 1 2
M  V30 2 1 2 3
M  V30 3 1 2 4
M  V30 4 1 4 5
M  V30 5 1 4 6 CFG=1
M  V30 6 1 4 7
M  V30 7 1 7 8
M  V30 8 1 8 9
M  V30 9 1 9 10
M  V30 10 2 10 11
M  V30 11 1 11 12
M  V30 12 1 12 13
M  V30 13 2 13 14
M  V30 14 1 14 15
M  V30 15 1 15 16
M  V30 16 2 16 17
M  V30 17 1 17 18
M  V30 18 2 18 19
M  V30 19 1 19 20
M  V30 20 2 20 21
M  V30 21 2 12 22
M  V30 22 1 22 23
M  V30 23 1 22 24
M  V30 24 2 24 25
M  V30 25 1 25 26
M  V30 26 1 9 27
M  V30 27 1 27 28
M  V30 28 1 28 29
M  V30 29 1 29 7
M  V30 30 1 25 10
M  V30 31 1 21 13
M  V30 32 1 21 16
M  V30 33 1 1 30
M  V30 34 1 1 31
M  V30 35 1 1 32
M  V30 36 1 2 33
M  V30 37 1 3 34
M  V30 38 1 3 35
M  V30 39 1 3 36
M  V30 40 1 5 37
M  V30 41 1 5 38
M  V30 42 1 5 39
M  V30 43 1 6 40
M  V30 44 1 7 41 CFG=1
M  V30 45 1 8 42
M  V30 46 1 8 43
M  V30 47 1 15 44
M  V30 48 1 18 45
M  V30 49 1 19 46
M  V30 50 1 20 47
M  V30 51 1 24 48
M  V30 52 1 27 49
M  V30 53 1 27 50
M  V30 54 1 28 51
M  V30 55 1 28 52
M  V30 56 1 29 53
M  V30 END BOND
M  V30 END CTAB
M  END
>  <Dataset>  (241) 
ChEMBL_Kinases

>  <Ligand_Instance>  (241) 
nan

>  <PDB_ID>  (241) 
nan

>  <Standardized_SMILES>  (241) 
CC(C)[C@@](C)(O)[C@@H]1CN(c2nc(-c3n[nH]c4ncccc34)c(F)cc2Cl)CCN1

>  <Name>  (241) 
nan

>  <Pocket>  (241) 
nan

>  <ATP_Site>  (241) 
nan

>  <Peripheral>  (241) 
nan

>  <Num_H_Atoms_ProtBoundConf>  (241) 
nan

>  <Num_Resolved_Atoms>  (241) 
nan

>  <Num_Not_Resolved_Atoms>  (241) 
nan

$$$$
CHEMBL4083249
     RDKit          3D

  0  0  0  0  0  0  0  0  0  0999 V3000
M  V30 BEGIN CTAB
M  V30 COUNTS 47 52 0 0 0
M  V30 BEGIN ATOM
M  V30 1 C 0.164429 2.301265 -0.472012 0
M  V30 2 C 1.406572 2.030969 0.329383 0 CFG=1
M  V30 3 C 1.227580 1.880255 1.784385 0
M  V30 4 C 2.430437 1.974343 2.503501 0
M  V30 5 C 2.498752 1.880031 3.872373 0
M  V30 6 C 1.374000 1.684451 4.634235 0
M  V30 7 F 1.319779 1.577532 5.965653 0
M  V30 8 C 0.179702 1.588396 3.957354 0
M  V30 9 C 0.150601 1.687679 2.587332 0
M  V30 10 N 2.411560 1.234148 -0.298660 0
M  V30 11 N 3.586553 1.780177 -0.684815 0
M  V30 12 N 4.395532 0.910170 -1.250070 0
M  V30 13 C 3.785198 -0.271330 -1.265179 0
M  V30 14 C 4.230750 -1.474619 -1.754888 0
M  V30 15 N 3.384079 -2.512654 -1.635857 0
M  V30 16 C 2.171660 -2.327582 -1.057045 0
M  V30 17 C 1.364137 -3.438626 -0.974487 0
M  V30 18 C 0.133705 -3.243803 -0.386258 0
M  V30 19 C -0.340252 -2.023304 0.121218 0
M  V30 20 C -1.686860 -2.088458 0.683173 0
M  V30 21 C -2.168292 -1.336058 1.731640 0
M  V30 22 C -3.448077 -1.405766 2.237826 0
M  V30 23 C -4.330578 -2.293969 1.661230 0
M  V30 24 O -5.595275 -2.571706 1.931268 0
M  V30 25 C -5.990222 -3.495642 1.093153 0
M  V30 26 N -4.981385 -3.825871 0.269845 0
M  V30 27 C -3.896299 -3.069317 0.609184 0
M  V30 28 C -2.613579 -2.963623 0.141229 0
M  V30 29 C 0.532783 -0.961597 -0.002110 0
M  V30 30 C 1.759578 -1.109826 -0.578166 0
M  V30 31 C 2.564679 -0.027256 -0.668755 0
M  V30 32 H 0.217014 1.579235 -1.342918 0
M  V30 33 H -0.777609 2.079957 0.026819 0
M  V30 34 H 0.100989 3.308214 -0.925698 0
M  V30 35 H 1.871687 3.092673 0.316272 0
M  V30 36 H 3.409010 2.130709 2.022077 0
M  V30 37 H 3.434124 1.954610 4.413539 0
M  V30 38 H -0.785681 1.434385 4.429434 0
M  V30 39 H -0.774769 1.621388 1.995630 0
M  V30 40 H 5.202708 -1.553600 -2.201713 0
M  V30 41 H 1.687326 -4.376878 -1.346280 0
M  V30 42 H -0.475260 -4.140713 -0.337142 0
M  V30 43 H -1.485233 -0.643862 2.190083 0
M  V30 44 H -3.730839 -0.768110 3.069050 0
M  V30 45 H -6.960262 -3.991737 0.988340 0
M  V30 46 H -2.404589 -3.624460 -0.684367 0
M  V30 47 H 0.040225 -0.134491 0.422788 0
M  V30 END ATOM
M  V30 BEGIN BOND
M  V30 1 1 1 2
M  V30 2 1 2 3
M  V30 3 2 3 4
M  V30 4 1 4 5
M  V30 5 2 5 6
M  V30 6 1 6 7
M  V30 7 1 6 8
M  V30 8 2 8 9
M  V30 9 1 2 10
M  V30 10 1 10 11
M  V30 11 2 11 12
M  V30 12 1 12 13
M  V30 13 2 13 14
M  V30 14 1 14 15
M  V30 15 2 15 16
M  V30 16 1 16 17
M  V30 17 2 17 18
M  V30 18 1 18 19
M  V30 19 1 19 20
M  V30 20 2 20 21
M  V30 21 1 21 22
M  V30 22 2 22 23
M  V30 23 1 23 24
M  V30 24 1 24 25
M  V30 25 2 25 26
M  V30 26 1 26 27
M  V30 27 2 27 28
M  V30 28 2 19 29
M  V30 29 1 29 30
M  V30 30 2 30 31
M  V30 31 1 9 3
M  V30 32 1 31 10
M  V30 33 1 31 13
M  V30 34 1 30 16
M  V30 35 1 28 20
M  V30 36 1 27 23
M  V30 37 1 1 32
M  V30 38 1 1 33
M  V30 39 1 1 34
M  V30 40 1 2 35 CFG=1
M  V30 41 1 4 36
M  V30 42 1 5 37
M  V30 43 1 8 38
M  V30 44 1 9 39
M  V30 45 1 14 40
M  V30 46 1 17 41
M  V30 47 1 18 42
M  V30 48 1 21 43
M  V30 49 1 22 44
M  V30 50 1 25 45
M  V30 51 1 28 46
M  V30 52 1 29 47
M  V30 END BOND
M  V30 END CTAB
M  END
>  <Dataset>  (242) 
ChEMBL_Kinases

>  <Ligand_Instance>  (242) 
nan

>  <PDB_ID>  (242) 
nan

>  <Standardized_SMILES>  (242) 
C[C@@H](c1ccc(F)cc1)n1nnc2cnc3ccc(-c4ccc5ocnc5c4)cc3c21

>  <Name>  (242) 
nan

>  <Pocket>  (242) 
nan

>  <ATP_Site>  (242) 
nan

>  <Peripheral>  (242) 
nan

>  <Num_H_Atoms_ProtBoundConf>  (242) 
nan

>  <Num_Resolved_Atoms>  (242) 
nan

>  <Num_Not_Resolved_Atoms>  (242) 
nan

$$$$
CHEMBL4071322
     RDKit          3D

  0  0  0  0  0  0  0  0  0  0999 V3000
M  V30 BEGIN CTAB
M  V30 COUNTS 48 50 0 0 0
M  V30 BEGIN ATOM
M  V30 1 C -0.794930 -5.436222 0.716431 0
M  V30 2 C -0.044275 -5.684385 -0.590317 0
M  V30 3 O -0.008130 -4.512434 -1.385725 0
M  V30 4 C 0.586674 -3.328805 -0.924058 0
M  V30 5 O 1.021078 -3.571118 0.242088 0
M  V30 6 C 0.660966 -2.084788 -1.687627 0
M  V30 7 C 0.137087 -1.962727 -2.967126 0
M  V30 8 C 0.277527 -0.731289 -3.572776 0
M  V30 9 C 0.894106 0.356424 -2.990946 0
M  V30 10 C 1.399996 0.187666 -1.717099 0
M  V30 11 C 2.087223 1.269653 -0.972042 0
M  V30 12 C 3.052287 2.194483 -1.317728 0
M  V30 13 N 3.310103 2.942206 -0.237222 0
M  V30 14 C 2.548770 2.539775 0.801811 0
M  V30 15 C 2.437023 2.973157 2.107668 0
M  V30 16 C 1.557782 2.370558 2.984350 0
M  V30 17 C 0.812659 1.323509 2.471041 0
M  V30 18 N -0.148971 0.558675 3.184812 0
M  V30 19 C -1.543372 0.621460 3.451074 0 CFG=1
M  V30 20 C -2.397983 0.590065 2.205210 0
M  V30 21 C -2.074742 1.773225 1.291018 0
M  V30 22 C -1.899202 -0.660006 4.216567 0
M  V30 23 O -3.273751 -0.600341 4.480475 0
M  V30 24 N 0.983949 0.964870 1.185333 0
M  V30 25 N 1.809593 1.518589 0.333685 0
M  V30 26 C 1.283428 -1.041338 -1.059103 0
M  V30 27 H -1.429400 -4.510113 0.617571 0
M  V30 28 H -0.048649 -5.225981 1.502559 0
M  V30 29 H -1.409951 -6.293767 1.022668 0
M  V30 30 H 0.960383 -6.094407 -0.410810 0
M  V30 31 H -0.639578 -6.434923 -1.150771 0
M  V30 32 H -0.349121 -2.808900 -3.434654 0
M  V30 33 H -0.138683 -0.637685 -4.586908 0
M  V30 34 H 0.999126 1.318012 -3.474382 0
M  V30 35 H 3.453849 2.214590 -2.315887 0
M  V30 36 H 3.023850 3.792589 2.499816 0
M  V30 37 H 1.387987 2.624975 4.022242 0
M  V30 38 H 0.500582 -0.203642 3.541739 0
M  V30 39 H -1.811942 1.531791 4.019895 0
M  V30 40 H -2.274170 -0.321587 1.608642 0
M  V30 41 H -3.475554 0.672887 2.451773 0
M  V30 42 H -1.329907 2.406053 1.820928 0
M  V30 43 H -1.647850 1.460820 0.329709 0
M  V30 44 H -2.961999 2.445816 1.158292 0
M  V30 45 H -1.290899 -0.677846 5.125709 0
M  V30 46 H -1.708875 -1.499914 3.514532 0
M  V30 47 H -3.437209 -0.359098 5.430841 0
M  V30 48 H 1.697138 -1.137743 -0.048576 0
M  V30 END ATOM
M  V30 BEGIN BOND
M  V30 1 1 1 2
M  V30 2 1 2 3
M  V30 3 1 3 4
M  V30 4 2 4 5
M  V30 5 1 4 6
M  V30 6 2 6 7
M  V30 7 1 7 8
M  V30 8 2 8 9
M  V30 9 1 9 10
M  V30 10 1 10 11
M  V30 11 2 11 12
M  V30 12 1 12 13
M  V30 13 2 13 14
M  V30 14 1 14 15
M  V30 15 2 15 16
M  V30 16 1 16 17
M  V30 17 1 17 18
M  V30 18 1 18 19
M  V30 19 1 19 20
M  V30 20 1 20 21
M  V30 21 1 19 22
M  V30 22 1 22 23
M  V30 23 2 17 24
M  V30 24 1 24 25
M  V30 25 2 10 26
M  V30 26 1 26 6
M  V30 27 1 25 11
M  V30 28 1 25 14
M  V30 29 1 1 27
M  V30 30 1 1 28
M  V30 31 1 1 29
M  V30 32 1 2 30
M  V30 33 1 2 31
M  V30 34 1 7 32
M  V30 35 1 8 33
M  V30 36 1 9 34
M  V30 37 1 12 35
M  V30 38 1 15 36
M  V30 39 1 16 37
M  V30 40 1 18 38
M  V30 41 1 19 39 CFG=1
M  V30 42 1 20 40
M  V30 43 1 20 41
M  V30 44 1 21 42
M  V30 45 1 21 43
M  V30 46 1 21 44
M  V30 47 1 22 45
M  V30 48 1 22 46
M  V30 49 1 23 47
M  V30 50 1 26 48
M  V30 END BOND
M  V30 END CTAB
M  END
>  <Dataset>  (243) 
ChEMBL_Kinases

>  <Ligand_Instance>  (243) 
nan

>  <PDB_ID>  (243) 
nan

>  <Standardized_SMILES>  (243) 
CCOC(=O)c1cccc(-c2cnc3ccc(N[C@@H](CC)CO)nn23)c1

>  <Name>  (243) 
nan

>  <Pocket>  (243) 
nan

>  <ATP_Site>  (243) 
nan

>  <Peripheral>  (243) 
nan

>  <Num_H_Atoms_ProtBoundConf>  (243) 
nan

>  <Num_Resolved_Atoms>  (243) 
nan

>  <Num_Not_Resolved_Atoms>  (243) 
nan

$$$$
CHEMBL3589666
     RDKit          3D

  0  0  0  0  0  0  0  0  0  0999 V3000
M  V30 BEGIN CTAB
M  V30 COUNTS 34 37 0 0 0
M  V30 BEGIN ATOM
M  V30 1 C 1.473308 -6.390787 1.552674 0
M  V30 2 O 2.023646 -5.092953 1.423572 0
M  V30 3 C 1.276594 -3.950116 1.174392 0
M  V30 4 C -0.091384 -3.874027 1.012780 0
M  V30 5 C -0.643086 -2.633255 0.770782 0
M  V30 6 C 0.058439 -1.453045 0.675504 0
M  V30 7 C 1.421548 -1.566402 0.842029 0
M  V30 8 C 2.013672 -2.787442 1.085588 0
M  V30 9 N 2.110677 -0.393991 0.746586 0
M  V30 10 C 1.427246 0.735593 0.506369 0
M  V30 11 C 2.242593 1.927916 0.422811 0
M  V30 12 O 3.508405 1.801422 0.577370 0
M  V30 13 O 2.945708 3.087917 0.331812 0
M  V30 14 C 0.072715 0.853232 0.340024 0
M  V30 15 C -0.847717 1.845266 0.092999 0
M  V30 16 C -0.665323 3.198264 -0.085641 0
M  V30 17 C -1.769558 3.984960 -0.323267 0
M  V30 18 C -3.011177 3.393564 -0.373628 0
M  V30 19 C -3.212521 2.028616 -0.195376 0
M  V30 20 Br -4.973185 1.290844 -0.281630 0
M  V30 21 C -2.090788 1.241147 0.044303 0
M  V30 22 N -1.983277 -0.097857 0.252273 0
M  V30 23 C -0.665504 -0.305678 0.428154 0
M  V30 24 H 1.502208 -6.899505 0.545667 0
M  V30 25 H 2.084022 -6.957881 2.288858 0
M  V30 26 H 0.429185 -6.331090 1.922520 0
M  V30 27 H -0.625343 -4.788129 1.087607 0
M  V30 28 H -1.725848 -2.653491 0.654623 0
M  V30 29 H 3.097120 -2.738945 1.197695 0
M  V30 30 H 2.562535 4.024555 0.546468 0
M  V30 31 H 0.295008 3.639632 -0.045132 0
M  V30 32 H -1.639010 5.059241 -0.466657 0
M  V30 33 H -3.848517 4.057564 -0.563721 0
M  V30 34 H -2.753999 -0.798622 0.269837 0
M  V30 END ATOM
M  V30 BEGIN BOND
M  V30 1 1 1 2
M  V30 2 1 2 3
M  V30 3 2 3 4
M  V30 4 1 4 5
M  V30 5 2 5 6
M  V30 6 1 6 7
M  V30 7 2 7 8
M  V30 8 1 7 9
M  V30 9 2 9 10
M  V30 10 1 10 11
M  V30 11 2 11 12
M  V30 12 1 11 13
M  V30 13 1 10 14
M  V30 14 1 14 15
M  V30 15 2 15 16
M  V30 16 1 16 17
M  V30 17 2 17 18
M  V30 18 1 18 19
M  V30 19 1 19 20
M  V30 20 2 19 21
M  V30 21 1 21 22
M  V30 22 1 22 23
M  V30 23 1 8 3
M  V30 24 2 23 14
M  V30 25 1 23 6
M  V30 26 1 21 15
M  V30 27 1 1 24
M  V30 28 1 1 25
M  V30 29 1 1 26
M  V30 30 1 4 27
M  V30 31 1 5 28
M  V30 32 1 8 29
M  V30 33 1 13 30
M  V30 34 1 16 31
M  V30 35 1 17 32
M  V30 36 1 18 33
M  V30 37 1 22 34
M  V30 END BOND
M  V30 END CTAB
M  END
>  <Dataset>  (244) 
ChEMBL_Kinases

>  <Ligand_Instance>  (244) 
nan

>  <PDB_ID>  (244) 
nan

>  <Standardized_SMILES>  (244) 
COc1ccc2c(c1)nc(C(=O)O)c1c3cccc(Br)c3[nH]c21

>  <Name>  (244) 
nan

>  <Pocket>  (244) 
nan

>  <ATP_Site>  (244) 
nan

>  <Peripheral>  (244) 
nan

>  <Num_H_Atoms_ProtBoundConf>  (244) 
nan

>  <Num_Resolved_Atoms>  (244) 
nan

>  <Num_Not_Resolved_Atoms>  (244) 
nan

$$$$
CHEMBL4439133
     RDKit          3D

  0  0  0  0  0  0  0  0  0  0999 V3000
M  V30 BEGIN CTAB
M  V30 COUNTS 39 42 0 0 0
M  V30 BEGIN ATOM
M  V30 1 C 0.012580 -6.089438 0.793967 0
M  V30 2 C 1.305651 -5.483319 1.203499 0
M  V30 3 N 2.449014 -6.137812 1.536319 0
M  V30 4 N 3.401004 -5.266703 1.848304 0
M  V30 5 C 2.947347 -3.991509 1.741253 0
M  V30 6 C 1.647914 -4.179909 1.340048 0
M  V30 7 C 0.778890 -3.023127 1.103346 0
M  V30 8 C 0.903216 -1.655723 1.174990 0
M  V30 9 C -0.193061 -0.917815 0.858675 0
M  V30 10 N -0.261017 0.438053 0.871851 0
M  V30 11 C -1.385025 1.094734 0.545511 0
M  V30 12 C -1.350027 2.592423 0.593961 0 CFG=2
M  V30 13 C -0.759483 3.232784 -0.607692 0
M  V30 14 C 0.725378 3.289760 -0.679045 0
M  V30 15 C 1.415233 3.549725 0.616286 0
M  V30 16 C 0.714321 2.974503 1.813752 0
M  V30 17 N -0.702133 3.083319 1.780926 0
M  V30 18 N -2.546762 0.491853 0.176107 0
M  V30 19 C -2.535925 -0.851569 0.145799 0
M  V30 20 O -3.502681 -1.591311 -0.167568 0
M  V30 21 C -1.402206 -1.478574 0.475896 0
M  V30 22 S -1.006543 -3.329354 0.550979 0
M  V30 23 H 0.103925 -7.201588 0.838504 0
M  V30 24 H -0.820998 -5.785731 1.427656 0
M  V30 25 H -0.232588 -5.855014 -0.267985 0
M  V30 26 H 4.373450 -5.548161 2.138147 0
M  V30 27 H 3.464876 -3.063112 1.922052 0
M  V30 28 H 1.870746 -1.309825 1.478745 0
M  V30 29 H -2.398205 2.951396 0.678270 0
M  V30 30 H -1.125149 2.823648 -1.566953 0
M  V30 31 H -1.121755 4.299209 -0.606205 0
M  V30 32 H 1.103187 2.373475 -1.216264 0
M  V30 33 H 1.006106 4.124368 -1.366047 0
M  V30 34 H 1.606234 4.651851 0.758589 0
M  V30 35 H 2.424738 3.089959 0.566424 0
M  V30 36 H 1.114535 1.968867 2.066764 0
M  V30 37 H 1.047779 3.615247 2.681233 0
M  V30 38 H -1.069251 2.495011 2.572950 0
M  V30 39 H -3.416353 0.978606 -0.076933 0
M  V30 END ATOM
M  V30 BEGIN BOND
M  V30 1 1 1 2
M  V30 2 2 2 3
M  V30 3 1 3 4
M  V30 4 1 4 5
M  V30 5 2 5 6
M  V30 6 1 6 7
M  V30 7 2 7 8
M  V30 8 1 8 9
M  V30 9 1 9 10
M  V30 10 2 10 11
M  V30 11 1 11 12
M  V30 12 1 12 13
M  V30 13 1 13 14
M  V30 14 1 14 15
M  V30 15 1 15 16
M  V30 16 1 16 17
M  V30 17 1 11 18
M  V30 18 1 18 19
M  V30 19 2 19 20
M  V30 20 1 19 21
M  V30 21 1 21 22
M  V30 22 1 6 2
M  V30 23 1 22 7
M  V30 24 2 21 9
M  V30 25 1 17 12
M  V30 26 1 1 23
M  V30 27 1 1 24
M  V30 28 1 1 25
M  V30 29 1 4 26
M  V30 30 1 5 27
M  V30 31 1 8 28
M  V30 32 1 12 29 CFG=1
M  V30 33 1 13 30
M  V30 34 1 13 31
M  V30 35 1 14 32
M  V30 36 1 14 33
M  V30 37 1 15 34
M  V30 38 1 15 35
M  V30 39 1 16 36
M  V30 40 1 16 37
M  V30 41 1 17 38
M  V30 42 1 18 39
M  V30 END BOND
M  V30 END CTAB
M  END
>  <Dataset>  (245) 
ChEMBL_Kinases

>  <Ligand_Instance>  (245) 
nan

>  <PDB_ID>  (245) 
nan

>  <Standardized_SMILES>  (245) 
Cc1n[nH]cc1-c1cc2nc([C@@H]3CCCCN3)[nH]c(=O)c2s1

>  <Name>  (245) 
nan

>  <Pocket>  (245) 
nan

>  <ATP_Site>  (245) 
nan

>  <Peripheral>  (245) 
nan

>  <Num_H_Atoms_ProtBoundConf>  (245) 
nan

>  <Num_Resolved_Atoms>  (245) 
nan

>  <Num_Not_Resolved_Atoms>  (245) 
nan

$$$$
CHEMBL4070227
     RDKit          3D

  0  0  0  0  0  0  0  0  0  0999 V3000
M  V30 BEGIN CTAB
M  V30 COUNTS 55 57 0 0 0
M  V30 BEGIN ATOM
M  V30 1 C 1.356121 -2.005706 5.076510 0
M  V30 2 C 2.798484 -2.346392 5.435956 0
M  V30 3 C 3.660894 -1.176106 4.941291 0 CFG=1
M  V30 4 C 5.072312 -1.521819 5.296720 0
M  V30 5 O 5.220236 -1.565885 6.690022 0
M  V30 6 N 3.398116 -1.104137 3.519529 0
M  V30 7 C 2.567880 -0.213398 3.030519 0
M  V30 8 C 2.257078 -0.085674 1.612224 0
M  V30 9 C 2.846371 -0.923716 0.688654 0
M  V30 10 C 2.560048 -0.835015 -0.663926 0
M  V30 11 C 1.659004 0.128928 -1.047989 0
M  V30 12 C 1.076504 0.963886 -0.100841 0
M  V30 13 C 0.114433 1.943922 -0.655820 0
M  V30 14 C -0.072981 3.311408 -0.439247 0
M  V30 15 N -1.125098 3.691629 -1.220630 0
M  V30 16 C -1.592245 2.630431 -1.904101 0
M  V30 17 C -2.637512 2.545200 -2.801654 0
M  V30 18 C -2.905904 1.313026 -3.359345 0
M  V30 19 C -2.098151 0.248825 -2.971416 0
M  V30 20 N -2.343675 -1.068936 -3.506624 0
M  V30 21 C -3.026015 -1.734759 -2.416024 0 CFG=1
M  V30 22 C -4.270527 -0.982412 -2.017296 0
M  V30 23 C -4.952015 -1.721983 -0.865431 0
M  V30 24 C -3.411705 -3.151987 -2.825518 0
M  V30 25 O -4.259020 -3.087647 -3.926992 0
M  V30 26 N -1.092201 0.377458 -2.095404 0
M  V30 27 N -0.840718 1.571556 -1.561570 0
M  V30 28 C 1.355242 0.880922 1.234263 0
M  V30 29 H 1.114168 -0.990421 5.417332 0
M  V30 30 H 0.628224 -2.693014 5.553374 0
M  V30 31 H 1.224344 -2.042887 3.981045 0
M  V30 32 H 2.948291 -2.465125 6.505417 0
M  V30 33 H 3.134272 -3.258629 4.912738 0
M  V30 34 H 3.335024 -0.291828 5.507141 0
M  V30 35 H 5.814194 -0.816186 4.902506 0
M  V30 36 H 5.379452 -2.521795 4.888214 0
M  V30 37 H 5.503004 -2.475493 6.979030 0
M  V30 38 H 2.131300 0.422958 3.770023 0
M  V30 39 H 3.557356 -1.688596 0.966380 0
M  V30 40 H 2.984631 -1.457599 -1.430757 0
M  V30 41 H 1.413651 0.220405 -2.113206 0
M  V30 42 H 0.563545 3.838471 0.240613 0
M  V30 43 H -3.246054 3.393150 -3.081733 0
M  V30 44 H -3.696348 1.128218 -4.071067 0
M  V30 45 H -2.111691 -1.504970 -4.447944 0
M  V30 46 H -2.328805 -1.824016 -1.537324 0
M  V30 47 H -3.936227 -0.007391 -1.564742 0
M  V30 48 H -4.931366 -0.865922 -2.877977 0
M  V30 49 H -5.548931 -2.558016 -1.273801 0
M  V30 50 H -4.172510 -2.141850 -0.179393 0
M  V30 51 H -5.629970 -1.033200 -0.302746 0
M  V30 52 H -2.496600 -3.713332 -3.021028 0
M  V30 53 H -3.962800 -3.628331 -1.982669 0
M  V30 54 H -3.894042 -3.620752 -4.681502 0
M  V30 55 H 0.854012 1.573595 1.903461 0
M  V30 END ATOM
M  V30 BEGIN BOND
M  V30 1 1 1 2
M  V30 2 1 2 3
M  V30 3 1 3 4
M  V30 4 1 4 5
M  V30 5 1 3 6
M  V30 6 2 6 7
M  V30 7 1 7 8
M  V30 8 2 8 9
M  V30 9 1 9 10
M  V30 10 2 10 11
M  V30 11 1 11 12
M  V30 12 1 12 13
M  V30 13 2 13 14
M  V30 14 1 14 15
M  V30 15 2 15 16
M  V30 16 1 16 17
M  V30 17 2 17 18
M  V30 18 1 18 19
M  V30 19 1 19 20
M  V30 20 1 20 21
M  V30 21 1 21 22
M  V30 22 1 22 23
M  V30 23 1 21 24
M  V30 24 1 24 25
M  V30 25 2 19 26
M  V30 26 1 26 27
M  V30 27 2 12 28
M  V30 28 1 28 8
M  V30 29 1 27 13
M  V30 30 1 27 16
M  V30 31 1 1 29
M  V30 32 1 1 30
M  V30 33 1 1 31
M  V30 34 1 2 32
M  V30 35 1 2 33
M  V30 36 1 3 34 CFG=1
M  V30 37 1 4 35
M  V30 38 1 4 36
M  V30 39 1 5 37
M  V30 40 1 7 38
M  V30 41 1 9 39
M  V30 42 1 10 40
M  V30 43 1 11 41
M  V30 44 1 14 42
M  V30 45 1 17 43
M  V30 46 1 18 44
M  V30 47 1 20 45
M  V30 48 1 21 46 CFG=1
M  V30 49 1 22 47
M  V30 50 1 22 48
M  V30 51 1 23 49
M  V30 52 1 23 50
M  V30 53 1 23 51
M  V30 54 1 24 52
M  V30 55 1 24 53
M  V30 56 1 25 54
M  V30 57 1 28 55
M  V30 END BOND
M  V30 END CTAB
M  END
>  <Dataset>  (246) 
ChEMBL_Kinases

>  <Ligand_Instance>  (246) 
nan

>  <PDB_ID>  (246) 
nan

>  <Standardized_SMILES>  (246) 
CC[C@@H](CO)/N=C/c1cccc(-c2cnc3ccc(N[C@@H](CC)CO)nn23)c1

>  <Name>  (246) 
nan

>  <Pocket>  (246) 
nan

>  <ATP_Site>  (246) 
nan

>  <Peripheral>  (246) 
nan

>  <Num_H_Atoms_ProtBoundConf>  (246) 
nan

>  <Num_Resolved_Atoms>  (246) 
nan

>  <Num_Not_Resolved_Atoms>  (246) 
nan

$$$$
CHEMBL4070189
     RDKit          3D

  0  0  0  0  0  0  0  0  0  0999 V3000
M  V30 BEGIN CTAB
M  V30 COUNTS 45 47 0 0 0
M  V30 BEGIN ATOM
M  V30 1 C 0.687132 -3.309319 1.751778 0
M  V30 2 C 0.418160 -3.111086 0.256822 0
M  V30 3 C 1.664403 -3.487031 -0.529713 0 CFG=1
M  V30 4 C 1.337453 -3.274265 -1.998090 0
M  V30 5 O 0.986034 -1.957078 -2.171337 0
M  V30 6 N 2.768108 -2.610820 -0.192158 0
M  V30 7 C 2.919419 -1.225289 -0.385828 0
M  V30 8 C 3.804917 -0.528296 -1.203562 0
M  V30 9 C 3.717998 0.847905 -1.198540 0
M  V30 10 C 2.793197 1.495115 -0.416695 0
M  V30 11 N 2.546831 2.802486 -0.268633 0
M  V30 12 C 1.536565 2.942827 0.613480 0
M  V30 13 C 1.150232 1.683128 1.019612 0
M  V30 14 C 0.121154 1.151133 1.942073 0
M  V30 15 C 0.318050 0.152354 2.871270 0
M  V30 16 C -0.719094 -0.273982 3.674557 0
M  V30 17 C -1.982065 0.268953 3.588912 0
M  V30 18 C -2.165745 1.271456 2.651399 0
M  V30 19 S -3.728244 2.045478 2.421664 0
M  V30 20 C -4.611686 1.145093 1.140364 0
M  V30 21 O -3.543005 3.437240 1.947977 0
M  V30 22 O -4.526548 2.011440 3.672552 0
M  V30 23 C -1.144683 1.735734 1.816253 0
M  V30 24 N 1.952200 0.792147 0.361421 0
M  V30 25 N 2.040474 -0.527633 0.352872 0
M  V30 26 H -0.250584 -3.270310 2.333635 0
M  V30 27 H 1.171902 -4.296335 1.922477 0
M  V30 28 H 1.363754 -2.545739 2.159965 0
M  V30 29 H 0.189421 -2.047689 0.092560 0
M  V30 30 H -0.436045 -3.745432 -0.022630 0
M  V30 31 H 1.914003 -4.538987 -0.398065 0
M  V30 32 H 0.468533 -3.907554 -2.290173 0
M  V30 33 H 2.194038 -3.607060 -2.604509 0
M  V30 34 H 0.004727 -1.810517 -2.201118 0
M  V30 35 H 3.611339 -3.022091 0.270219 0
M  V30 36 H 4.462011 -1.176605 -1.749456 0
M  V30 37 H 4.426546 1.342704 -1.848921 0
M  V30 38 H 1.024112 3.807743 1.019294 0
M  V30 39 H 1.315437 -0.244709 2.905862 0
M  V30 40 H -0.512285 -1.067244 4.392484 0
M  V30 41 H -2.808332 -0.055773 4.212750 0
M  V30 42 H -5.692607 1.224695 1.334309 0
M  V30 43 H -4.312673 1.519379 0.128222 0
M  V30 44 H -4.327534 0.071340 1.249808 0
M  V30 45 H -1.318188 2.519488 1.094986 0
M  V30 END ATOM
M  V30 BEGIN BOND
M  V30 1 1 1 2
M  V30 2 1 2 3
M  V30 3 1 3 4
M  V30 4 1 4 5
M  V30 5 1 3 6
M  V30 6 1 6 7
M  V30 7 1 7 8
M  V30 8 2 8 9
M  V30 9 1 9 10
M  V30 10 2 10 11
M  V30 11 1 11 12
M  V30 12 2 12 13
M  V30 13 1 13 14
M  V30 14 2 14 15
M  V30 15 1 15 16
M  V30 16 2 16 17
M  V30 17 1 17 18
M  V30 18 1 18 19
M  V30 19 1 19 20
M  V30 20 2 19 21
M  V30 21 2 19 22
M  V30 22 2 18 23
M  V30 23 1 13 24
M  V30 24 1 24 25
M  V30 25 2 25 7
M  V30 26 1 24 10
M  V30 27 1 23 14
M  V30 28 1 1 26
M  V30 29 1 1 27
M  V30 30 1 1 28
M  V30 31 1 2 29
M  V30 32 1 2 30
M  V30 33 1 3 31 CFG=3
M  V30 34 1 4 32
M  V30 35 1 4 33
M  V30 36 1 5 34
M  V30 37 1 6 35
M  V30 38 1 8 36
M  V30 39 1 9 37
M  V30 40 1 12 38
M  V30 41 1 15 39
M  V30 42 1 16 40
M  V30 43 1 17 41
M  V30 44 1 20 42
M  V30 45 1 20 43
M  V30 46 1 20 44
M  V30 47 1 23 45
M  V30 END BOND
M  V30 END CTAB
M  END
>  <Dataset>  (247) 
ChEMBL_Kinases

>  <Ligand_Instance>  (247) 
nan

>  <PDB_ID>  (247) 
nan

>  <Standardized_SMILES>  (247) 
CC[C@@H](CO)Nc1ccc2ncc(-c3cccc(S(C)(=O)=O)c3)n2n1

>  <Name>  (247) 
nan

>  <Pocket>  (247) 
nan

>  <ATP_Site>  (247) 
nan

>  <Peripheral>  (247) 
nan

>  <Num_H_Atoms_ProtBoundConf>  (247) 
nan

>  <Num_Resolved_Atoms>  (247) 
nan

>  <Num_Not_Resolved_Atoms>  (247) 
nan

$$$$
CHEMBL4084364
     RDKit          3D

  0  0  0  0  0  0  0  0  0  0999 V3000
M  V30 BEGIN CTAB
M  V30 COUNTS 39 41 0 0 0
M  V30 BEGIN ATOM
M  V30 1 C -3.704959 -2.981881 0.318570 0
M  V30 2 C -2.521667 -3.149454 1.266560 0
M  V30 3 C -1.440526 -2.103129 0.984102 0 CFG=1
M  V30 4 C -0.296427 -2.316578 1.950073 0
M  V30 5 O -0.861741 -2.199360 3.231904 0
M  V30 6 N -1.023072 -2.192417 -0.397155 0
M  V30 7 C -0.021482 -1.363028 -1.020931 0
M  V30 8 C 0.330247 -1.501726 -2.348490 0
M  V30 9 C 1.295272 -0.682147 -2.896874 0
M  V30 10 C 1.873822 0.257997 -2.068610 0
M  V30 11 N 2.821714 1.172418 -2.325139 0
M  V30 12 C 3.101499 1.894756 -1.234363 0
M  V30 13 C 2.281727 1.396854 -0.257284 0
M  V30 14 C 2.146491 1.794983 1.142494 0
M  V30 15 C 2.919160 2.828323 1.676542 0
M  V30 16 C 2.833759 3.245179 2.987286 0
M  V30 17 N 1.953775 2.619512 3.800733 0
M  V30 18 C 1.189526 1.607485 3.298416 0
M  V30 19 N 0.259959 0.942033 4.145829 0
M  V30 20 N 1.296365 1.226992 2.022306 0
M  V30 21 N 1.532396 0.395553 -0.772390 0
M  V30 22 N 0.600881 -0.415022 -0.293255 0
M  V30 23 H -3.913829 -1.929061 0.113057 0
M  V30 24 H -4.564821 -3.515867 0.720377 0
M  V30 25 H -3.409658 -3.438849 -0.639885 0
M  V30 26 H -2.105756 -4.161907 1.208731 0
M  V30 27 H -2.904965 -2.970289 2.292350 0
M  V30 28 H -1.895081 -1.117451 1.156468 0
M  V30 29 H 0.410963 -1.480774 1.826363 0
M  V30 30 H 0.150471 -3.306496 1.876145 0
M  V30 31 H -0.415847 -2.827324 3.838245 0
M  V30 32 H -1.475214 -2.920437 -1.027154 0
M  V30 33 H -0.188831 -2.273009 -2.905260 0
M  V30 34 H 1.554612 -0.811117 -3.944596 0
M  V30 35 H 3.793238 2.703291 -1.057441 0
M  V30 36 H 3.620804 3.325238 1.022880 0
M  V30 37 H 3.479765 4.061158 3.310055 0
M  V30 38 H -0.691707 1.297624 3.887613 0
M  V30 39 H 0.576104 0.247121 4.857838 0
M  V30 END ATOM
M  V30 BEGIN BOND
M  V30 1 1 1 2
M  V30 2 1 2 3
M  V30 3 1 3 4
M  V30 4 1 4 5
M  V30 5 1 3 6
M  V30 6 1 6 7
M  V30 7 1 7 8
M  V30 8 2 8 9
M  V30 9 1 9 10
M  V30 10 2 10 11
M  V30 11 1 11 12
M  V30 12 2 12 13
M  V30 13 1 13 14
M  V30 14 2 14 15
M  V30 15 1 15 16
M  V30 16 2 16 17
M  V30 17 1 17 18
M  V30 18 1 18 19
M  V30 19 2 18 20
M  V30 20 1 13 21
M  V30 21 1 21 22
M  V30 22 2 22 7
M  V30 23 1 21 10
M  V30 24 1 20 14
M  V30 25 1 1 23
M  V30 26 1 1 24
M  V30 27 1 1 25
M  V30 28 1 2 26
M  V30 29 1 2 27
M  V30 30 1 3 28 CFG=3
M  V30 31 1 4 29
M  V30 32 1 4 30
M  V30 33 1 5 31
M  V30 34 1 6 32
M  V30 35 1 8 33
M  V30 36 1 9 34
M  V30 37 1 12 35
M  V30 38 1 15 36
M  V30 39 1 16 37
M  V30 40 1 19 38
M  V30 41 1 19 39
M  V30 END BOND
M  V30 END CTAB
M  END
>  <Dataset>  (248) 
ChEMBL_Kinases

>  <Ligand_Instance>  (248) 
nan

>  <PDB_ID>  (248) 
nan

>  <Standardized_SMILES>  (248) 
CC[C@@H](CO)Nc1ccc2ncc(-c3ccnc(N)n3)n2n1

>  <Name>  (248) 
nan

>  <Pocket>  (248) 
nan

>  <ATP_Site>  (248) 
nan

>  <Peripheral>  (248) 
nan

>  <Num_H_Atoms_ProtBoundConf>  (248) 
nan

>  <Num_Resolved_Atoms>  (248) 
nan

>  <Num_Not_Resolved_Atoms>  (248) 
nan

$$$$
CHEMBL3656841
     RDKit          3D

  0  0  0  0  0  0  0  0  0  0999 V3000
M  V30 BEGIN CTAB
M  V30 COUNTS 73 76 0 0 0
M  V30 BEGIN ATOM
M  V30 1 C 2.645731 -3.065115 2.638709 0
M  V30 2 O 3.673460 -3.521056 1.793222 0
M  V30 3 C 3.652608 -2.692065 0.647435 0
M  V30 4 C 4.706430 -3.097867 -0.353952 0 CFG=1
M  V30 5 C 4.668725 -4.586589 -0.526483 0
M  V30 6 N 4.692685 -2.306295 -1.478463 0
M  V30 7 C 3.894398 -2.452616 -2.604731 0 CFG=1
M  V30 8 C 2.430744 -2.625338 -2.456994 0
M  V30 9 C 1.709032 -1.338823 -2.116071 0
M  V30 10 C 1.744886 -0.365074 -3.271910 0 CFG=2
M  V30 11 N 0.463160 -0.306604 -3.948367 0
M  V30 12 C -0.630196 0.156009 -3.197232 0
M  V30 13 C -0.495335 0.603548 -1.900029 0
M  V30 14 C -1.521643 1.030281 -1.090681 0
M  V30 15 C -1.377408 1.535091 0.265771 0
M  V30 16 C -0.161611 1.834622 0.811328 0
M  V30 17 C -0.034438 2.352272 2.108246 0
M  V30 18 C -1.189007 2.562435 2.854363 0
M  V30 19 C -2.402882 2.248794 2.277301 0
M  V30 20 N -3.626095 2.428727 2.968647 0
M  V30 21 C -4.347422 1.749135 3.985588 0
M  V30 22 C -4.685866 0.295879 3.687122 0
M  V30 23 C -5.440222 -0.212475 4.877239 0
M  V30 24 N -6.041013 -0.610161 5.797411 0
M  V30 25 C -5.597287 0.107384 2.533250 0
M  V30 26 C -5.172906 -0.943222 1.537049 0
M  V30 27 O -3.780425 -1.056326 1.423586 0
M  V30 28 C -3.363661 -1.593481 2.635932 0
M  V30 29 C -3.424026 -0.512138 3.674668 0
M  V30 30 N -2.452790 1.764180 1.047327 0
M  V30 31 C -2.794572 0.992050 -1.668730 0
M  V30 32 Cl -4.190954 1.511600 -0.753953 0
M  V30 33 C -2.966726 0.543395 -2.984489 0
M  V30 34 N -1.874750 0.141808 -3.701516 0
M  V30 35 C 2.844253 -0.800574 -4.211284 0
M  V30 36 C 4.066427 -1.112465 -3.387364 0
M  V30 37 H 1.665362 -3.144171 2.094841 0
M  V30 38 H 2.755137 -1.977614 2.851233 0
M  V30 39 H 2.588431 -3.604149 3.586450 0
M  V30 40 H 3.950624 -1.667006 1.053765 0
M  V30 41 H 2.634030 -2.649540 0.318770 0
M  V30 42 H 5.691118 -2.911782 0.185135 0
M  V30 43 H 4.167164 -5.035618 0.364449 0
M  V30 44 H 4.121841 -4.952202 -1.407115 0
M  V30 45 H 5.683988 -5.031869 -0.568289 0
M  V30 46 H 5.575842 -1.806327 -1.745777 0
M  V30 47 H 4.287039 -3.208483 -3.353525 0
M  V30 48 H 1.965439 -2.955749 -3.430944 0
M  V30 49 H 2.115974 -3.381008 -1.735420 0
M  V30 50 H 0.666853 -1.648273 -1.916888 0
M  V30 51 H 2.240249 -0.898803 -1.253399 0
M  V30 52 H 1.987415 0.655525 -2.932234 0
M  V30 53 H 0.320853 -0.585667 -4.941998 0
M  V30 54 H 0.462844 0.662022 -1.407166 0
M  V30 55 H 0.762643 1.700973 0.293554 0
M  V30 56 H 0.928415 2.596699 2.553950 0
M  V30 57 H -1.150709 2.959964 3.856846 0
M  V30 58 H -3.980390 3.325414 2.516918 0
M  V30 59 H -3.842437 1.805839 4.993713 0
M  V30 60 H -5.311599 2.316716 4.138998 0
M  V30 61 H -6.654124 -0.160936 2.837572 0
M  V30 62 H -5.731502 1.082032 1.992296 0
M  V30 63 H -5.506953 -1.958821 1.861460 0
M  V30 64 H -5.624608 -0.775782 0.531426 0
M  V30 65 H -2.311465 -1.960473 2.579014 0
M  V30 66 H -4.010844 -2.477371 2.866989 0
M  V30 67 H -2.529131 0.122857 3.527199 0
M  V30 68 H -3.218550 -1.036043 4.656454 0
M  V30 69 H -3.957523 0.527878 -3.397228 0
M  V30 70 H 3.134572 0.033516 -4.907375 0
M  V30 71 H 2.523540 -1.656743 -4.840810 0
M  V30 72 H 4.281574 -0.288610 -2.695357 0
M  V30 73 H 4.938318 -1.180950 -4.076328 0
M  V30 END ATOM
M  V30 BEGIN BOND
M  V30 1 1 1 2
M  V30 2 1 2 3
M  V30 3 1 3 4
M  V30 4 1 4 5
M  V30 5 1 4 6
M  V30 6 1 6 7
M  V30 7 1 7 8
M  V30 8 1 8 9
M  V30 9 1 9 10
M  V30 10 1 10 11
M  V30 11 1 11 12
M  V30 12 2 12 13
M  V30 13 1 13 14
M  V30 14 1 14 15
M  V30 15 2 15 16
M  V30 16 1 16 17
M  V30 17 2 17 18
M  V30 18 1 18 19
M  V30 19 1 19 20
M  V30 20 1 20 21
M  V30 21 1 21 22
M  V30 22 1 22 23
M  V30 23 3 23 24
M  V30 24 1 22 25
M  V30 25 1 25 26
M  V30 26 1 26 27
M  V30 27 1 27 28
M  V30 28 1 28 29
M  V30 29 2 19 30
M  V30 30 2 14 31
M  V30 31 1 31 32
M  V30 32 1 31 33
M  V30 33 2 33 34
M  V30 34 1 10 35
M  V30 35 1 35 36
M  V30 36 1 36 7
M  V30 37 1 34 12
M  V30 38 1 30 15
M  V30 39 1 29 22
M  V30 40 1 1 37
M  V30 41 1 1 38
M  V30 42 1 1 39
M  V30 43 1 3 40
M  V30 44 1 3 41
M  V30 45 1 4 42 CFG=1
M  V30 46 1 5 43
M  V30 47 1 5 44
M  V30 48 1 5 45
M  V30 49 1 6 46
M  V30 50 1 7 47 CFG=3
M  V30 51 1 8 48
M  V30 52 1 8 49
M  V30 53 1 9 50
M  V30 54 1 9 51
M  V30 55 1 10 52 CFG=1
M  V30 56 1 11 53
M  V30 57 1 13 54
M  V30 58 1 16 55
M  V30 59 1 17 56
M  V30 60 1 18 57
M  V30 61 1 20 58
M  V30 62 1 21 59
M  V30 63 1 21 60
M  V30 64 1 25 61
M  V30 65 1 25 62
M  V30 66 1 26 63
M  V30 67 1 26 64
M  V30 68 1 28 65
M  V30 69 1 28 66
M  V30 70 1 29 67
M  V30 71 1 29 68
M  V30 72 1 33 69
M  V30 73 1 35 70
M  V30 74 1 35 71
M  V30 75 1 36 72
M  V30 76 1 36 73
M  V30 END BOND
M  V30 END CTAB
M  END
>  <Dataset>  (249) 
ChEMBL_Kinases

>  <Ligand_Instance>  (249) 
nan

>  <PDB_ID>  (249) 
nan

>  <Standardized_SMILES>  (249) 
COC[C@@H](C)N[C@H]1CC[C@H](Nc2cc(-c3cccc(NCC4(C#N)CCOCC4)n3)c(Cl)cn2)CC1

>  <Name>  (249) 
nan

>  <Pocket>  (249) 
nan

>  <ATP_Site>  (249) 
nan

>  <Peripheral>  (249) 
nan

>  <Num_H_Atoms_ProtBoundConf>  (249) 
nan

>  <Num_Resolved_Atoms>  (249) 
nan

>  <Num_Not_Resolved_Atoms>  (249) 
nan

$$$$
CHEMBL2064666
     RDKit          3D

  0  0  0  0  0  0  0  0  0  0999 V3000
M  V30 BEGIN CTAB
M  V30 COUNTS 73 78 0 0 0
M  V30 BEGIN ATOM
M  V30 1 C 2.273741 -3.539715 -2.161258 0
M  V30 2 O 3.130128 -2.456653 -1.949092 0
M  V30 3 C 2.908489 -1.411567 -1.094215 0
M  V30 4 C 2.225827 -0.300552 -1.607375 0
M  V30 5 N 1.741895 -0.240596 -2.970321 0
M  V30 6 C 1.056192 0.959302 -3.356436 0
M  V30 7 N 1.533515 1.999016 -4.047765 0
M  V30 8 C 0.820608 3.094190 -4.334689 0
M  V30 9 C -0.468811 3.035447 -3.837015 0
M  V30 10 Cl -1.409553 4.468288 -4.189434 0
M  V30 11 C -1.041879 2.012881 -3.119953 0
M  V30 12 N -2.358629 2.012939 -2.612318 0
M  V30 13 C -3.558449 2.748697 -2.507599 0 CFG=1
M  V30 14 C -4.327863 3.003140 -3.776648 0 CFG=1
M  V30 15 C -3.987234 2.140592 -4.905603 0
M  V30 16 N -4.784997 2.393314 -6.082244 0
M  V30 17 O -3.319977 1.235097 -5.414912 0
M  V30 18 C -5.749202 2.630866 -3.370595 0 CFG=2
M  V30 19 C -6.138999 3.567323 -2.280266 0
M  V30 20 C -5.506394 3.217330 -1.158531 0
M  V30 21 C -4.577518 2.148499 -1.558615 0 CFG=1
M  V30 22 C -5.448239 1.383680 -2.559320 0
M  V30 23 N -0.203779 0.985464 -2.913258 0
M  V30 24 C 1.979093 0.792282 -0.769291 0
M  V30 25 C 2.373825 0.848306 0.560914 0
M  V30 26 C 3.030617 -0.258884 1.000451 0
M  V30 27 C 3.324112 -1.396976 0.243518 0
M  V30 28 C 4.023330 -2.660782 0.591459 0
M  V30 29 C 3.856107 -2.953199 2.082009 0
M  V30 30 C 2.531069 -2.488714 2.592240 0 CFG=1
M  V30 31 N 1.864520 -3.480155 3.349907 0
M  V30 32 C 2.486624 -3.973378 4.516989 0
M  V30 33 C 1.555851 -4.095979 5.701448 0
M  V30 34 O 0.784033 -2.955128 5.758720 0
M  V30 35 C -0.120451 -2.908826 4.718765 0
M  V30 36 C 0.439347 -3.335852 3.408804 0
M  V30 37 C 2.603128 -1.140734 3.271009 0
M  V30 38 C 3.427273 -0.159461 2.433267 0
M  V30 39 H 1.957184 -3.532389 -3.242543 0
M  V30 40 H 2.808153 -4.514342 -1.961826 0
M  V30 41 H 1.373919 -3.528261 -1.508375 0
M  V30 42 H 1.920588 -1.065501 -3.584925 0
M  V30 43 H 1.228207 3.917801 -4.892119 0
M  V30 44 H -2.553744 1.092284 -2.100731 0
M  V30 45 H -3.336032 3.766101 -2.030928 0
M  V30 46 H -4.290977 4.090081 -4.046725 0
M  V30 47 H -5.564376 1.990240 -6.656515 0
M  V30 48 H -4.419029 3.318032 -6.463231 0
M  V30 49 H -6.449388 2.514368 -4.181037 0
M  V30 50 H -6.851793 4.385345 -2.488419 0
M  V30 51 H -5.777688 3.743874 -0.244114 0
M  V30 52 H -4.172389 1.512934 -0.779178 0
M  V30 53 H -6.343112 0.946778 -2.081198 0
M  V30 54 H -4.847230 0.649760 -3.139861 0
M  V30 55 H 1.450574 1.668977 -1.143425 0
M  V30 56 H 2.171866 1.699246 1.179872 0
M  V30 57 H 3.623081 -3.517669 0.046568 0
M  V30 58 H 5.119421 -2.544932 0.420321 0
M  V30 59 H 3.894176 -4.052661 2.217164 0
M  V30 60 H 4.717838 -2.533701 2.644621 0
M  V30 61 H 1.891958 -2.327261 1.672029 0
M  V30 62 H 2.862525 -5.009722 4.328184 0
M  V30 63 H 3.370817 -3.400586 4.855373 0
M  V30 64 H 0.963456 -5.039479 5.589673 0
M  V30 65 H 2.174721 -4.135337 6.638807 0
M  V30 66 H -0.566901 -1.881250 4.688415 0
M  V30 67 H -0.984498 -3.569364 5.027593 0
M  V30 68 H -0.051975 -4.297486 3.107605 0
M  V30 69 H 0.118885 -2.586782 2.644999 0
M  V30 70 H 1.597846 -0.673377 3.334337 0
M  V30 71 H 3.037334 -1.142541 4.271321 0
M  V30 72 H 3.142167 0.852358 2.780563 0
M  V30 73 H 4.504169 -0.276598 2.596813 0
M  V30 END ATOM
M  V30 BEGIN BOND
M  V30 1 1 1 2
M  V30 2 1 2 3
M  V30 3 2 3 4
M  V30 4 1 4 5
M  V30 5 1 5 6
M  V30 6 2 6 7
M  V30 7 1 7 8
M  V30 8 2 8 9
M  V30 9 1 9 10
M  V30 10 1 9 11
M  V30 11 1 11 12
M  V30 12 1 12 13
M  V30 13 1 13 14
M  V30 14 1 14 15
M  V30 15 1 15 16
M  V30 16 2 15 17
M  V30 17 1 14 18
M  V30 18 1 18 19
M  V30 19 2 19 20
M  V30 20 1 20 21
M  V30 21 1 21 22
M  V30 22 2 11 23
M  V30 23 1 4 24
M  V30 24 2 24 25
M  V30 25 1 25 26
M  V30 26 2 26 27
M  V30 27 1 27 28
M  V30 28 1 28 29
M  V30 29 1 29 30
M  V30 30 1 30 31
M  V30 31 1 31 32
M  V30 32 1 32 33
M  V30 33 1 33 34
M  V30 34 1 34 35
M  V30 35 1 35 36
M  V30 36 1 30 37
M  V30 37 1 37 38
M  V30 38 1 27 3
M  V30 39 1 36 31
M  V30 40 1 23 6
M  V30 41 1 38 26
M  V30 42 1 21 13
M  V30 43 1 22 18
M  V30 44 1 1 39
M  V30 45 1 1 40
M  V30 46 1 1 41
M  V30 47 1 5 42
M  V30 48 1 8 43
M  V30 49 1 12 44
M  V30 50 1 13 45 CFG=1
M  V30 51 1 14 46 CFG=3
M  V30 52 1 16 47
M  V30 53 1 16 48
M  V30 54 1 18 49 CFG=3
M  V30 55 1 19 50
M  V30 56 1 20 51
M  V30 57 1 21 52 CFG=1
M  V30 58 1 22 53
M  V30 59 1 22 54
M  V30 60 1 24 55
M  V30 61 1 25 56
M  V30 62 1 28 57
M  V30 63 1 28 58
M  V30 64 1 29 59
M  V30 65 1 29 60
M  V30 66 1 30 61 CFG=3
M  V30 67 1 32 62
M  V30 68 1 32 63
M  V30 69 1 33 64
M  V30 70 1 33 65
M  V30 71 1 35 66
M  V30 72 1 35 67
M  V30 73 1 36 68
M  V30 74 1 36 69
M  V30 75 1 37 70
M  V30 76 1 37 71
M  V30 77 1 38 72
M  V30 78 1 38 73
M  V30 END BOND
M  V30 END CTAB
M  END
>  <Dataset>  (250) 
ChEMBL_Kinases

>  <Ligand_Instance>  (250) 
nan

>  <PDB_ID>  (250) 
nan

>  <Standardized_SMILES>  (250) 
COc1c(Nc2ncc(Cl)c(N[C@H]3[C@@H](C(N)=O)[C@@H]4C=C[C@H]3C4)n2)ccc2c1CC[C@@H](N1CCOCC1)CC2

>  <Name>  (250) 
nan

>  <Pocket>  (250) 
nan

>  <ATP_Site>  (250) 
nan

>  <Peripheral>  (250) 
nan

>  <Num_H_Atoms_ProtBoundConf>  (250) 
nan

>  <Num_Resolved_Atoms>  (250) 
nan

>  <Num_Not_Resolved_Atoms>  (250) 
nan

$$$$
CHEMBL4069158
     RDKit          3D

  0  0  0  0  0  0  0  0  0  0999 V3000
M  V30 BEGIN CTAB
M  V30 COUNTS 31 33 0 0 0
M  V30 BEGIN ATOM
M  V30 1 C -0.263702 -2.967701 4.463345 0
M  V30 2 S -1.444597 -2.998926 3.099082 0
M  V30 3 C -0.540210 -3.215719 1.562647 0
M  V30 4 C -0.233418 -4.432933 0.991174 0
M  V30 5 C 0.470339 -4.382299 -0.194738 0
M  V30 6 C 0.815570 -3.155665 -0.723638 0
M  V30 7 N 1.489661 -2.856079 -1.848510 0
M  V30 8 C 1.594666 -1.509313 -1.966560 0
M  V30 9 C 0.967772 -0.953464 -0.883749 0
M  V30 10 C 0.751756 0.439122 -0.457788 0
M  V30 11 C 1.874345 1.253567 -0.560379 0
M  V30 12 C 1.736463 2.579424 -0.173923 0
M  V30 13 C 0.540622 3.121346 0.304927 0
M  V30 14 C -0.560174 2.265084 0.390423 0
M  V30 15 C -1.883414 2.764486 0.893982 0
M  V30 16 F -2.054138 2.287476 2.180011 0
M  V30 17 F -1.938473 4.123365 0.921401 0
M  V30 18 F -2.855389 2.186349 0.102908 0
M  V30 19 C -0.427239 0.949594 0.008074 0
M  V30 20 N 0.492225 -1.985151 -0.126273 0
M  V30 21 N -0.183485 -2.043963 1.011921 0
M  V30 22 H 0.791710 -3.016301 4.089519 0
M  V30 23 H -0.449072 -3.854909 5.103543 0
M  V30 24 H -0.385842 -2.063116 5.101326 0
M  V30 25 H -0.568815 -5.315989 1.518574 0
M  V30 26 H 0.715399 -5.331830 -0.650268 0
M  V30 27 H 2.055188 -0.915535 -2.717913 0
M  V30 28 H 2.825692 0.881001 -0.925958 0
M  V30 29 H 2.623373 3.215433 -0.256972 0
M  V30 30 H 0.466502 4.151947 0.596012 0
M  V30 31 H -1.268678 0.256386 0.063268 0
M  V30 END ATOM
M  V30 BEGIN BOND
M  V30 1 1 1 2
M  V30 2 1 2 3
M  V30 3 1 3 4
M  V30 4 2 4 5
M  V30 5 1 5 6
M  V30 6 2 6 7
M  V30 7 1 7 8
M  V30 8 2 8 9
M  V30 9 1 9 10
M  V30 10 2 10 11
M  V30 11 1 11 12
M  V30 12 2 12 13
M  V30 13 1 13 14
M  V30 14 1 14 15
M  V30 15 1 15 16
M  V30 16 1 15 17
M  V30 17 1 15 18
M  V30 18 2 14 19
M  V30 19 1 9 20
M  V30 20 1 20 21
M  V30 21 2 21 3
M  V30 22 1 20 6
M  V30 23 1 19 10
M  V30 24 1 1 22
M  V30 25 1 1 23
M  V30 26 1 1 24
M  V30 27 1 4 25
M  V30 28 1 5 26
M  V30 29 1 8 27
M  V30 30 1 11 28
M  V30 31 1 12 29
M  V30 32 1 13 30
M  V30 33 1 19 31
M  V30 END BOND
M  V30 END CTAB
M  END
>  <Dataset>  (251) 
ChEMBL_Kinases

>  <Ligand_Instance>  (251) 
nan

>  <PDB_ID>  (251) 
nan

>  <Standardized_SMILES>  (251) 
CSc1ccc2ncc(-c3cccc(C(F)(F)F)c3)n2n1

>  <Name>  (251) 
nan

>  <Pocket>  (251) 
nan

>  <ATP_Site>  (251) 
nan

>  <Peripheral>  (251) 
nan

>  <Num_H_Atoms_ProtBoundConf>  (251) 
nan

>  <Num_Resolved_Atoms>  (251) 
nan

>  <Num_Not_Resolved_Atoms>  (251) 
nan

$$$$
CHEMBL4100956
     RDKit          3D

  0  0  0  0  0  0  0  0  0  0999 V3000
M  V30 BEGIN CTAB
M  V30 COUNTS 38 40 0 0 0
M  V30 BEGIN ATOM
M  V30 1 C -1.854059 -4.864223 1.145291 0
M  V30 2 C -0.415346 -4.571887 0.867590 0
M  V30 3 C -0.093227 -3.085901 0.823018 0 CFG=1
M  V30 4 C 1.393545 -2.979866 0.533440 0
M  V30 5 O 1.762914 -1.660266 0.552672 0
M  V30 6 N -0.920672 -2.402419 -0.118475 0
M  V30 7 C -1.020218 -1.000866 -0.453737 0
M  V30 8 C -1.907392 -0.575038 -1.449355 0
M  V30 9 C -2.003182 0.759657 -1.754638 0
M  V30 10 C -1.229068 1.666490 -1.082048 0
M  V30 11 N -1.150143 3.022033 -1.202099 0
M  V30 12 C -0.241508 3.475697 -0.315529 0
M  V30 13 C 0.218918 2.334321 0.338813 0
M  V30 14 C 1.226452 2.455804 1.386455 0
M  V30 15 C 2.369497 1.704981 1.564067 0
M  V30 16 C 3.218630 1.953138 2.622555 0
M  V30 17 C 2.984731 2.947152 3.552037 0
M  V30 18 N 1.867458 3.676783 3.373281 0
M  V30 19 C 1.023139 3.454543 2.349131 0
M  V30 20 N -0.396798 1.239683 -0.144079 0
M  V30 21 N -0.303038 -0.038491 0.150252 0
M  V30 22 H -2.061547 -4.857754 2.247762 0
M  V30 23 H -2.575129 -4.182171 0.681976 0
M  V30 24 H -2.056563 -5.895858 0.782996 0
M  V30 25 H 0.186809 -4.986002 1.688126 0
M  V30 26 H -0.155592 -5.060327 -0.102154 0
M  V30 27 H -0.239654 -2.697994 1.854396 0
M  V30 28 H 1.907587 -3.530070 1.331931 0
M  V30 29 H 1.582826 -3.397340 -0.465257 0
M  V30 30 H 2.731021 -1.523232 0.456080 0
M  V30 31 H -1.582947 -3.022321 -0.675888 0
M  V30 32 H -2.524389 -1.308155 -1.983871 0
M  V30 33 H -2.698002 1.045757 -2.527142 0
M  V30 34 H -0.014350 4.516702 -0.232558 0
M  V30 35 H 2.523933 0.945400 0.826327 0
M  V30 36 H 4.091025 1.328112 2.698539 0
M  V30 37 H 3.645800 3.147729 4.384406 0
M  V30 38 H 0.183259 4.145063 2.377873 0
M  V30 END ATOM
M  V30 BEGIN BOND
M  V30 1 1 1 2
M  V30 2 1 2 3
M  V30 3 1 3 4
M  V30 4 1 4 5
M  V30 5 1 3 6
M  V30 6 1 6 7
M  V30 7 1 7 8
M  V30 8 2 8 9
M  V30 9 1 9 10
M  V30 10 2 10 11
M  V30 11 1 11 12
M  V30 12 2 12 13
M  V30 13 1 13 14
M  V30 14 2 14 15
M  V30 15 1 15 16
M  V30 16 2 16 17
M  V30 17 1 17 18
M  V30 18 2 18 19
M  V30 19 1 13 20
M  V30 20 1 20 21
M  V30 21 2 21 7
M  V30 22 1 20 10
M  V30 23 1 19 14
M  V30 24 1 1 22
M  V30 25 1 1 23
M  V30 26 1 1 24
M  V30 27 1 2 25
M  V30 28 1 2 26
M  V30 29 1 3 27 CFG=1
M  V30 30 1 4 28
M  V30 31 1 4 29
M  V30 32 1 5 30
M  V30 33 1 6 31
M  V30 34 1 8 32
M  V30 35 1 9 33
M  V30 36 1 12 34
M  V30 37 1 15 35
M  V30 38 1 16 36
M  V30 39 1 17 37
M  V30 40 1 19 38
M  V30 END BOND
M  V30 END CTAB
M  END
>  <Dataset>  (252) 
ChEMBL_Kinases

>  <Ligand_Instance>  (252) 
nan

>  <PDB_ID>  (252) 
nan

>  <Standardized_SMILES>  (252) 
CC[C@@H](CO)Nc1ccc2ncc(-c3cccnc3)n2n1

>  <Name>  (252) 
nan

>  <Pocket>  (252) 
nan

>  <ATP_Site>  (252) 
nan

>  <Peripheral>  (252) 
nan

>  <Num_H_Atoms_ProtBoundConf>  (252) 
nan

>  <Num_Resolved_Atoms>  (252) 
nan

>  <Num_Not_Resolved_Atoms>  (252) 
nan

$$$$
CHEMBL4089652
     RDKit          3D

  0  0  0  0  0  0  0  0  0  0999 V3000
M  V30 BEGIN CTAB
M  V30 COUNTS 43 45 0 0 0
M  V30 BEGIN ATOM
M  V30 1 C -0.556454 -3.776921 1.357556 0
M  V30 2 C -0.175919 -2.933577 0.158642 0
M  V30 3 C -1.466223 -2.461402 -0.498224 0 CFG=1
M  V30 4 C -2.232846 -1.648949 0.522175 0
M  V30 5 O -3.458448 -1.300776 -0.038892 0
M  V30 6 N -1.220167 -1.751600 -1.713647 0
M  V30 7 C -0.440659 -0.556016 -1.749876 0
M  V30 8 C -0.196681 0.143915 -2.935438 0
M  V30 9 C 0.549309 1.298798 -3.002533 0
M  V30 10 C 1.088994 1.798069 -1.836776 0
M  V30 11 N 1.843890 2.852518 -1.485623 0
M  V30 12 C 2.063824 2.819069 -0.151277 0
M  V30 13 C 1.416654 1.696069 0.339515 0
M  V30 14 C 1.524065 1.465765 1.773902 0
M  V30 15 C 1.333752 2.531361 2.655174 0
M  V30 16 C 1.411673 2.440765 4.037892 0
M  V30 17 C 1.698811 1.203679 4.576393 0
M  V30 18 C 1.890430 0.137883 3.723566 0
M  V30 19 S 2.257333 -1.412512 4.529245 0
M  V30 20 C 2.485404 -2.700743 3.274177 0
M  V30 21 C 1.809065 0.246385 2.351737 0
M  V30 22 N 0.839168 1.105536 -0.710496 0
M  V30 23 N 0.117985 -0.012814 -0.638978 0
M  V30 24 H -0.756271 -3.046864 2.184925 0
M  V30 25 H 0.245015 -4.484619 1.641996 0
M  V30 26 H -1.511316 -4.292704 1.100069 0
M  V30 27 H 0.411367 -2.067420 0.523065 0
M  V30 28 H 0.470996 -3.490308 -0.527137 0
M  V30 29 H -2.102602 -3.341000 -0.729621 0
M  V30 30 H -1.675121 -0.829692 0.970605 0
M  V30 31 H -2.490576 -2.363831 1.352627 0
M  V30 32 H -4.131402 -1.115083 0.668717 0
M  V30 33 H -1.598698 -2.073769 -2.631948 0
M  V30 34 H -0.618982 -0.243059 -3.860961 0
M  V30 35 H 0.723600 1.821639 -3.931954 0
M  V30 36 H 2.675202 3.645906 0.231499 0
M  V30 37 H 1.107443 3.511723 2.256853 0
M  V30 38 H 1.255132 3.296301 4.657967 0
M  V30 39 H 1.761349 1.125072 5.656423 0
M  V30 40 H 3.559019 -2.775359 2.960200 0
M  V30 41 H 1.853169 -2.530522 2.379713 0
M  V30 42 H 2.250300 -3.702503 3.737288 0
M  V30 43 H 1.964383 -0.607790 1.710253 0
M  V30 END ATOM
M  V30 BEGIN BOND
M  V30 1 1 1 2
M  V30 2 1 2 3
M  V30 3 1 3 4
M  V30 4 1 4 5
M  V30 5 1 3 6
M  V30 6 1 6 7
M  V30 7 1 7 8
M  V30 8 2 8 9
M  V30 9 1 9 10
M  V30 10 2 10 11
M  V30 11 1 11 12
M  V30 12 2 12 13
M  V30 13 1 13 14
M  V30 14 2 14 15
M  V30 15 1 15 16
M  V30 16 2 16 17
M  V30 17 1 17 18
M  V30 18 1 18 19
M  V30 19 1 19 20
M  V30 20 2 18 21
M  V30 21 1 13 22
M  V30 22 1 22 23
M  V30 23 2 23 7
M  V30 24 1 22 10
M  V30 25 1 21 14
M  V30 26 1 1 24
M  V30 27 1 1 25
M  V30 28 1 1 26
M  V30 29 1 2 27
M  V30 30 1 2 28
M  V30 31 1 3 29 CFG=3
M  V30 32 1 4 30
M  V30 33 1 4 31
M  V30 34 1 5 32
M  V30 35 1 6 33
M  V30 36 1 8 34
M  V30 37 1 9 35
M  V30 38 1 12 36
M  V30 39 1 15 37
M  V30 40 1 16 38
M  V30 41 1 17 39
M  V30 42 1 20 40
M  V30 43 1 20 41
M  V30 44 1 20 42
M  V30 45 1 21 43
M  V30 END BOND
M  V30 END CTAB
M  END
>  <Dataset>  (253) 
ChEMBL_Kinases

>  <Ligand_Instance>  (253) 
nan

>  <PDB_ID>  (253) 
nan

>  <Standardized_SMILES>  (253) 
CC[C@@H](CO)Nc1ccc2ncc(-c3cccc(SC)c3)n2n1

>  <Name>  (253) 
nan

>  <Pocket>  (253) 
nan

>  <ATP_Site>  (253) 
nan

>  <Peripheral>  (253) 
nan

>  <Num_H_Atoms_ProtBoundConf>  (253) 
nan

>  <Num_Resolved_Atoms>  (253) 
nan

>  <Num_Not_Resolved_Atoms>  (253) 
nan

$$$$
CHEMBL5093650
     RDKit          3D

  0  0  0  0  0  0  0  0  0  0999 V3000
M  V30 BEGIN CTAB
M  V30 COUNTS 43 46 0 0 0
M  V30 BEGIN ATOM
M  V30 1 C 2.258036 -4.809383 3.120978 0
M  V30 2 C 1.231109 -4.016318 2.399264 0
M  V30 3 N 1.460949 -2.715071 2.259792 0
M  V30 4 C 0.639290 -1.858452 1.636118 0
M  V30 5 N 0.830522 -0.484856 1.372773 0
M  V30 6 C 1.055665 0.882639 1.131529 0
M  V30 7 C 2.337369 1.252208 0.460983 0
M  V30 8 C 3.493637 1.224608 1.247005 0
M  V30 9 F 3.544341 0.893353 2.559214 0
M  V30 10 C 4.738727 1.555504 0.701896 0
M  V30 11 C 4.848440 1.918465 -0.634020 0
M  V30 12 C 3.690323 1.933986 -1.374490 0
M  V30 13 C 2.441364 1.614981 -0.877659 0
M  V30 14 F 1.308395 1.632510 -1.610453 0
M  V30 15 C -0.506279 -2.413298 1.126392 0
M  V30 16 C -1.592449 -1.925820 0.446498 0
M  V30 17 C -1.984360 -0.584903 0.060733 0
M  V30 18 C -2.199004 -0.038310 -1.186288 0
M  V30 19 C -2.633001 1.264315 -1.311770 0
M  V30 20 N -2.853264 2.020977 -0.217059 0
M  V30 21 C -2.655499 1.524468 1.018949 0
M  V30 22 N -2.902069 2.365868 2.162819 0
M  V30 23 C -2.215455 0.207607 1.196529 0
M  V30 24 C -2.510063 -2.925949 0.148753 0
M  V30 25 N -1.991933 -4.082054 0.658417 0
M  V30 26 C -0.820048 -3.748564 1.225502 0
M  V30 27 N 0.097195 -4.471039 1.872337 0
M  V30 28 H 3.261392 -4.641055 2.673174 0
M  V30 29 H 2.305013 -4.534818 4.205705 0
M  V30 30 H 2.056681 -5.887062 3.002518 0
M  V30 31 H 1.736537 -0.360420 1.925316 0
M  V30 32 H 0.818298 1.571403 1.983983 0
M  V30 33 H 0.254944 1.206063 0.366738 0
M  V30 34 H 5.655793 1.546567 1.276322 0
M  V30 35 H 5.788514 2.182061 -1.097746 0
M  V30 36 H 3.650477 2.201533 -2.428083 0
M  V30 37 H -1.984808 -0.752349 -1.988955 0
M  V30 38 H -2.771099 1.596623 -2.351916 0
M  V30 39 H -3.205816 1.995478 3.097165 0
M  V30 40 H -2.783136 3.398129 2.095986 0
M  V30 41 H -2.089224 -0.088028 2.241880 0
M  V30 42 H -3.451200 -2.974731 -0.350590 0
M  V30 43 H -2.379338 -5.056248 0.642550 0
M  V30 END ATOM
M  V30 BEGIN BOND
M  V30 1 1 1 2
M  V30 2 2 2 3
M  V30 3 1 3 4
M  V30 4 1 4 5
M  V30 5 1 5 6
M  V30 6 1 6 7
M  V30 7 2 7 8
M  V30 8 1 8 9
M  V30 9 1 8 10
M  V30 10 2 10 11
M  V30 11 1 11 12
M  V30 12 2 12 13
M  V30 13 1 13 14
M  V30 14 2 4 15
M  V30 15 1 15 16
M  V30 16 1 16 17
M  V30 17 2 17 18
M  V30 18 1 18 19
M  V30 19 2 19 20
M  V30 20 1 20 21
M  V30 21 1 21 22
M  V30 22 2 21 23
M  V30 23 2 16 24
M  V30 24 1 24 25
M  V30 25 1 25 26
M  V30 26 2 26 27
M  V30 27 1 27 2
M  V30 28 1 13 7
M  V30 29 1 26 15
M  V30 30 1 23 17
M  V30 31 1 1 28
M  V30 32 1 1 29
M  V30 33 1 1 30
M  V30 34 1 5 31
M  V30 35 1 6 32
M  V30 36 1 6 33
M  V30 37 1 10 34
M  V30 38 1 11 35
M  V30 39 1 12 36
M  V30 40 1 18 37
M  V30 41 1 19 38
M  V30 42 1 22 39
M  V30 43 1 22 40
M  V30 44 1 23 41
M  V30 45 1 24 42
M  V30 46 1 25 43
M  V30 END BOND
M  V30 END CTAB
M  END
>  <Dataset>  (254) 
ChEMBL_Kinases

>  <Ligand_Instance>  (254) 
nan

>  <PDB_ID>  (254) 
nan

>  <Standardized_SMILES>  (254) 
Cc1nc(NCc2c(F)cccc2F)c2c(-c3ccnc(N)c3)c[nH]c2n1

>  <Name>  (254) 
nan

>  <Pocket>  (254) 
nan

>  <ATP_Site>  (254) 
nan

>  <Peripheral>  (254) 
nan

>  <Num_H_Atoms_ProtBoundConf>  (254) 
nan

>  <Num_Resolved_Atoms>  (254) 
nan

>  <Num_Not_Resolved_Atoms>  (254) 
nan

$$$$
CHEMBL4062820
     RDKit          3D

  0  0  0  0  0  0  0  0  0  0999 V3000
M  V30 BEGIN CTAB
M  V30 COUNTS 43 46 0 0 0
M  V30 BEGIN ATOM
M  V30 1 C -1.177443 -5.277060 -0.580331 0
M  V30 2 C -0.137820 -4.351990 -0.032761 0
M  V30 3 C 0.085641 -3.204531 -0.944187 0 CFG=1
M  V30 4 C -1.111547 -2.360087 -1.156205 0
M  V30 5 O -0.911289 -1.442223 -2.224622 0
M  V30 6 N 1.290813 -2.443545 -0.610072 0
M  V30 7 C 1.813529 -1.218836 -1.113405 0
M  V30 8 C 2.481224 -0.849369 -2.253393 0
M  V30 9 C 2.834400 0.475061 -2.353745 0
M  V30 10 C 2.575532 1.444079 -1.414726 0
M  V30 11 N 2.806076 2.748329 -1.289758 0
M  V30 12 C 2.285385 3.148880 -0.092770 0
M  V30 13 C 1.723346 2.073645 0.534316 0
M  V30 14 C 1.023779 1.926629 1.830449 0
M  V30 15 C 0.714445 2.934089 2.717495 0
M  V30 16 C 0.056008 2.367192 3.802296 0
M  V30 17 C -0.496507 2.804219 4.987684 0
M  V30 18 C -1.105070 1.956866 5.901372 0
M  V30 19 C -1.140023 0.613877 5.571128 0
M  V30 20 C -0.610513 0.059801 4.395068 0
M  V30 21 C -0.025090 1.019676 3.557873 0
M  V30 22 N 0.560614 0.778068 2.371371 0
M  V30 23 N 1.913196 1.009101 -0.312170 0
M  V30 24 N 1.569511 -0.259676 -0.207206 0
M  V30 25 H -1.513568 -5.951864 0.256268 0
M  V30 26 H -2.073332 -4.837347 -0.998217 0
M  V30 27 H -0.697925 -5.999370 -1.304750 0
M  V30 28 H 0.815068 -4.960386 0.036570 0
M  V30 29 H -0.467093 -4.053902 0.989402 0
M  V30 30 H 0.374286 -3.681366 -1.949528 0
M  V30 31 H -1.302407 -1.697083 -0.279412 0
M  V30 32 H -2.034774 -2.914344 -1.370579 0
M  V30 33 H -1.691701 -1.442209 -2.837751 0
M  V30 34 H 1.909658 -2.852908 0.150144 0
M  V30 35 H 2.626408 -1.674504 -2.903361 0
M  V30 36 H 3.363381 0.725628 -3.280727 0
M  V30 37 H 2.286747 4.137342 0.340254 0
M  V30 38 H 0.928871 3.973406 2.616263 0
M  V30 39 H -0.431130 3.874603 5.184976 0
M  V30 40 H -1.534456 2.305516 6.825179 0
M  V30 41 H -1.598500 -0.145392 6.224312 0
M  V30 42 H -0.659292 -0.988893 4.180927 0
M  V30 43 H 0.656529 -0.148501 1.925121 0
M  V30 END ATOM
M  V30 BEGIN BOND
M  V30 1 1 1 2
M  V30 2 1 2 3
M  V30 3 1 3 4
M  V30 4 1 4 5
M  V30 5 1 3 6
M  V30 6 1 6 7
M  V30 7 1 7 8
M  V30 8 2 8 9
M  V30 9 1 9 10
M  V30 10 2 10 11
M  V30 11 1 11 12
M  V30 12 2 12 13
M  V30 13 1 13 14
M  V30 14 2 14 15
M  V30 15 1 15 16
M  V30 16 2 16 17
M  V30 17 1 17 18
M  V30 18 2 18 19
M  V30 19 1 19 20
M  V30 20 2 20 21
M  V30 21 1 21 22
M  V30 22 1 13 23
M  V30 23 1 23 24
M  V30 24 2 24 7
M  V30 25 1 23 10
M  V30 26 1 22 14
M  V30 27 1 21 16
M  V30 28 1 1 25
M  V30 29 1 1 26
M  V30 30 1 1 27
M  V30 31 1 2 28
M  V30 32 1 2 29
M  V30 33 1 3 30 CFG=3
M  V30 34 1 4 31
M  V30 35 1 4 32
M  V30 36 1 5 33
M  V30 37 1 6 34
M  V30 38 1 8 35
M  V30 39 1 9 36
M  V30 40 1 12 37
M  V30 41 1 15 38
M  V30 42 1 17 39
M  V30 43 1 18 40
M  V30 44 1 19 41
M  V30 45 1 20 42
M  V30 46 1 22 43
M  V30 END BOND
M  V30 END CTAB
M  END
>  <Dataset>  (255) 
ChEMBL_Kinases

>  <Ligand_Instance>  (255) 
nan

>  <PDB_ID>  (255) 
nan

>  <Standardized_SMILES>  (255) 
CC[C@@H](CO)Nc1ccc2ncc(-c3cc4ccccc4[nH]3)n2n1

>  <Name>  (255) 
nan

>  <Pocket>  (255) 
nan

>  <ATP_Site>  (255) 
nan

>  <Peripheral>  (255) 
nan

>  <Num_H_Atoms_ProtBoundConf>  (255) 
nan

>  <Num_Resolved_Atoms>  (255) 
nan

>  <Num_Not_Resolved_Atoms>  (255) 
nan

$$$$
CHEMBL4089542
     RDKit          3D

  0  0  0  0  0  0  0  0  0  0999 V3000
M  V30 BEGIN CTAB
M  V30 COUNTS 26 28 0 0 0
M  V30 BEGIN ATOM
M  V30 1 N -2.143143 -4.185100 1.221453 0
M  V30 2 C -1.307670 -3.075928 1.531952 0
M  V30 3 C -1.085533 -2.712761 2.845731 0
M  V30 4 C -0.309302 -1.672172 3.315072 0
M  V30 5 C 0.317776 -0.907187 2.329368 0
M  V30 6 C 0.128739 -1.228077 0.997899 0
M  V30 7 C 0.791515 -0.419433 -0.042108 0
M  V30 8 C 1.449564 -0.954385 -1.133028 0
M  V30 9 N 1.891714 0.135882 -1.802878 0
M  V30 10 C 1.506051 1.246006 -1.128831 0
M  V30 11 C 1.749690 2.582469 -1.465926 0
M  V30 12 C 1.204123 3.477021 -0.541845 0
M  V30 13 C 0.500006 3.107108 0.584422 0
M  V30 14 Cl -0.110538 4.369449 1.629955 0
M  V30 15 N 0.315882 1.795785 0.826046 0
M  V30 16 N 0.815843 0.926838 -0.022937 0
M  V30 17 C -0.662701 -2.285738 0.579173 0
M  V30 18 H -1.712680 -5.130055 1.291476 0
M  V30 19 H -3.086774 -3.823283 0.966528 0
M  V30 20 H -1.589254 -3.329081 3.604451 0
M  V30 21 H -0.229236 -1.508500 4.380136 0
M  V30 22 H 0.932734 -0.085167 2.658008 0
M  V30 23 H 1.552782 -1.997714 -1.345932 0
M  V30 24 H 2.291546 2.932976 -2.329755 0
M  V30 25 H 1.373989 4.538827 -0.771244 0
M  V30 26 H -0.809161 -2.534709 -0.459041 0
M  V30 END ATOM
M  V30 BEGIN BOND
M  V30 1 1 1 2
M  V30 2 2 2 3
M  V30 3 1 3 4
M  V30 4 2 4 5
M  V30 5 1 5 6
M  V30 6 1 6 7
M  V30 7 2 7 8
M  V30 8 1 8 9
M  V30 9 2 9 10
M  V30 10 1 10 11
M  V30 11 2 11 12
M  V30 12 1 12 13
M  V30 13 1 13 14
M  V30 14 2 13 15
M  V30 15 1 15 16
M  V30 16 2 6 17
M  V30 17 1 17 2
M  V30 18 1 16 7
M  V30 19 1 16 10
M  V30 20 1 1 18
M  V30 21 1 1 19
M  V30 22 1 3 20
M  V30 23 1 4 21
M  V30 24 1 5 22
M  V30 25 1 8 23
M  V30 26 1 11 24
M  V30 27 1 12 25
M  V30 28 1 17 26
M  V30 END BOND
M  V30 END CTAB
M  END
>  <Dataset>  (256) 
ChEMBL_Kinases

>  <Ligand_Instance>  (256) 
nan

>  <PDB_ID>  (256) 
nan

>  <Standardized_SMILES>  (256) 
Nc1cccc(-c2cnc3ccc(Cl)nn23)c1

>  <Name>  (256) 
nan

>  <Pocket>  (256) 
nan

>  <ATP_Site>  (256) 
nan

>  <Peripheral>  (256) 
nan

>  <Num_H_Atoms_ProtBoundConf>  (256) 
nan

>  <Num_Resolved_Atoms>  (256) 
nan

>  <Num_Not_Resolved_Atoms>  (256) 
nan

$$$$
CHEMBL4089159
     RDKit          3D

  0  0  0  0  0  0  0  0  0  0999 V3000
M  V30 BEGIN CTAB
M  V30 COUNTS 42 45 0 0 0
M  V30 BEGIN ATOM
M  V30 1 C 3.853035 -3.092371 5.312389 0
M  V30 2 O 2.675037 -2.743001 4.620241 0
M  V30 3 C 2.658549 -1.782667 3.611110 0
M  V30 4 O 3.723650 -1.194227 3.293092 0
M  V30 5 C 1.429538 -1.428244 2.896619 0
M  V30 6 C 1.353805 -0.527372 1.943323 0
M  V30 7 N 2.354202 0.291792 1.380264 0
M  V30 8 C 2.642648 0.632135 0.034391 0
M  V30 9 C 1.927527 0.158704 -1.038583 0
M  V30 10 C 2.212894 0.502069 -2.329026 0
M  V30 11 C 3.251201 1.354884 -2.616548 0
M  V30 12 C 3.966441 1.826926 -1.529845 0
M  V30 13 C 3.690688 1.489866 -0.220781 0
M  V30 14 Cl 4.677943 2.159656 1.077517 0
M  V30 15 O 0.045777 -0.450024 1.492559 0
M  V30 16 C -0.786762 -1.326923 2.165688 0
M  V30 17 C -2.064868 -1.625924 2.115088 0
M  V30 18 C -2.915754 -0.935770 1.156993 0
M  V30 19 C -4.143408 -0.328027 1.439279 0
M  V30 20 N -4.646949 0.199058 0.294882 0
M  V30 21 C -3.805093 -0.031280 -0.750913 0
M  V30 22 N -3.885472 0.289793 -2.050930 0
M  V30 23 C -2.892329 -0.082037 -2.875337 0
M  V30 24 C -1.787258 -0.789361 -2.418325 0
M  V30 25 C -1.768845 -1.086014 -1.072749 0
M  V30 26 C -2.766848 -0.720462 -0.197445 0
M  V30 27 C 0.100284 -1.997169 3.110055 0
M  V30 28 O -0.190877 -2.900954 3.963480 0
M  V30 29 H 3.698642 -2.888016 6.406801 0
M  V30 30 H 4.088006 -4.176403 5.256391 0
M  V30 31 H 4.673999 -2.458114 4.957456 0
M  V30 32 H 2.949779 0.685231 2.149051 0
M  V30 33 H 1.131413 -0.504089 -0.747886 0
M  V30 34 H 1.591258 0.078974 -3.126639 0
M  V30 35 H 3.505666 1.647603 -3.617126 0
M  V30 36 H 4.793765 2.504371 -1.726475 0
M  V30 37 H -2.519650 -2.367970 2.758183 0
M  V30 38 H -4.608343 -0.286258 2.404071 0
M  V30 39 H -5.561273 0.703572 0.273316 0
M  V30 40 H -2.892137 0.148260 -3.952290 0
M  V30 41 H -0.969394 -1.097055 -3.089151 0
M  V30 42 H -0.925594 -1.645705 -0.720475 0
M  V30 END ATOM
M  V30 BEGIN BOND
M  V30 1 1 1 2
M  V30 2 1 2 3
M  V30 3 2 3 4
M  V30 4 1 3 5
M  V30 5 2 5 6
M  V30 6 1 6 7
M  V30 7 1 7 8
M  V30 8 2 8 9
M  V30 9 1 9 10
M  V30 10 2 10 11
M  V30 11 1 11 12
M  V30 12 2 12 13
M  V30 13 1 13 14
M  V30 14 1 6 15
M  V30 15 1 15 16
M  V30 16 2 16 17
M  V30 17 1 17 18
M  V30 18 2 18 19
M  V30 19 1 19 20
M  V30 20 1 20 21
M  V30 21 2 21 22
M  V30 22 1 22 23
M  V30 23 2 23 24
M  V30 24 1 24 25
M  V30 25 2 25 26
M  V30 26 1 16 27
M  V30 27 2 27 28
M  V30 28 1 27 5
M  V30 29 1 13 8
M  V30 30 1 26 18
M  V30 31 1 26 21
M  V30 32 1 1 29
M  V30 33 1 1 30
M  V30 34 1 1 31
M  V30 35 1 7 32
M  V30 36 1 9 33
M  V30 37 1 10 34
M  V30 38 1 11 35
M  V30 39 1 12 36
M  V30 40 1 17 37
M  V30 41 1 19 38
M  V30 42 1 20 39
M  V30 43 1 23 40
M  V30 44 1 24 41
M  V30 45 1 25 42
M  V30 END BOND
M  V30 END CTAB
M  END
>  <Dataset>  (257) 
ChEMBL_Kinases

>  <Ligand_Instance>  (257) 
nan

>  <PDB_ID>  (257) 
nan

>  <Standardized_SMILES>  (257) 
COC(=O)C1=C(Nc2ccccc2Cl)O/C(=C\c2c[nH]c3ncccc23)C1=O

>  <Name>  (257) 
nan

>  <Pocket>  (257) 
nan

>  <ATP_Site>  (257) 
nan

>  <Peripheral>  (257) 
nan

>  <Num_H_Atoms_ProtBoundConf>  (257) 
nan

>  <Num_Resolved_Atoms>  (257) 
nan

>  <Num_Not_Resolved_Atoms>  (257) 
nan

$$$$
CHEMBL3104855
     RDKit          3D

  0  0  0  0  0  0  0  0  0  0999 V3000
M  V30 BEGIN CTAB
M  V30 COUNTS 40 42 0 0 0
M  V30 BEGIN ATOM
M  V30 1 C 2.892924 -0.623918 2.626654 0
M  V30 2 C 3.051357 0.076501 1.352811 0
M  V30 3 C 4.295828 0.629029 1.009552 0
M  V30 4 O 5.371997 0.497298 1.904555 0
M  V30 5 C 4.571798 1.308303 -0.155158 0
M  V30 6 O 5.818692 1.817545 -0.412347 0
M  V30 7 C 3.533082 1.439159 -1.026226 0
M  V30 8 O 3.762761 2.113028 -2.207834 0
M  V30 9 C 2.314676 0.904767 -0.702937 0
M  V30 10 C 1.286963 1.111697 -1.716246 0
M  V30 11 O 1.491668 1.720652 -2.785743 0
M  V30 12 C 2.007978 0.214529 0.465062 0
M  V30 13 C 0.686855 -0.291968 0.676040 0
M  V30 14 C 0.055512 -0.977057 1.651945 0
M  V30 15 C -1.265210 -1.231901 1.366307 0
M  V30 16 C -2.307118 -1.870346 2.004804 0
M  V30 17 C -2.078468 -2.461012 3.307866 0
M  V30 18 O -2.321695 -1.607564 4.217817 0
M  V30 19 C -3.522791 -1.901961 1.341073 0
M  V30 20 C -4.659555 -2.584371 2.009718 0
M  V30 21 C -3.663380 -1.308404 0.084877 0
M  V30 22 O -4.918048 -1.373315 -0.536385 0
M  V30 23 C -2.620608 -0.672531 -0.548024 0
M  V30 24 O -2.769608 -0.087842 -1.791729 0
M  V30 25 C -1.404601 -0.646144 0.126227 0
M  V30 26 O -0.269199 -0.133168 -0.208642 0
M  V30 27 H 3.921987 -0.594566 3.124361 0
M  V30 28 H 2.288029 -0.121522 3.394152 0
M  V30 29 H 2.759160 -1.728813 2.547281 0
M  V30 30 H 5.741532 -0.439216 2.045434 0
M  V30 31 H 6.609993 1.255295 -0.676150 0
M  V30 32 H 4.605731 2.029062 -2.739852 0
M  V30 33 H 0.309838 1.027768 -2.130858 0
M  V30 34 H 0.491894 -1.302030 2.555231 0
M  V30 35 H -1.759633 -3.485742 3.073931 0
M  V30 36 H -4.782433 -2.289704 3.073055 0
M  V30 37 H -5.586344 -2.271481 1.475043 0
M  V30 38 H -4.571997 -3.687557 1.899946 0
M  V30 39 H -5.731772 -0.953814 -0.096687 0
M  V30 40 H -3.434318 0.652870 -1.893093 0
M  V30 END ATOM
M  V30 BEGIN BOND
M  V30 1 1 1 2
M  V30 2 2 2 3
M  V30 3 1 3 4
M  V30 4 1 3 5
M  V30 5 1 5 6
M  V30 6 2 5 7
M  V30 7 1 7 8
M  V30 8 1 7 9
M  V30 9 1 9 10
M  V30 10 2 10 11
M  V30 11 2 9 12
M  V30 12 1 12 13
M  V30 13 2 13 14
M  V30 14 1 14 15
M  V30 15 2 15 16
M  V30 16 1 16 17
M  V30 17 2 17 18
M  V30 18 1 16 19
M  V30 19 1 19 20
M  V30 20 2 19 21
M  V30 21 1 21 22
M  V30 22 1 21 23
M  V30 23 1 23 24
M  V30 24 2 23 25
M  V30 25 1 25 26
M  V30 26 1 12 2
M  V30 27 1 26 13
M  V30 28 1 25 15
M  V30 29 1 1 27
M  V30 30 1 1 28
M  V30 31 1 1 29
M  V30 32 1 4 30
M  V30 33 1 6 31
M  V30 34 1 8 32
M  V30 35 1 10 33
M  V30 36 1 14 34
M  V30 37 1 17 35
M  V30 38 1 20 36
M  V30 39 1 20 37
M  V30 40 1 20 38
M  V30 41 1 22 39
M  V30 42 1 24 40
M  V30 END BOND
M  V30 END CTAB
M  END
>  <Dataset>  (258) 
ChEMBL_Kinases

>  <Ligand_Instance>  (258) 
nan

>  <PDB_ID>  (258) 
nan

>  <Standardized_SMILES>  (258) 
Cc1c(O)c(O)c(O)c(C=O)c1-c1cc2c(C=O)c(C)c(O)c(O)c2o1

>  <Name>  (258) 
nan

>  <Pocket>  (258) 
nan

>  <ATP_Site>  (258) 
nan

>  <Peripheral>  (258) 
nan

>  <Num_H_Atoms_ProtBoundConf>  (258) 
nan

>  <Num_Resolved_Atoms>  (258) 
nan

>  <Num_Not_Resolved_Atoms>  (258) 
nan

$$$$
CHEMBL4097368
     RDKit          3D

  0  0  0  0  0  0  0  0  0  0999 V3000
M  V30 BEGIN CTAB
M  V30 COUNTS 36 38 0 0 0
M  V30 BEGIN ATOM
M  V30 1 C 1.048980 -3.572786 3.788142 0
M  V30 2 C 0.329718 -3.771360 2.479083 0
M  V30 3 C 0.304155 -2.509085 1.655880 0 CFG=1
M  V30 4 C 1.731083 -2.053182 1.335664 0
M  V30 5 O 2.382773 -1.824969 2.531874 0
M  V30 6 N -0.419746 -2.736590 0.395023 0
M  V30 7 C -0.695240 -1.692377 -0.563647 0
M  V30 8 C -1.313697 -2.053770 -1.745683 0
M  V30 9 C -1.569621 -1.029903 -2.629349 0
M  V30 10 C -1.219211 0.263136 -2.325042 0
M  V30 11 N -1.378097 1.408436 -3.054059 0
M  V30 12 C -0.862754 2.430763 -2.314636 0
M  V30 13 C -0.393323 1.908182 -1.141623 0
M  V30 14 C 0.231999 2.645233 -0.066193 0
M  V30 15 C 0.413634 3.984747 -0.155792 0
M  V30 16 C 1.054592 4.638461 0.995246 0
M  V30 17 S 1.387169 3.235163 2.220019 0
M  V30 18 C 0.679317 1.912476 1.165779 0
M  V30 19 N -0.619550 0.589684 -1.169687 0
M  V30 20 N -0.376665 -0.412337 -0.321681 0
M  V30 21 H 2.140537 -3.820351 3.684938 0
M  V30 22 H 0.603284 -4.233178 4.570875 0
M  V30 23 H 0.921570 -2.542820 4.175686 0
M  V30 24 H 0.834826 -4.605514 1.948440 0
M  V30 25 H -0.695452 -4.114786 2.709442 0
M  V30 26 H -0.171893 -1.693860 2.213795 0
M  V30 27 H 1.657006 -1.111863 0.779515 0
M  V30 28 H 2.257016 -2.845452 0.743616 0
M  V30 29 H 3.139530 -1.205935 2.365610 0
M  V30 30 H -0.739965 -3.709718 0.206432 0
M  V30 31 H -1.553038 -3.096649 -1.904316 0
M  V30 32 H -2.051586 -1.293020 -3.558337 0
M  V30 33 H -0.846595 3.453368 -2.630771 0
M  V30 34 H 0.153798 4.637320 -0.953935 0
M  V30 35 H 1.248723 5.768652 1.005064 0
M  V30 36 H 0.600391 0.927011 1.359611 0
M  V30 END ATOM
M  V30 BEGIN BOND
M  V30 1 1 1 2
M  V30 2 1 2 3
M  V30 3 1 3 4
M  V30 4 1 4 5
M  V30 5 1 3 6
M  V30 6 1 6 7
M  V30 7 1 7 8
M  V30 8 2 8 9
M  V30 9 1 9 10
M  V30 10 2 10 11
M  V30 11 1 11 12
M  V30 12 2 12 13
M  V30 13 1 13 14
M  V30 14 1 14 15
M  V30 15 2 15 16
M  V30 16 1 16 17
M  V30 17 1 17 18
M  V30 18 1 13 19
M  V30 19 1 19 20
M  V30 20 2 20 7
M  V30 21 1 19 10
M  V30 22 2 18 14
M  V30 23 1 1 21
M  V30 24 1 1 22
M  V30 25 1 1 23
M  V30 26 1 2 24
M  V30 27 1 2 25
M  V30 28 1 3 26 CFG=1
M  V30 29 1 4 27
M  V30 30 1 4 28
M  V30 31 1 5 29
M  V30 32 1 6 30
M  V30 33 1 8 31
M  V30 34 1 9 32
M  V30 35 1 12 33
M  V30 36 1 15 34
M  V30 37 1 16 35
M  V30 38 1 18 36
M  V30 END BOND
M  V30 END CTAB
M  END
>  <Dataset>  (259) 
ChEMBL_Kinases

>  <Ligand_Instance>  (259) 
nan

>  <PDB_ID>  (259) 
nan

>  <Standardized_SMILES>  (259) 
CC[C@@H](CO)Nc1ccc2ncc(-c3ccsc3)n2n1

>  <Name>  (259) 
nan

>  <Pocket>  (259) 
nan

>  <ATP_Site>  (259) 
nan

>  <Peripheral>  (259) 
nan

>  <Num_H_Atoms_ProtBoundConf>  (259) 
nan

>  <Num_Resolved_Atoms>  (259) 
nan

>  <Num_Not_Resolved_Atoms>  (259) 
nan

$$$$
CHEMBL4088717
     RDKit          3D

  0  0  0  0  0  0  0  0  0  0999 V3000
M  V30 BEGIN CTAB
M  V30 COUNTS 41 43 0 0 0
M  V30 BEGIN ATOM
M  V30 1 C -1.626284 -4.533064 -0.251107 0
M  V30 2 C -0.195258 -4.179645 0.103303 0
M  V30 3 C 0.002340 -2.676480 0.163385 0 CFG=1
M  V30 4 C 1.473635 -2.475893 0.526520 0
M  V30 5 O 1.672508 -3.049700 1.769863 0
M  V30 6 N -0.287360 -2.101205 -1.129873 0
M  V30 7 C -0.177358 -0.695852 -1.342746 0
M  V30 8 C -0.439915 -0.089911 -2.551684 0
M  V30 9 C -0.304554 1.279538 -2.657638 0
M  V30 10 C 0.085988 2.065490 -1.590978 0
M  V30 11 N 0.311036 3.367316 -1.344458 0
M  V30 12 C 0.689418 3.549509 -0.059856 0
M  V30 13 C 0.703568 2.300867 0.532574 0
M  V30 14 C 1.047718 1.947984 1.925833 0
M  V30 15 C 2.129536 2.437207 2.613252 0
M  V30 16 C 2.315689 2.003942 3.926839 0
M  V30 17 C 1.420342 1.107462 4.493462 0
M  V30 18 C 0.327470 0.613982 3.797295 0
M  V30 19 N -0.589797 -0.305197 4.379536 0
M  V30 20 C 0.152639 1.056008 2.482495 0
M  V30 21 N 0.328319 1.418295 -0.437041 0
M  V30 22 N 0.199690 0.110310 -0.333463 0
M  V30 23 H -1.603490 -5.210176 -1.114880 0
M  V30 24 H -2.146625 -5.059146 0.583494 0
M  V30 25 H -2.206095 -3.617722 -0.502327 0
M  V30 26 H 0.546455 -4.579897 -0.604637 0
M  V30 27 H 0.014095 -4.642461 1.089305 0
M  V30 28 H -0.685951 -2.244826 0.898928 0
M  V30 29 H 1.773936 -1.427541 0.572497 0
M  V30 30 H 2.047661 -3.057986 -0.245773 0
M  V30 31 H 2.573008 -2.945254 2.120785 0
M  V30 32 H -0.583962 -2.673194 -1.950675 0
M  V30 33 H -0.748878 -0.700769 -3.400384 0
M  V30 34 H -0.506120 1.797756 -3.608774 0
M  V30 35 H 0.948922 4.425326 0.495592 0
M  V30 36 H 2.772649 3.131721 2.089375 0
M  V30 37 H 3.178220 2.397921 4.465863 0
M  V30 38 H 1.562182 0.771393 5.508131 0
M  V30 39 H -0.294115 -1.172920 4.908333 0
M  V30 40 H -1.610849 -0.082514 4.260787 0
M  V30 41 H -0.717579 0.643272 1.973929 0
M  V30 END ATOM
M  V30 BEGIN BOND
M  V30 1 1 1 2
M  V30 2 1 2 3
M  V30 3 1 3 4
M  V30 4 1 4 5
M  V30 5 1 3 6
M  V30 6 1 6 7
M  V30 7 1 7 8
M  V30 8 2 8 9
M  V30 9 1 9 10
M  V30 10 2 10 11
M  V30 11 1 11 12
M  V30 12 2 12 13
M  V30 13 1 13 14
M  V30 14 2 14 15
M  V30 15 1 15 16
M  V30 16 2 16 17
M  V30 17 1 17 18
M  V30 18 1 18 19
M  V30 19 2 18 20
M  V30 20 1 13 21
M  V30 21 1 21 22
M  V30 22 2 22 7
M  V30 23 1 21 10
M  V30 24 1 20 14
M  V30 25 1 1 23
M  V30 26 1 1 24
M  V30 27 1 1 25
M  V30 28 1 2 26
M  V30 29 1 2 27
M  V30 30 1 3 28 CFG=1
M  V30 31 1 4 29
M  V30 32 1 4 30
M  V30 33 1 5 31
M  V30 34 1 6 32
M  V30 35 1 8 33
M  V30 36 1 9 34
M  V30 37 1 12 35
M  V30 38 1 15 36
M  V30 39 1 16 37
M  V30 40 1 17 38
M  V30 41 1 19 39
M  V30 42 1 19 40
M  V30 43 1 20 41
M  V30 END BOND
M  V30 END CTAB
M  END
>  <Dataset>  (260) 
ChEMBL_Kinases

>  <Ligand_Instance>  (260) 
nan

>  <PDB_ID>  (260) 
nan

>  <Standardized_SMILES>  (260) 
CC[C@@H](CO)Nc1ccc2ncc(-c3cccc(N)c3)n2n1

>  <Name>  (260) 
nan

>  <Pocket>  (260) 
nan

>  <ATP_Site>  (260) 
nan

>  <Peripheral>  (260) 
nan

>  <Num_H_Atoms_ProtBoundConf>  (260) 
nan

>  <Num_Resolved_Atoms>  (260) 
nan

>  <Num_Not_Resolved_Atoms>  (260) 
nan

$$$$
CHEMBL4448494
     RDKit          3D

  0  0  0  0  0  0  0  0  0  0999 V3000
M  V30 BEGIN CTAB
M  V30 COUNTS 69 73 0 0 0
M  V30 BEGIN ATOM
M  V30 1 C 1.379841 1.692891 6.890645 0
M  V30 2 C 2.155637 1.783257 5.632462 0
M  V30 3 N 3.378555 2.354538 5.496947 0
M  V30 4 C 3.751878 2.243837 4.229118 0
M  V30 5 C 4.843799 2.616122 3.518535 0
M  V30 6 F 5.891528 3.271343 4.115099 0
M  V30 7 C 5.029470 2.394753 2.174027 0
M  V30 8 C 4.013091 1.734353 1.487588 0
M  V30 9 C 3.926332 1.356833 0.071323 0
M  V30 10 N 2.762658 1.618398 -0.568224 0
M  V30 11 C 2.528268 1.321103 -1.858597 0
M  V30 12 N 1.218615 1.699992 -2.311695 0
M  V30 13 C 0.198418 0.744768 -2.012081 0
M  V30 14 C 0.485741 -0.426013 -1.343384 0
M  V30 15 C -0.447923 -1.386815 -1.016050 0
M  V30 16 C -1.759133 -1.109553 -1.409810 0
M  V30 17 C -2.062467 0.055481 -2.078867 0
M  V30 18 N -1.096662 0.925194 -2.352237 0
M  V30 19 C -3.479981 0.277572 -2.459300 0
M  V30 20 C -4.377671 -0.873403 -2.223578 0
M  V30 21 N -3.713732 -2.163781 -2.126333 0
M  V30 22 C -4.641553 -3.225986 -1.978055 0
M  V30 23 C -3.943765 -4.555013 -1.926540 0
M  V30 24 N -3.172813 -4.744415 -3.135552 0
M  V30 25 C -3.952414 -4.911683 -4.319262 0
M  V30 26 C -2.039814 -5.598469 -3.001961 0
M  V30 27 C -2.762165 -2.185287 -1.040248 0
M  V30 28 N 3.497734 0.718656 -2.603388 0
M  V30 29 C 4.687799 0.438031 -1.995161 0
M  V30 30 C 4.916870 0.747670 -0.670298 0
M  V30 31 F 6.077876 0.487855 -0.033271 0
M  V30 32 C 2.887445 1.351991 2.227076 0
M  V30 33 C 2.736710 1.595897 3.594525 0
M  V30 34 N 1.712580 1.287627 4.440485 0
M  V30 35 C 0.491524 0.609058 4.120170 0
M  V30 36 C -0.736875 1.244161 4.681081 0
M  V30 37 C 0.547329 -0.883779 4.447413 0
M  V30 38 H 0.631382 0.901910 6.884477 0
M  V30 39 H 2.117995 1.424412 7.691475 0
M  V30 40 H 0.975837 2.690482 7.182458 0
M  V30 41 H 5.852010 2.647533 1.522852 0
M  V30 42 H 0.922005 2.566716 -2.822477 0
M  V30 43 H 1.504529 -0.649015 -1.033817 0
M  V30 44 H -0.193717 -2.293694 -0.491320 0
M  V30 45 H -3.472641 0.498866 -3.567610 0
M  V30 46 H -3.864423 1.236085 -2.012758 0
M  V30 47 H -4.935561 -0.739338 -1.263754 0
M  V30 48 H -5.148949 -0.998520 -3.016460 0
M  V30 49 H -5.130698 -3.109974 -0.965453 0
M  V30 50 H -5.434158 -3.250261 -2.755155 0
M  V30 51 H -3.323981 -4.745480 -1.055084 0
M  V30 52 H -4.723052 -5.392187 -1.902150 0
M  V30 53 H -5.024184 -5.045683 -4.015340 0
M  V30 54 H -3.587400 -5.731400 -4.971990 0
M  V30 55 H -3.899846 -3.965195 -4.903414 0
M  V30 56 H -1.184340 -5.064028 -3.509160 0
M  V30 57 H -2.164891 -6.581802 -3.460037 0
M  V30 58 H -1.737427 -5.639742 -1.936052 0
M  V30 59 H -2.269482 -3.144656 -0.937775 0
M  V30 60 H -3.296021 -1.808607 -0.144340 0
M  V30 61 H 5.459830 -0.039571 -2.580003 0
M  V30 62 H 2.040827 0.824663 1.756034 0
M  V30 63 H 0.383638 0.636692 2.995791 0
M  V30 64 H -1.484392 1.538955 3.886767 0
M  V30 65 H -0.562328 2.186860 5.242906 0
M  V30 66 H -1.293922 0.477791 5.278192 0
M  V30 67 H 0.248067 -1.028180 5.508475 0
M  V30 68 H 1.514547 -1.318216 4.206760 0
M  V30 69 H -0.243146 -1.398375 3.829685 0
M  V30 END ATOM
M  V30 BEGIN BOND
M  V30 1 1 1 2
M  V30 2 2 2 3
M  V30 3 1 3 4
M  V30 4 2 4 5
M  V30 5 1 5 6
M  V30 6 1 5 7
M  V30 7 2 7 8
M  V30 8 1 8 9
M  V30 9 2 9 10
M  V30 10 1 10 11
M  V30 11 1 11 12
M  V30 12 1 12 13
M  V30 13 2 13 14
M  V30 14 1 14 15
M  V30 15 2 15 16
M  V30 16 1 16 17
M  V30 17 2 17 18
M  V30 18 1 17 19
M  V30 19 1 19 20
M  V30 20 1 20 21
M  V30 21 1 21 22
M  V30 22 1 22 23
M  V30 23 1 23 24
M  V30 24 1 24 25
M  V30 25 1 24 26
M  V30 26 1 21 27
M  V30 27 2 11 28
M  V30 28 1 28 29
M  V30 29 2 29 30
M  V30 30 1 30 31
M  V30 31 1 8 32
M  V30 32 2 32 33
M  V30 33 1 33 34
M  V30 34 1 34 35
M  V30 35 1 35 36
M  V30 36 1 35 37
M  V30 37 1 34 2
M  V30 38 1 33 4
M  V30 39 1 30 9
M  V30 40 1 18 13
M  V30 41 1 27 16
M  V30 42 1 1 38
M  V30 43 1 1 39
M  V30 44 1 1 40
M  V30 45 1 7 41
M  V30 46 1 12 42
M  V30 47 1 14 43
M  V30 48 1 15 44
M  V30 49 1 19 45
M  V30 50 1 19 46
M  V30 51 1 20 47
M  V30 52 1 20 48
M  V30 53 1 22 49
M  V30 54 1 22 50
M  V30 55 1 23 51
M  V30 56 1 23 52
M  V30 57 1 25 53
M  V30 58 1 25 54
M  V30 59 1 25 55
M  V30 60 1 26 56
M  V30 61 1 26 57
M  V30 62 1 26 58
M  V30 63 1 27 59
M  V30 64 1 27 60
M  V30 65 1 29 61
M  V30 66 1 32 62
M  V30 67 1 35 63
M  V30 68 1 36 64
M  V30 69 1 36 65
M  V30 70 1 36 66
M  V30 71 1 37 67
M  V30 72 1 37 68
M  V30 73 1 37 69
M  V30 END BOND
M  V30 END CTAB
M  END
>  <Dataset>  (261) 
ChEMBL_Kinases

>  <Ligand_Instance>  (261) 
nan

>  <PDB_ID>  (261) 
nan

>  <Standardized_SMILES>  (261) 
Cc1nc2c(F)cc(-c3nc(Nc4ccc5c(n4)CCN(CCN(C)C)C5)ncc3F)cc2n1C(C)C

>  <Name>  (261) 
nan

>  <Pocket>  (261) 
nan

>  <ATP_Site>  (261) 
nan

>  <Peripheral>  (261) 
nan

>  <Num_H_Atoms_ProtBoundConf>  (261) 
nan

>  <Num_Resolved_Atoms>  (261) 
nan

>  <Num_Not_Resolved_Atoms>  (261) 
nan

$$$$
CHEMBL4556790
     RDKit          3D

  0  0  0  0  0  0  0  0  0  0999 V3000
M  V30 BEGIN CTAB
M  V30 COUNTS 51 54 0 0 0
M  V30 BEGIN ATOM
M  V30 1 C 5.490353 -4.024314 2.445024 0
M  V30 2 N 5.483650 -3.082366 3.519391 0
M  V30 3 N 6.285408 -3.191814 4.580363 0
M  V30 4 C 6.043481 -2.154401 5.419517 0
M  V30 5 C 5.050700 -1.405878 4.813757 0
M  V30 6 C 4.697264 -2.003807 3.599946 0
M  V30 7 C 3.692534 -1.480977 2.718428 0
M  V30 8 C 3.757364 -1.328225 1.352359 0
M  V30 9 C 2.717122 -0.811255 0.610464 0
M  V30 10 C 1.526571 -0.411500 1.228676 0
M  V30 11 C 0.557820 0.104306 0.274907 0
M  V30 12 O 0.714165 0.198554 -0.973011 0
M  V30 13 N -0.729067 0.586489 0.613839 0
M  V30 14 C -1.723427 1.106741 -0.293924 0 CFG=2
M  V30 15 C -2.004931 2.572295 -0.049361 0
M  V30 16 N -2.890334 2.984129 -1.146483 0
M  V30 17 C -4.215672 2.434818 -0.974951 0
M  V30 18 C -4.245807 1.206780 -0.126010 0
M  V30 19 C -3.006144 0.356663 -0.172366 0 CFG=1
M  V30 20 C -3.139964 -0.763006 -1.153913 0
M  V30 21 C -3.148260 -0.364710 -2.473996 0
M  V30 22 C -3.269343 -1.315315 -3.462198 0
M  V30 23 C -3.378783 -2.635340 -3.107321 0
M  V30 24 F -3.503883 -3.661144 -3.998822 0
M  V30 25 C -3.374414 -3.076075 -1.785736 0
M  V30 26 F -3.478421 -4.349049 -1.381622 0
M  V30 27 C -3.250769 -2.096559 -0.801718 0
M  V30 28 C 1.484545 -0.573341 2.594242 0
M  V30 29 F 0.319767 -0.174817 3.143822 0
M  V30 30 C 2.519707 -1.086563 3.321688 0
M  V30 31 H 4.684940 -3.881947 1.722705 0
M  V30 32 H 6.461992 -3.888461 1.891599 0
M  V30 33 H 5.517218 -5.078265 2.804917 0
M  V30 34 H 6.563863 -2.010537 6.355790 0
M  V30 35 H 4.700328 -0.521967 5.315574 0
M  V30 36 H 4.681299 -1.639436 0.886489 0
M  V30 37 H 2.909719 -0.748879 -0.459336 0
M  V30 38 H -1.064775 0.600463 1.588651 0
M  V30 39 H -1.291854 1.047945 -1.335360 0
M  V30 40 H -1.094737 3.175049 -0.141323 0
M  V30 41 H -2.583816 2.729047 0.887050 0
M  V30 42 H -2.860985 4.011331 -1.210090 0
M  V30 43 H -4.650890 2.301300 -1.995486 0
M  V30 44 H -4.838048 3.221989 -0.497028 0
M  V30 45 H -4.530710 1.484400 0.913042 0
M  V30 46 H -5.091114 0.565593 -0.487445 0
M  V30 47 H -2.987427 -0.154847 0.837151 0
M  V30 48 H -3.064611 0.660952 -2.794607 0
M  V30 49 H -3.282843 -1.069364 -4.533405 0
M  V30 50 H -3.237464 -2.343398 0.253798 0
M  V30 51 H 2.326387 -1.147998 4.386983 0
M  V30 END ATOM
M  V30 BEGIN BOND
M  V30 1 1 1 2
M  V30 2 1 2 3
M  V30 3 2 3 4
M  V30 4 1 4 5
M  V30 5 2 5 6
M  V30 6 1 6 7
M  V30 7 2 7 8
M  V30 8 1 8 9
M  V30 9 2 9 10
M  V30 10 1 10 11
M  V30 11 2 11 12
M  V30 12 1 11 13
M  V30 13 1 13 14
M  V30 14 1 14 15
M  V30 15 1 15 16
M  V30 16 1 16 17
M  V30 17 1 17 18
M  V30 18 1 18 19
M  V30 19 1 19 20
M  V30 20 2 20 21
M  V30 21 1 21 22
M  V30 22 2 22 23
M  V30 23 1 23 24
M  V30 24 1 23 25
M  V30 25 1 25 26
M  V30 26 2 25 27
M  V30 27 1 10 28
M  V30 28 1 28 29
M  V30 29 2 28 30
M  V30 30 1 6 2
M  V30 31 1 30 7
M  V30 32 1 19 14
M  V30 33 1 27 20
M  V30 34 1 1 31
M  V30 35 1 1 32
M  V30 36 1 1 33
M  V30 37 1 4 34
M  V30 38 1 5 35
M  V30 39 1 8 36
M  V30 40 1 9 37
M  V30 41 1 13 38
M  V30 42 1 14 39 CFG=3
M  V30 43 1 15 40
M  V30 44 1 15 41
M  V30 45 1 16 42
M  V30 46 1 17 43
M  V30 47 1 17 44
M  V30 48 1 18 45
M  V30 49 1 18 46
M  V30 50 1 19 47 CFG=1
M  V30 51 1 21 48
M  V30 52 1 22 49
M  V30 53 1 27 50
M  V30 54 1 30 51
M  V30 END BOND
M  V30 END CTAB
M  END
>  <Dataset>  (262) 
ChEMBL_Kinases

>  <Ligand_Instance>  (262) 
nan

>  <PDB_ID>  (262) 
nan

>  <Standardized_SMILES>  (262) 
Cn1nccc1-c1ccc(C(=O)N[C@@H]2CNCC[C@H]2c2ccc(F)c(F)c2)c(F)c1

>  <Name>  (262) 
nan

>  <Pocket>  (262) 
nan

>  <ATP_Site>  (262) 
nan

>  <Peripheral>  (262) 
nan

>  <Num_H_Atoms_ProtBoundConf>  (262) 
nan

>  <Num_Resolved_Atoms>  (262) 
nan

>  <Num_Not_Resolved_Atoms>  (262) 
nan

$$$$
CHEMBL3544964
     RDKit          3D

  0  0  0  0  0  0  0  0  0  0999 V3000
M  V30 BEGIN CTAB
M  V30 COUNTS 49 52 0 0 0
M  V30 BEGIN ATOM
M  V30 1 C 3.199742 -2.502791 1.094155 0
M  V30 2 N 4.587114 -2.487427 1.418827 0
M  V30 3 N 5.233144 -3.620038 1.691520 0
M  V30 4 C 6.505867 -3.306704 1.958332 0
M  V30 5 C 6.616764 -1.948055 1.840082 0
M  V30 6 C 5.381899 -1.420704 1.492812 0
M  V30 7 N 5.187507 -0.039278 1.298134 0
M  V30 8 C 4.125705 0.818547 0.951074 0
M  V30 9 N 4.369897 2.159602 0.866861 0
M  V30 10 C 3.425914 3.041491 0.545076 0
M  V30 11 C 2.155188 2.607578 0.284912 0
M  V30 12 C 1.852048 1.289053 0.352527 0
M  V30 13 C 0.495694 0.851099 0.072906 0
M  V30 14 C 0.047875 -0.449614 0.104873 0
M  V30 15 C -1.246188 -0.841298 -0.164992 0
M  V30 16 N -2.174632 0.077759 -0.487709 0
M  V30 17 C -3.500470 -0.421977 -0.753465 0 CFG=2
M  V30 18 C -4.550441 0.598054 -0.991836 0
M  V30 19 O -5.745917 -0.126456 -1.224363 0
M  V30 20 C -3.920488 -1.253158 0.405782 0
M  V30 21 C -4.424148 -0.737244 1.579873 0
M  V30 22 C -4.821456 -1.495433 2.657506 0
M  V30 23 C -4.720478 -2.866604 2.586980 0
M  V30 24 Cl -5.212559 -3.874806 3.930902 0
M  V30 25 C -4.220254 -3.457250 1.430958 0
M  V30 26 F -4.125815 -4.803714 1.373369 0
M  V30 27 C -3.840121 -2.630628 0.386548 0
M  V30 28 C -1.778204 1.362616 -0.530352 0
M  V30 29 O -2.673666 2.189009 -0.835139 0
M  V30 30 C -0.485519 1.754003 -0.260794 0
M  V30 31 N 2.875151 0.515892 0.681771 0
M  V30 32 H 2.761157 -3.547879 1.192063 0
M  V30 33 H 2.956499 -2.137104 0.092870 0
M  V30 34 H 2.609549 -1.925144 1.834308 0
M  V30 35 H 7.249590 -4.041888 2.211823 0
M  V30 36 H 7.607175 -1.512610 2.027366 0
M  V30 37 H 6.087155 0.527362 1.454036 0
M  V30 38 H 3.760857 4.090737 0.513880 0
M  V30 39 H 1.505025 3.420430 0.041363 0
M  V30 40 H 0.757027 -1.222555 0.359230 0
M  V30 41 H -1.484677 -1.894162 -0.109214 0
M  V30 42 H -3.483269 -1.123514 -1.638886 0
M  V30 43 H -4.425122 1.155920 -1.965546 0
M  V30 44 H -4.676414 1.236505 -0.121523 0
M  V30 45 H -5.710624 -1.032938 -0.847588 0
M  V30 46 H -4.524655 0.328096 1.690605 0
M  V30 47 H -5.208305 -1.064409 3.554731 0
M  V30 48 H -3.471214 -3.161620 -0.462064 0
M  V30 49 H -0.336004 2.815795 -0.338981 0
M  V30 END ATOM
M  V30 BEGIN BOND
M  V30 1 1 1 2
M  V30 2 1 2 3
M  V30 3 2 3 4
M  V30 4 1 4 5
M  V30 5 2 5 6
M  V30 6 1 6 7
M  V30 7 1 7 8
M  V30 8 2 8 9
M  V30 9 1 9 10
M  V30 10 2 10 11
M  V30 11 1 11 12
M  V30 12 1 12 13
M  V30 13 1 13 14
M  V30 14 2 14 15
M  V30 15 1 15 16
M  V30 16 1 16 17
M  V30 17 1 17 18
M  V30 18 1 18 19
M  V30 19 1 17 20
M  V30 20 2 20 21
M  V30 21 1 21 22
M  V30 22 2 22 23
M  V30 23 1 23 24
M  V30 24 1 23 25
M  V30 25 1 25 26
M  V30 26 2 25 27
M  V30 27 1 16 28
M  V30 28 2 28 29
M  V30 29 1 28 30
M  V30 30 2 12 31
M  V30 31 1 6 2
M  V30 32 1 31 8
M  V30 33 2 30 13
M  V30 34 1 27 20
M  V30 35 1 1 32
M  V30 36 1 1 33
M  V30 37 1 1 34
M  V30 38 1 4 35
M  V30 39 1 5 36
M  V30 40 1 7 37
M  V30 41 1 10 38
M  V30 42 1 11 39
M  V30 43 1 14 40
M  V30 44 1 15 41
M  V30 45 1 17 42 CFG=3
M  V30 46 1 18 43
M  V30 47 1 18 44
M  V30 48 1 19 45
M  V30 49 1 21 46
M  V30 50 1 22 47
M  V30 51 1 27 48
M  V30 52 1 30 49
M  V30 END BOND
M  V30 END CTAB
M  END
>  <Dataset>  (263) 
ChEMBL_Kinases

>  <Ligand_Instance>  (263) 
nan

>  <PDB_ID>  (263) 
nan

>  <Standardized_SMILES>  (263) 
Cn1nccc1Nc1nccc(-c2ccn([C@H](CO)c3ccc(Cl)c(F)c3)c(=O)c2)n1

>  <Name>  (263) 
RAVOXERTINIB

>  <Pocket>  (263) 
nan

>  <ATP_Site>  (263) 
nan

>  <Peripheral>  (263) 
nan

>  <Num_H_Atoms_ProtBoundConf>  (263) 
nan

>  <Num_Resolved_Atoms>  (263) 
nan

>  <Num_Not_Resolved_Atoms>  (263) 
nan

$$$$
CHEMBL1738877
     RDKit          3D

  0  0  0  0  0  0  0  0  0  0999 V3000
M  V30 BEGIN CTAB
M  V30 COUNTS 55 58 0 0 0
M  V30 BEGIN ATOM
M  V30 1 C 2.337053 -3.558210 -1.658724 0
M  V30 2 N 1.984442 -4.235903 -0.424100 0
M  V30 3 C 2.141154 -3.740947 0.824439 0
M  V30 4 C 2.717606 -2.393090 1.084450 0
M  V30 5 N 1.736463 -1.353045 1.125398 0
M  V30 6 C 2.102453 -0.011209 1.344896 0
M  V30 7 C 3.433071 0.336125 1.528515 0
M  V30 8 C 3.701830 1.672915 1.734019 0
M  V30 9 C 2.732633 2.666686 1.766069 0
M  V30 10 C 1.413134 2.310501 1.582386 0
M  V30 11 C 0.392130 3.353182 1.611134 0
M  V30 12 O 0.803079 4.536791 1.778050 0
M  V30 13 N -0.983071 3.149417 1.470699 0
M  V30 14 C -1.966335 4.194060 1.500257 0
M  V30 15 C -3.344397 3.657447 1.343611 0
M  V30 16 C -4.031700 3.746381 0.127228 0
M  V30 17 C -5.295713 3.247428 -0.011806 0
M  V30 18 C -5.947025 2.635621 1.040434 0
M  V30 19 C -5.221922 2.577249 2.211252 0
M  V30 20 C -3.927885 3.052212 2.467149 0
M  V30 21 C -3.299957 2.913732 3.770364 0
M  V30 22 F -4.210774 2.265615 4.614604 0
M  V30 23 F -2.141589 2.236355 3.871340 0
M  V30 24 F -3.110430 4.174499 4.349993 0
M  V30 25 C 1.127717 0.976820 1.375717 0
M  V30 26 N 1.674371 -4.726466 1.611689 0
M  V30 27 N 1.262175 -5.751065 0.885180 0
M  V30 28 C 1.446809 -5.469393 -0.423149 0
M  V30 29 C 1.142890 -6.296250 -1.586127 0
M  V30 30 C 1.523613 -7.632211 -1.651724 0
M  V30 31 C 1.213415 -8.377635 -2.780290 0
M  V30 32 N 0.542294 -7.840420 -3.836198 0
M  V30 33 C 0.168558 -6.531292 -3.773426 0
M  V30 34 C 0.463946 -5.776322 -2.669541 0
M  V30 35 H 3.294561 -3.015785 -1.444415 0
M  V30 36 H 1.593876 -2.766988 -1.905819 0
M  V30 37 H 2.470510 -4.241399 -2.495289 0
M  V30 38 H 3.138142 -2.475917 2.131067 0
M  V30 39 H 3.607175 -2.174781 0.458147 0
M  V30 40 H 0.733330 -1.609669 0.988975 0
M  V30 41 H 4.220065 -0.395801 1.512799 0
M  V30 42 H 4.730449 1.993367 1.882921 0
M  V30 43 H 3.035686 3.694351 1.933970 0
M  V30 44 H -1.273379 2.153012 1.333485 0
M  V30 45 H -1.773313 4.813143 0.583619 0
M  V30 46 H -1.855339 4.920803 2.321559 0
M  V30 47 H -3.533500 4.229925 -0.726510 0
M  V30 48 H -5.817828 3.321202 -0.955735 0
M  V30 49 H -6.925897 2.230277 0.993365 0
M  V30 50 H -5.715654 2.098178 3.057684 0
M  V30 51 H 0.103659 0.659248 1.228046 0
M  V30 52 H 2.066046 -8.084300 -0.809238 0
M  V30 53 H 1.504291 -9.434946 -2.854725 0
M  V30 54 H -0.369107 -6.123044 -4.633795 0
M  V30 55 H 0.131270 -4.741390 -2.696652 0
M  V30 END ATOM
M  V30 BEGIN BOND
M  V30 1 1 1 2
M  V30 2 1 2 3
M  V30 3 1 3 4
M  V30 4 1 4 5
M  V30 5 1 5 6
M  V30 6 2 6 7
M  V30 7 1 7 8
M  V30 8 2 8 9
M  V30 9 1 9 10
M  V30 10 1 10 11
M  V30 11 2 11 12
M  V30 12 1 11 13
M  V30 13 1 13 14
M  V30 14 1 14 15
M  V30 15 2 15 16
M  V30 16 1 16 17
M  V30 17 2 17 18
M  V30 18 1 18 19
M  V30 19 2 19 20
M  V30 20 1 20 21
M  V30 21 1 21 22
M  V30 22 1 21 23
M  V30 23 1 21 24
M  V30 24 2 10 25
M  V30 25 2 3 26
M  V30 26 1 26 27
M  V30 27 2 27 28
M  V30 28 1 28 29
M  V30 29 2 29 30
M  V30 30 1 30 31
M  V30 31 2 31 32
M  V30 32 1 32 33
M  V30 33 2 33 34
M  V30 34 1 28 2
M  V30 35 1 34 29
M  V30 36 1 25 6
M  V30 37 1 20 15
M  V30 38 1 1 35
M  V30 39 1 1 36
M  V30 40 1 1 37
M  V30 41 1 4 38
M  V30 42 1 4 39
M  V30 43 1 5 40
M  V30 44 1 7 41
M  V30 45 1 8 42
M  V30 46 1 9 43
M  V30 47 1 13 44
M  V30 48 1 14 45
M  V30 49 1 14 46
M  V30 50 1 16 47
M  V30 51 1 17 48
M  V30 52 1 18 49
M  V30 53 1 19 50
M  V30 54 1 25 51
M  V30 55 1 30 52
M  V30 56 1 31 53
M  V30 57 1 33 54
M  V30 58 1 34 55
M  V30 END BOND
M  V30 END CTAB
M  END
>  <Dataset>  (264) 
ChEMBL_Kinases

>  <Ligand_Instance>  (264) 
nan

>  <PDB_ID>  (264) 
nan

>  <Standardized_SMILES>  (264) 
Cn1c(CNc2cccc(C(=O)NCc3ccccc3C(F)(F)F)c2)nnc1-c1ccncc1

>  <Name>  (264) 
nan

>  <Pocket>  (264) 
nan

>  <ATP_Site>  (264) 
nan

>  <Peripheral>  (264) 
nan

>  <Num_H_Atoms_ProtBoundConf>  (264) 
nan

>  <Num_Resolved_Atoms>  (264) 
nan

>  <Num_Not_Resolved_Atoms>  (264) 
nan

$$$$
CHEMBL3104854
     RDKit          3D

  0  0  0  0  0  0  0  0  0  0999 V3000
M  V30 BEGIN CTAB
M  V30 COUNTS 22 23 0 0 0
M  V30 BEGIN ATOM
M  V30 1 C -1.673695 1.457175 1.612462 0
M  V30 2 C -0.523612 0.563930 1.328891 0
M  V30 3 C -0.411829 -0.695578 1.929547 0
M  V30 4 O -1.419346 -1.079552 2.802810 0
M  V30 5 C 0.629667 -1.576801 1.711558 0
M  V30 6 O 0.663860 -2.806463 2.347640 0
M  V30 7 C 1.622342 -1.184339 0.843591 0
M  V30 8 O 2.705051 -2.001528 0.563986 0
M  V30 9 C 1.552964 0.041857 0.232696 0
M  V30 10 C 0.510011 0.908668 0.459377 0
M  V30 11 C 0.614742 2.182452 -0.292218 0
M  V30 12 O 1.811128 2.034002 -1.005671 0
M  V30 13 C 2.364058 0.799960 -0.710908 0
M  V30 14 O 3.460719 0.394314 -1.220222 0
M  V30 15 H -2.264390 0.990656 2.408960 0
M  V30 16 H -2.292502 1.564643 0.676724 0
M  V30 17 H -1.335985 2.460978 1.918495 0
M  V30 18 H -1.625112 -2.039649 3.024633 0
M  V30 19 H 1.466455 -3.228966 2.748575 0
M  V30 20 H 2.681806 -2.631724 -0.230690 0
M  V30 21 H 0.589697 3.068030 0.379389 0
M  V30 22 H -0.239501 2.270352 -1.013369 0
M  V30 END ATOM
M  V30 BEGIN BOND
M  V30 1 1 1 2
M  V30 2 2 2 3
M  V30 3 1 3 4
M  V30 4 1 3 5
M  V30 5 1 5 6
M  V30 6 2 5 7
M  V30 7 1 7 8
M  V30 8 1 7 9
M  V30 9 2 9 10
M  V30 10 1 10 11
M  V30 11 1 11 12
M  V30 12 1 12 13
M  V30 13 2 13 14
M  V30 14 1 10 2
M  V30 15 1 13 9
M  V30 16 1 1 15
M  V30 17 1 1 16
M  V30 18 1 1 17
M  V30 19 1 4 18
M  V30 20 1 6 19
M  V30 21 1 8 20
M  V30 22 1 11 21
M  V30 23 1 11 22
M  V30 END BOND
M  V30 END CTAB
M  END
>  <Dataset>  (265) 
ChEMBL_Kinases

>  <Ligand_Instance>  (265) 
nan

>  <PDB_ID>  (265) 
nan

>  <Standardized_SMILES>  (265) 
Cc1c(O)c(O)c(O)c2c1COC2=O

>  <Name>  (265) 
nan

>  <Pocket>  (265) 
nan

>  <ATP_Site>  (265) 
nan

>  <Peripheral>  (265) 
nan

>  <Num_H_Atoms_ProtBoundConf>  (265) 
nan

>  <Num_Resolved_Atoms>  (265) 
nan

>  <Num_Not_Resolved_Atoms>  (265) 
nan

$$$$
CHEMBL1738878
     RDKit          3D

  0  0  0  0  0  0  0  0  0  0999 V3000
M  V30 BEGIN CTAB
M  V30 COUNTS 57 60 0 0 0
M  V30 BEGIN ATOM
M  V30 1 C -1.931730 -4.284089 0.628387 0
M  V30 2 C -2.639854 -3.311822 -0.278765 0
M  V30 3 C -1.922613 -3.206089 -1.615987 0
M  V30 4 N -2.583515 -2.277609 -2.505456 0
M  V30 5 C -2.308677 -0.946383 -2.579851 0
M  V30 6 C -1.276634 -0.270563 -1.736517 0
M  V30 7 N 0.016619 -0.316738 -2.431988 0
M  V30 8 C 1.189149 0.251731 -1.871569 0
M  V30 9 C 2.406805 0.188033 -2.556654 0
M  V30 10 C 3.523749 0.752957 -1.978340 0
M  V30 11 C 3.438874 1.368225 -0.748201 0
M  V30 12 C 2.280256 1.458158 -0.039659 0
M  V30 13 C 2.105750 2.088137 1.261990 0
M  V30 14 O 0.967344 2.113310 1.796069 0
M  V30 15 N 3.157636 2.687415 1.981392 0
M  V30 16 C 3.145093 3.347294 3.269339 0
M  V30 17 C 2.224336 4.509773 3.176757 0
M  V30 18 C 2.816711 5.546543 2.445241 0
M  V30 19 F 4.053048 5.523792 1.881320 0
M  V30 20 C 2.152934 6.741805 2.227093 0
M  V30 21 C 0.886337 6.879485 2.754309 0
M  V30 22 C 0.299467 5.879188 3.467330 0
M  V30 23 C 0.955116 4.687301 3.687962 0
M  V30 24 F 0.502704 3.617642 4.377293 0
M  V30 25 C 1.185451 0.877087 -0.659388 0
M  V30 26 N -3.132954 -0.449393 -3.519998 0
M  V30 27 N -3.883051 -1.429368 -4.004414 0
M  V30 28 C -3.566127 -2.593278 -3.390850 0
M  V30 29 C -4.101023 -3.942278 -3.567389 0
M  V30 30 C -5.286052 -4.486801 -3.084510 0
M  V30 31 C -5.555100 -5.806610 -3.402482 0
M  V30 32 N -4.683533 -6.511301 -4.152767 0
M  V30 33 C -3.541170 -5.984362 -4.617547 0
M  V30 34 N -3.258047 -4.696202 -4.318885 0
M  V30 35 H -1.113564 -4.776589 0.045082 0
M  V30 36 H -2.602293 -5.105581 0.951784 0
M  V30 37 H -1.509725 -3.807390 1.535470 0
M  V30 38 H -3.683034 -3.666709 -0.405382 0
M  V30 39 H -2.727182 -2.303658 0.179711 0
M  V30 40 H -1.851227 -4.231742 -2.036062 0
M  V30 41 H -0.886694 -2.883212 -1.365611 0
M  V30 42 H -1.557199 0.794715 -1.658390 0
M  V30 43 H -1.165972 -0.733656 -0.757551 0
M  V30 44 H 0.081525 -0.780922 -3.368255 0
M  V30 45 H 2.443193 -0.304205 -3.526195 0
M  V30 46 H 4.489788 0.712032 -2.503261 0
M  V30 47 H 4.332933 1.793453 -0.337510 0
M  V30 48 H 4.093100 2.632733 1.478836 0
M  V30 49 H 2.733077 2.675716 4.055116 0
M  V30 50 H 4.159324 3.648048 3.562733 0
M  V30 51 H 2.547063 7.570521 1.679035 0
M  V30 52 H 0.339341 7.821524 2.593388 0
M  V30 53 H -0.681818 5.948893 3.891986 0
M  V30 54 H 0.216130 0.903828 -0.160137 0
M  V30 55 H -5.857645 -3.781080 -2.505373 0
M  V30 56 H -6.487878 -6.168046 -2.998274 0
M  V30 57 H -2.908822 -6.632694 -5.210842 0
M  V30 END ATOM
M  V30 BEGIN BOND
M  V30 1 1 1 2
M  V30 2 1 2 3
M  V30 3 1 3 4
M  V30 4 1 4 5
M  V30 5 1 5 6
M  V30 6 1 6 7
M  V30 7 1 7 8
M  V30 8 2 8 9
M  V30 9 1 9 10
M  V30 10 2 10 11
M  V30 11 1 11 12
M  V30 12 1 12 13
M  V30 13 2 13 14
M  V30 14 1 13 15
M  V30 15 1 15 16
M  V30 16 1 16 17
M  V30 17 2 17 18
M  V30 18 1 18 19
M  V30 19 1 18 20
M  V30 20 2 20 21
M  V30 21 1 21 22
M  V30 22 2 22 23
M  V30 23 1 23 24
M  V30 24 2 12 25
M  V30 25 2 5 26
M  V30 26 1 26 27
M  V30 27 2 27 28
M  V30 28 1 28 29
M  V30 29 2 29 30
M  V30 30 1 30 31
M  V30 31 2 31 32
M  V30 32 1 32 33
M  V30 33 2 33 34
M  V30 34 1 28 4
M  V30 35 1 34 29
M  V30 36 1 25 8
M  V30 37 1 23 17
M  V30 38 1 1 35
M  V30 39 1 1 36
M  V30 40 1 1 37
M  V30 41 1 2 38
M  V30 42 1 2 39
M  V30 43 1 3 40
M  V30 44 1 3 41
M  V30 45 1 6 42
M  V30 46 1 6 43
M  V30 47 1 7 44
M  V30 48 1 9 45
M  V30 49 1 10 46
M  V30 50 1 11 47
M  V30 51 1 15 48
M  V30 52 1 16 49
M  V30 53 1 16 50
M  V30 54 1 20 51
M  V30 55 1 21 52
M  V30 56 1 22 53
M  V30 57 1 25 54
M  V30 58 1 30 55
M  V30 59 1 31 56
M  V30 60 1 33 57
M  V30 END BOND
M  V30 END CTAB
M  END
>  <Dataset>  (266) 
ChEMBL_Kinases

>  <Ligand_Instance>  (266) 
nan

>  <PDB_ID>  (266) 
nan

>  <Standardized_SMILES>  (266) 
CCCn1c(CNc2cccc(C(=O)NCc3c(F)cccc3F)c2)nnc1-c1ccncn1

>  <Name>  (266) 
nan

>  <Pocket>  (266) 
nan

>  <ATP_Site>  (266) 
nan

>  <Peripheral>  (266) 
nan

>  <Num_H_Atoms_ProtBoundConf>  (266) 
nan

>  <Num_Resolved_Atoms>  (266) 
nan

>  <Num_Not_Resolved_Atoms>  (266) 
nan

$$$$
CHEMBL3545110
     RDKit          3D

  0  0  0  0  0  0  0  0  0  0999 V3000
M  V30 BEGIN CTAB
M  V30 COUNTS 62 66 0 0 0
M  V30 BEGIN ATOM
M  V30 1 C 2.631461 -1.214534 5.261681 0
M  V30 2 N 3.230634 -2.401765 4.710869 0
M  V30 3 C 3.450480 -3.518926 5.613038 0
M  V30 4 C 3.641131 -2.632037 3.342711 0
M  V30 5 O 4.178903 -3.723332 2.956942 0
M  V30 6 C 3.508995 -1.691713 2.239049 0
M  V30 7 C 4.093225 -0.463918 2.012166 0
M  V30 8 C 3.585820 -0.047897 0.809415 0
M  V30 9 C 3.730882 1.054216 0.001044 0
M  V30 10 N 3.104157 1.231740 -1.165293 0
M  V30 11 C 2.242177 0.270900 -1.633422 0
M  V30 12 N 1.399129 0.098946 -2.786531 0
M  V30 13 C 0.093609 0.539957 -2.528050 0
M  V30 14 C -0.317561 1.125644 -1.357131 0
M  V30 15 C -1.605703 1.541437 -1.043536 0
M  V30 16 C -2.554863 1.334853 -2.023548 0
M  V30 17 N -3.901269 1.719532 -1.807736 0
M  V30 18 C -5.020317 1.142183 -2.566581 0
M  V30 19 C -6.065579 0.730149 -1.550241 0
M  V30 20 N -6.608962 1.928151 -0.965238 0
M  V30 21 C -5.727619 3.077259 -1.090204 0
M  V30 22 C -4.268645 2.718546 -0.826834 0
M  V30 23 C -2.132907 0.746968 -3.196257 0
M  V30 24 N -0.860647 0.340940 -3.494956 0
M  V30 25 N 2.068790 -0.822347 -0.879526 0
M  V30 26 C 2.705420 -0.986681 0.290001 0
M  V30 27 N 2.682382 -2.002880 1.213211 0
M  V30 28 C 1.850892 -3.181905 1.024003 0
M  V30 29 C 0.908652 -3.024888 -0.130440 0
M  V30 30 C -0.008123 -4.237247 0.112872 0
M  V30 31 C -0.180761 -4.233449 1.638857 0
M  V30 32 C 0.957362 -3.417908 2.196048 0
M  V30 33 H 2.334501 -0.468229 4.520113 0
M  V30 34 H 1.724773 -1.523677 5.819977 0
M  V30 35 H 3.317887 -0.774709 6.041983 0
M  V30 36 H 3.827979 -4.430420 5.100096 0
M  V30 37 H 4.232292 -3.205059 6.332392 0
M  V30 38 H 2.467494 -3.746883 6.128695 0
M  V30 39 H 4.782590 0.044468 2.633700 0
M  V30 40 H 4.379107 1.833318 0.297328 0
M  V30 41 H 1.680447 -0.290728 -3.696265 0
M  V30 42 H 0.408435 1.305472 -0.565532 0
M  V30 43 H -1.837930 1.995543 -0.096213 0
M  V30 44 H -5.351320 1.879149 -3.295986 0
M  V30 45 H -4.658408 0.232813 -3.119635 0
M  V30 46 H -6.818399 0.082920 -1.994578 0
M  V30 47 H -5.519813 0.166602 -0.762220 0
M  V30 48 H -7.510080 2.155981 -1.421603 0
M  V30 49 H -6.067795 3.837678 -0.355150 0
M  V30 50 H -5.753478 3.521245 -2.128402 0
M  V30 51 H -3.684266 3.640329 -1.090351 0
M  V30 52 H -4.073922 2.391282 0.197948 0
M  V30 53 H -2.871549 0.577445 -3.994899 0
M  V30 54 H 2.465758 -4.084541 0.852072 0
M  V30 55 H 0.312542 -2.100428 0.047465 0
M  V30 56 H 1.373050 -3.086725 -1.122132 0
M  V30 57 H -0.951437 -4.134488 -0.424472 0
M  V30 58 H 0.574637 -5.143370 -0.126368 0
M  V30 59 H -0.203414 -5.261025 2.057401 0
M  V30 60 H -1.179220 -3.796234 1.886091 0
M  V30 61 H 1.450548 -3.996704 3.006430 0
M  V30 62 H 0.536659 -2.443261 2.579439 0
M  V30 END ATOM
M  V30 BEGIN BOND
M  V30 1 1 1 2
M  V30 2 1 2 3
M  V30 3 1 2 4
M  V30 4 2 4 5
M  V30 5 1 4 6
M  V30 6 2 6 7
M  V30 7 1 7 8
M  V30 8 2 8 9
M  V30 9 1 9 10
M  V30 10 2 10 11
M  V30 11 1 11 12
M  V30 12 1 12 13
M  V30 13 2 13 14
M  V30 14 1 14 15
M  V30 15 2 15 16
M  V30 16 1 16 17
M  V30 17 1 17 18
M  V30 18 1 18 19
M  V30 19 1 19 20
M  V30 20 1 20 21
M  V30 21 1 21 22
M  V30 22 1 16 23
M  V30 23 2 23 24
M  V30 24 1 11 25
M  V30 25 2 25 26
M  V30 26 1 26 27
M  V30 27 1 27 28
M  V30 28 1 28 29
M  V30 29 1 29 30
M  V30 30 1 30 31
M  V30 31 1 31 32
M  V30 32 1 27 6
M  V30 33 1 32 28
M  V30 34 1 26 8
M  V30 35 1 24 13
M  V30 36 1 22 17
M  V30 37 1 1 33
M  V30 38 1 1 34
M  V30 39 1 1 35
M  V30 40 1 3 36
M  V30 41 1 3 37
M  V30 42 1 3 38
M  V30 43 1 7 39
M  V30 44 1 9 40
M  V30 45 1 12 41
M  V30 46 1 14 42
M  V30 47 1 15 43
M  V30 48 1 18 44
M  V30 49 1 18 45
M  V30 50 1 19 46
M  V30 51 1 19 47
M  V30 52 1 20 48
M  V30 53 1 21 49
M  V30 54 1 21 50
M  V30 55 1 22 51
M  V30 56 1 22 52
M  V30 57 1 23 53
M  V30 58 1 28 54
M  V30 59 1 29 55
M  V30 60 1 29 56
M  V30 61 1 30 57
M  V30 62 1 30 58
M  V30 63 1 31 59
M  V30 64 1 31 60
M  V30 65 1 32 61
M  V30 66 1 32 62
M  V30 END BOND
M  V30 END CTAB
M  END
>  <Dataset>  (267) 
ChEMBL_Kinases

>  <Ligand_Instance>  (267) 
nan

>  <PDB_ID>  (267) 
nan

>  <Standardized_SMILES>  (267) 
CN(C)C(=O)c1cc2cnc(Nc3ccc(N4CCNCC4)cn3)nc2n1C1CCCC1

>  <Name>  (267) 
RIBOCICLIB

>  <Pocket>  (267) 
nan

>  <ATP_Site>  (267) 
nan

>  <Peripheral>  (267) 
nan

>  <Num_H_Atoms_ProtBoundConf>  (267) 
nan

>  <Num_Resolved_Atoms>  (267) 
nan

>  <Num_Not_Resolved_Atoms>  (267) 
nan

$$$$
CHEMBL4795714
     RDKit          3D

  0  0  0  0  0  0  0  0  0  0999 V3000
M  V30 BEGIN CTAB
M  V30 COUNTS 50 52 0 0 0
M  V30 BEGIN ATOM
M  V30 1 C -0.509297 -5.266540 1.018346 0
M  V30 2 C -0.510730 -3.788395 0.611275 0
M  V30 3 C 0.250956 -3.653511 -0.649501 0
M  V30 4 C 1.663720 -4.075433 -0.623696 0
M  V30 5 C 2.554045 -3.357056 0.335685 0
M  V30 6 N 2.601168 -1.933743 0.051436 0
M  V30 7 C 1.826365 -0.943709 0.517220 0
M  V30 8 C 2.179200 0.285873 0.015937 0
M  V30 9 C 1.635305 1.619031 0.233108 0
M  V30 10 C 2.279866 2.646523 -0.472826 0
M  V30 11 C 1.873782 3.971138 -0.367296 0
M  V30 12 C 0.811226 4.300240 0.448502 0
M  V30 13 C 0.224233 3.257807 1.109789 0
M  V30 14 C 0.562767 1.921869 1.061559 0
M  V30 15 O 0.015167 0.882225 1.690246 0
M  V30 16 C -1.004652 0.659706 2.563751 0
M  V30 17 C -2.368889 1.010410 2.176949 0
M  V30 18 C -3.113211 0.059004 1.465812 0
M  V30 19 C -4.411196 0.205259 1.026307 0
M  V30 20 C -5.038188 1.395376 1.310446 0
M  V30 21 C -4.370342 2.376237 2.005105 0
M  V30 22 C -3.078690 2.168687 2.415131 0
M  V30 23 N 3.217929 -0.000731 -0.787572 0
M  V30 24 C 3.472916 -1.320605 -0.769799 0
M  V30 25 N 4.515634 -1.934363 -1.520289 0
M  V30 26 H -1.515818 -5.605855 1.340092 0
M  V30 27 H -0.222120 -5.925416 0.159864 0
M  V30 28 H 0.139772 -5.434120 1.914185 0
M  V30 29 H -0.249079 -3.136459 1.439621 0
M  V30 30 H -1.587161 -3.563625 0.389058 0
M  V30 31 H 0.167097 -2.588788 -1.006692 0
M  V30 32 H -0.273315 -4.237015 -1.433872 0
M  V30 33 H 1.760250 -5.176591 -0.528117 0
M  V30 34 H 2.083117 -3.870918 -1.653775 0
M  V30 35 H 3.584891 -3.743930 0.192320 0
M  V30 36 H 2.323524 -3.561170 1.397745 0
M  V30 37 H 1.019853 -1.116596 1.209449 0
M  V30 38 H 3.130529 2.499249 -1.145886 0
M  V30 39 H 2.373026 4.758963 -0.912746 0
M  V30 40 H 0.455262 5.313422 0.566462 0
M  V30 41 H -0.606342 3.514925 1.750261 0
M  V30 42 H -0.764228 1.117632 3.568522 0
M  V30 43 H -1.017366 -0.448562 2.798868 0
M  V30 44 H -2.634582 -0.901581 1.225813 0
M  V30 45 H -4.894656 -0.588859 0.486288 0
M  V30 46 H -6.056116 1.588538 1.000443 0
M  V30 47 H -4.834364 3.329229 2.247431 0
M  V30 48 H -2.545310 2.929714 2.967671 0
M  V30 49 H 5.166813 -2.651759 -1.139915 0
M  V30 50 H 4.618762 -1.627166 -2.529452 0
M  V30 END ATOM
M  V30 BEGIN BOND
M  V30 1 1 1 2
M  V30 2 1 2 3
M  V30 3 1 3 4
M  V30 4 1 4 5
M  V30 5 1 5 6
M  V30 6 1 6 7
M  V30 7 2 7 8
M  V30 8 1 8 9
M  V30 9 2 9 10
M  V30 10 1 10 11
M  V30 11 2 11 12
M  V30 12 1 12 13
M  V30 13 2 13 14
M  V30 14 1 14 15
M  V30 15 1 15 16
M  V30 16 1 16 17
M  V30 17 2 17 18
M  V30 18 1 18 19
M  V30 19 2 19 20
M  V30 20 1 20 21
M  V30 21 2 21 22
M  V30 22 1 8 23
M  V30 23 2 23 24
M  V30 24 1 24 25
M  V30 25 1 24 6
M  V30 26 1 14 9
M  V30 27 1 22 17
M  V30 28 1 1 26
M  V30 29 1 1 27
M  V30 30 1 1 28
M  V30 31 1 2 29
M  V30 32 1 2 30
M  V30 33 1 3 31
M  V30 34 1 3 32
M  V30 35 1 4 33
M  V30 36 1 4 34
M  V30 37 1 5 35
M  V30 38 1 5 36
M  V30 39 1 7 37
M  V30 40 1 10 38
M  V30 41 1 11 39
M  V30 42 1 12 40
M  V30 43 1 13 41
M  V30 44 1 16 42
M  V30 45 1 16 43
M  V30 46 1 18 44
M  V30 47 1 19 45
M  V30 48 1 20 46
M  V30 49 1 21 47
M  V30 50 1 22 48
M  V30 51 1 25 49
M  V30 52 1 25 50
M  V30 END BOND
M  V30 END CTAB
M  END
>  <Dataset>  (268) 
ChEMBL_Kinases

>  <Ligand_Instance>  (268) 
nan

>  <PDB_ID>  (268) 
nan

>  <Standardized_SMILES>  (268) 
CCCCCn1cc(-c2ccccc2OCc2ccccc2)nc1N

>  <Name>  (268) 
nan

>  <Pocket>  (268) 
nan

>  <ATP_Site>  (268) 
nan

>  <Peripheral>  (268) 
nan

>  <Num_H_Atoms_ProtBoundConf>  (268) 
nan

>  <Num_Resolved_Atoms>  (268) 
nan

>  <Num_Not_Resolved_Atoms>  (268) 
nan

$$$$
CHEMBL4446892
     RDKit          3D

  0  0  0  0  0  0  0  0  0  0999 V3000
M  V30 BEGIN CTAB
M  V30 COUNTS 48 50 0 0 0
M  V30 BEGIN ATOM
M  V30 1 C -2.107988 2.844460 2.896988 0
M  V30 2 C -0.935126 1.951172 2.775739 0
M  V30 3 N -0.440214 1.146886 3.747435 0
M  V30 4 N 0.605624 0.490385 3.303851 0
M  V30 5 C 1.482097 -0.484366 3.946594 0
M  V30 6 C 2.638209 0.186540 4.617697 0
M  V30 7 F 3.406971 -0.828720 5.195751 0
M  V30 8 F 2.208588 1.074270 5.581907 0
M  V30 9 F 3.440948 0.833470 3.704441 0
M  V30 10 C 0.796486 0.871860 2.022911 0
M  V30 11 C -0.170556 1.806782 1.648037 0
M  V30 12 N -0.301067 2.445047 0.369337 0
M  V30 13 C 0.640149 2.110363 -0.645362 0
M  V30 14 N 1.822373 2.735479 -0.895189 0
M  V30 15 C 2.631404 2.320549 -1.890575 0
M  V30 16 C 2.250173 1.245345 -2.664613 0
M  V30 17 Br 3.374107 0.631976 -4.083762 0
M  V30 18 C 1.042107 0.582566 -2.432637 0
M  V30 19 N 0.629980 -0.525198 -3.215553 0
M  V30 20 C -0.566746 -1.285300 -3.086421 0
M  V30 21 C -0.772586 -1.962232 -1.807017 0
M  V30 22 C -0.236697 -3.250123 -1.680275 0
M  V30 23 C -0.362049 -3.991850 -0.539509 0
M  V30 24 C -1.032549 -3.507000 0.566039 0
M  V30 25 S -1.288393 -4.301961 2.089863 0
M  V30 26 N -2.756064 -5.227808 2.080468 0
M  V30 27 O -0.162653 -5.239219 2.370065 0
M  V30 28 O -1.315161 -3.282629 3.207062 0
M  V30 29 C -1.570750 -2.236355 0.464118 0
M  V30 30 C -1.434964 -1.501174 -0.695153 0
M  V30 31 N 0.321544 1.082852 -1.418260 0
M  V30 32 H -2.777127 2.705812 2.010331 0
M  V30 33 H -2.703827 2.542281 3.805923 0
M  V30 34 H -1.788806 3.899808 2.965648 0
M  V30 35 H 0.891958 -1.017880 4.738448 0
M  V30 36 H 1.872570 -1.220809 3.225694 0
M  V30 37 H 1.580868 0.523272 1.345920 0
M  V30 38 H -1.092164 3.120038 0.277804 0
M  V30 39 H 3.563899 2.840371 -2.061432 0
M  V30 40 H 1.293954 -0.821965 -3.989867 0
M  V30 41 H -1.452487 -0.599804 -3.226099 0
M  V30 42 H -0.690297 -2.050350 -3.878707 0
M  V30 43 H 0.317134 -3.768856 -2.461260 0
M  V30 44 H 0.041013 -4.989005 -0.411850 0
M  V30 45 H -3.517493 -4.666503 2.514336 0
M  V30 46 H -2.651628 -6.130639 2.595121 0
M  V30 47 H -2.125042 -1.747777 1.280012 0
M  V30 48 H -1.855695 -0.521274 -0.769274 0
M  V30 END ATOM
M  V30 BEGIN BOND
M  V30 1 1 1 2
M  V30 2 2 2 3
M  V30 3 1 3 4
M  V30 4 1 4 5
M  V30 5 1 5 6
M  V30 6 1 6 7
M  V30 7 1 6 8
M  V30 8 1 6 9
M  V30 9 1 4 10
M  V30 10 2 10 11
M  V30 11 1 11 12
M  V30 12 1 12 13
M  V30 13 2 13 14
M  V30 14 1 14 15
M  V30 15 2 15 16
M  V30 16 1 16 17
M  V30 17 1 16 18
M  V30 18 1 18 19
M  V30 19 1 19 20
M  V30 20 1 20 21
M  V30 21 2 21 22
M  V30 22 1 22 23
M  V30 23 2 23 24
M  V30 24 1 24 25
M  V30 25 1 25 26
M  V30 26 2 25 27
M  V30 27 2 25 28
M  V30 28 1 24 29
M  V30 29 2 29 30
M  V30 30 2 18 31
M  V30 31 1 11 2
M  V30 32 1 31 13
M  V30 33 1 30 21
M  V30 34 1 1 32
M  V30 35 1 1 33
M  V30 36 1 1 34
M  V30 37 1 5 35
M  V30 38 1 5 36
M  V30 39 1 10 37
M  V30 40 1 12 38
M  V30 41 1 15 39
M  V30 42 1 19 40
M  V30 43 1 20 41
M  V30 44 1 20 42
M  V30 45 1 22 43
M  V30 46 1 23 44
M  V30 47 1 26 45
M  V30 48 1 26 46
M  V30 49 1 29 47
M  V30 50 1 30 48
M  V30 END BOND
M  V30 END CTAB
M  END
>  <Dataset>  (269) 
ChEMBL_Kinases

>  <Ligand_Instance>  (269) 
nan

>  <PDB_ID>  (269) 
nan

>  <Standardized_SMILES>  (269) 
Cc1nn(CC(F)(F)F)cc1Nc1ncc(Br)c(NCc2ccc(S(N)(=O)=O)cc2)n1

>  <Name>  (269) 
nan

>  <Pocket>  (269) 
nan

>  <ATP_Site>  (269) 
nan

>  <Peripheral>  (269) 
nan

>  <Num_H_Atoms_ProtBoundConf>  (269) 
nan

>  <Num_Resolved_Atoms>  (269) 
nan

>  <Num_Not_Resolved_Atoms>  (269) 
nan

$$$$
CHEMBL1240885
     RDKit          3D

  0  0  0  0  0  0  0  0  0  0999 V3000
M  V30 BEGIN CTAB
M  V30 COUNTS 27 29 0 0 0
M  V30 BEGIN ATOM
M  V30 1 N -1.400425 -2.357209 0.944717 0
M  V30 2 C -0.389097 -2.452505 1.934264 0
M  V30 3 N -0.622779 -3.042400 3.140071 0
M  V30 4 C 0.387802 -3.106338 4.055021 0
M  V30 5 N 1.629141 -2.614665 3.841996 0
M  V30 6 C 1.922912 -2.012667 2.653218 0
M  V30 7 N 2.994333 -1.421338 2.077441 0
M  V30 8 N 2.647220 -1.015823 0.863928 0
M  V30 9 C 1.352361 -1.326479 0.612486 0
M  V30 10 N 0.795856 -0.969255 -0.646422 0
M  V30 11 C 0.176434 0.298430 -0.823542 0
M  V30 12 C 0.097002 1.191478 0.224334 0
M  V30 13 C -0.495579 2.446465 0.111700 0
M  V30 14 C -1.016982 2.761222 -1.145142 0
M  V30 15 F -1.587126 3.993869 -1.217166 0
M  V30 16 C -0.954823 1.890868 -2.216044 0
M  V30 17 C -0.351538 0.650383 -2.047065 0
M  V30 18 C 0.885529 -1.960305 1.745449 0
M  V30 19 H -1.329646 -3.222167 0.335360 0
M  V30 20 H -2.092754 -1.574640 0.834450 0
M  V30 21 H 0.186310 -3.584067 5.023063 0
M  V30 22 H 3.913646 -1.332049 2.563149 0
M  V30 23 H 0.839194 -1.637989 -1.449558 0
M  V30 24 H 0.514073 0.919409 1.200718 0
M  V30 25 H -0.540913 3.118360 0.947730 0
M  V30 26 H -1.393869 2.229846 -3.165436 0
M  V30 27 H -0.320622 -0.014798 -2.920487 0
M  V30 END ATOM
M  V30 BEGIN BOND
M  V30 1 1 1 2
M  V30 2 2 2 3
M  V30 3 1 3 4
M  V30 4 2 4 5
M  V30 5 1 5 6
M  V30 6 1 6 7
M  V30 7 1 7 8
M  V30 8 2 8 9
M  V30 9 1 9 10
M  V30 10 1 10 11
M  V30 11 2 11 12
M  V30 12 1 12 13
M  V30 13 2 13 14
M  V30 14 1 14 15
M  V30 15 1 14 16
M  V30 16 2 16 17
M  V30 17 1 9 18
M  V30 18 1 18 2
M  V30 19 2 18 6
M  V30 20 1 17 11
M  V30 21 1 1 19
M  V30 22 1 1 20
M  V30 23 1 4 21
M  V30 24 1 7 22
M  V30 25 1 10 23
M  V30 26 1 12 24
M  V30 27 1 13 25
M  V30 28 1 16 26
M  V30 29 1 17 27
M  V30 END BOND
M  V30 END CTAB
M  END
>  <Dataset>  (270) 
ChEMBL_Kinases

>  <Ligand_Instance>  (270) 
nan

>  <PDB_ID>  (270) 
nan

>  <Standardized_SMILES>  (270) 
Nc1ncnc2[nH]nc(Nc3ccc(F)cc3)c12

>  <Name>  (270) 
nan

>  <Pocket>  (270) 
nan

>  <ATP_Site>  (270) 
nan

>  <Peripheral>  (270) 
nan

>  <Num_H_Atoms_ProtBoundConf>  (270) 
nan

>  <Num_Resolved_Atoms>  (270) 
nan

>  <Num_Not_Resolved_Atoms>  (270) 
nan

$$$$
CHEMBL7463
     RDKit          3D

  0  0  0  0  0  0  0  0  0  0999 V3000
M  V30 BEGIN CTAB
M  V30 COUNTS 55 59 0 0 0
M  V30 BEGIN ATOM
M  V30 1 C 5.642250 -1.525134 3.609563 0
M  V30 2 N 5.183908 -1.197659 2.222975 0
M  V30 3 C 4.846950 -2.488313 1.669278 0
M  V30 4 C 4.073757 -0.322030 2.414264 0
M  V30 5 C 3.447074 0.346068 1.296885 0
M  V30 6 C 2.729840 -0.254759 0.183237 0
M  V30 7 N 1.539094 -0.988958 0.404731 0
M  V30 8 C 0.444466 -0.201096 0.683168 0
M  V30 9 C -0.711259 -0.897946 0.971197 0
M  V30 10 C -2.081697 -0.520106 1.283887 0
M  V30 11 C -2.951071 0.314565 0.715074 0
M  V30 12 C -2.906329 1.192900 -0.441160 0
M  V30 13 C -2.007539 2.146686 -0.863591 0
M  V30 14 N -2.348655 2.707372 -2.031870 0
M  V30 15 C -3.497532 2.139919 -2.431193 0
M  V30 16 C -4.218915 2.394902 -3.575971 0
M  V30 17 C -5.379024 1.695572 -3.813760 0
M  V30 18 C -5.767062 0.760625 -2.880592 0
M  V30 19 C -5.030251 0.521877 -1.742577 0
M  V30 20 C -3.853902 1.210330 -1.470092 0
M  V30 21 C -4.191311 0.318427 1.495273 0
M  V30 22 O -5.290019 0.937097 1.364171 0
M  V30 23 N -4.062270 -0.567199 2.600364 0
M  V30 24 C -2.746285 -1.096789 2.478118 0
M  V30 25 O -2.300015 -1.940099 3.330804 0
M  V30 26 C -0.329717 -2.240435 0.868239 0
M  V30 27 C -0.877087 -3.492707 0.974294 0
M  V30 28 C -0.199549 -4.673674 0.771762 0
M  V30 29 C 1.143665 -4.579455 0.432634 0
M  V30 30 C 1.730668 -3.356291 0.315983 0
M  V30 31 C 1.003287 -2.210683 0.532328 0
M  V30 32 H 4.862048 -2.145510 4.092377 0
M  V30 33 H 6.612294 -2.069777 3.539697 0
M  V30 34 H 5.771870 -0.613259 4.207718 0
M  V30 35 H 5.559450 -3.282652 2.031444 0
M  V30 36 H 3.863576 -2.827021 2.083055 0
M  V30 37 H 4.917941 -2.518728 0.571174 0
M  V30 38 H 3.374912 -0.873575 3.100769 0
M  V30 39 H 4.472528 0.496184 3.111987 0
M  V30 40 H 2.759911 1.203028 1.678226 0
M  V30 41 H 4.272387 1.010985 0.819862 0
M  V30 42 H 3.436772 -0.932075 -0.372915 0
M  V30 43 H 2.503131 0.539955 -0.604201 0
M  V30 44 H 0.297061 0.878276 0.729071 0
M  V30 45 H -1.120730 2.429563 -0.323248 0
M  V30 46 H -1.797216 3.460171 -2.532572 0
M  V30 47 H -3.908617 3.132196 -4.308487 0
M  V30 48 H -5.936747 1.904240 -4.715083 0
M  V30 49 H -6.683301 0.222330 -3.089175 0
M  V30 50 H -5.382227 -0.225248 -1.061279 0
M  V30 51 H -4.759319 -0.810523 3.367617 0
M  V30 52 H -1.923928 -3.563421 1.226974 0
M  V30 53 H -0.730450 -5.609806 0.882168 0
M  V30 54 H 1.691868 -5.509393 0.268184 0
M  V30 55 H 2.756398 -3.369879 0.036461 0
M  V30 END ATOM
M  V30 BEGIN BOND
M  V30 1 1 1 2
M  V30 2 1 2 3
M  V30 3 1 2 4
M  V30 4 1 4 5
M  V30 5 1 5 6
M  V30 6 1 6 7
M  V30 7 1 7 8
M  V30 8 2 8 9
M  V30 9 1 9 10
M  V30 10 2 10 11
M  V30 11 1 11 12
M  V30 12 2 12 13
M  V30 13 1 13 14
M  V30 14 1 14 15
M  V30 15 2 15 16
M  V30 16 1 16 17
M  V30 17 2 17 18
M  V30 18 1 18 19
M  V30 19 2 19 20
M  V30 20 1 11 21
M  V30 21 2 21 22
M  V30 22 1 21 23
M  V30 23 1 23 24
M  V30 24 2 24 25
M  V30 25 1 9 26
M  V30 26 2 26 27
M  V30 27 1 27 28
M  V30 28 2 28 29
M  V30 29 1 29 30
M  V30 30 2 30 31
M  V30 31 1 31 7
M  V30 32 1 24 10
M  V30 33 1 31 26
M  V30 34 1 20 12
M  V30 35 1 20 15
M  V30 36 1 1 32
M  V30 37 1 1 33
M  V30 38 1 1 34
M  V30 39 1 3 35
M  V30 40 1 3 36
M  V30 41 1 3 37
M  V30 42 1 4 38
M  V30 43 1 4 39
M  V30 44 1 5 40
M  V30 45 1 5 41
M  V30 46 1 6 42
M  V30 47 1 6 43
M  V30 48 1 8 44
M  V30 49 1 13 45
M  V30 50 1 14 46
M  V30 51 1 16 47
M  V30 52 1 17 48
M  V30 53 1 18 49
M  V30 54 1 19 50
M  V30 55 1 23 51
M  V30 56 1 27 52
M  V30 57 1 28 53
M  V30 58 1 29 54
M  V30 59 1 30 55
M  V30 END BOND
M  V30 END CTAB
M  END
>  <Dataset>  (271) 
ChEMBL_Kinases

>  <Ligand_Instance>  (271) 
nan

>  <PDB_ID>  (271) 
nan

>  <Standardized_SMILES>  (271) 
CN(C)CCCn1cc(C2=C(c3c[nH]c4ccccc34)C(=O)NC2=O)c2ccccc21

>  <Name>  (271) 
GF-109203

>  <Pocket>  (271) 
nan

>  <ATP_Site>  (271) 
nan

>  <Peripheral>  (271) 
nan

>  <Num_H_Atoms_ProtBoundConf>  (271) 
nan

>  <Num_Resolved_Atoms>  (271) 
nan

>  <Num_Not_Resolved_Atoms>  (271) 
nan

$$$$
CHEMBL3092863
     RDKit          3D

  0  0  0  0  0  0  0  0  0  0999 V3000
M  V30 BEGIN CTAB
M  V30 COUNTS 66 69 0 0 0
M  V30 BEGIN ATOM
M  V30 1 N 0.205122 -5.474712 3.401861 0
M  V30 2 C 1.210008 -4.510980 3.802198 0
M  V30 3 C 2.565884 -4.818364 3.252684 0
M  V30 4 O 2.666510 -4.853526 1.886756 0
M  V30 5 C 2.323444 -3.640403 1.276516 0
M  V30 6 C 2.471601 -3.702959 -0.217224 0
M  V30 7 O 2.126867 -2.488228 -0.814312 0
M  V30 8 C 2.307812 -2.532377 -2.192027 0
M  V30 9 C 1.924975 -1.136933 -2.730557 0
M  V30 10 O 2.085549 -1.072222 -4.074124 0
M  V30 11 C 1.796450 0.089694 -4.710701 0
M  V30 12 C 2.522882 1.314618 -4.224749 0
M  V30 13 O 2.293068 1.687237 -2.910377 0
M  V30 14 C 1.128132 2.154384 -2.346961 0
M  V30 15 C -0.078147 2.404750 -2.957301 0
M  V30 16 C -1.215802 2.873137 -2.344133 0
M  V30 17 C -1.174746 3.124899 -0.990328 0
M  V30 18 N -2.324894 3.667610 -0.343984 0
M  V30 19 C -2.597917 3.583171 1.069748 0
M  V30 20 N -2.568906 2.400340 1.623205 0
M  V30 21 C -2.864534 2.572074 2.999030 0
M  V30 22 C -2.943349 1.541476 3.826768 0
M  V30 23 C -2.724464 0.203044 3.307443 0
M  V30 24 C -3.563613 -0.745112 3.911677 0
M  V30 25 C -3.567843 -2.089068 3.571946 0
M  V30 26 C -2.718101 -2.525609 2.602652 0
M  V30 27 C -1.890147 -1.571897 2.012957 0
M  V30 28 C -1.878179 -0.234878 2.344459 0
M  V30 29 O -1.132826 -2.287506 1.063128 0
M  V30 30 C -1.915675 -3.439639 0.694388 0
M  V30 31 O -2.427893 -3.766916 1.991132 0
M  V30 32 C -3.074679 3.999897 3.208544 0
M  V30 33 O -3.352267 4.524782 4.292467 0
M  V30 34 N -2.904709 4.662906 1.962274 0
M  V30 35 C 0.031297 2.884059 -0.324844 0
M  V30 36 C 1.159474 2.412324 -0.972369 0
M  V30 37 H 0.325899 -6.388155 3.927608 0
M  V30 38 H -0.729405 -5.092525 3.730125 0
M  V30 39 H 1.286632 -4.536543 4.930519 0
M  V30 40 H 0.880299 -3.488970 3.524660 0
M  V30 41 H 3.297931 -4.057052 3.609372 0
M  V30 42 H 2.926843 -5.801758 3.649220 0
M  V30 43 H 1.273899 -3.463463 1.531562 0
M  V30 44 H 2.905925 -2.823664 1.728200 0
M  V30 45 H 3.580943 -3.815325 -0.411814 0
M  V30 46 H 1.941583 -4.560435 -0.658951 0
M  V30 47 H 3.347206 -2.791491 -2.418583 0
M  V30 48 H 1.655211 -3.299823 -2.661179 0
M  V30 49 H 0.876750 -0.995332 -2.459787 0
M  V30 50 H 2.641347 -0.435576 -2.241777 0
M  V30 51 H 2.178616 -0.044873 -5.780162 0
M  V30 52 H 0.711873 0.273491 -4.820569 0
M  V30 53 H 3.608015 1.246943 -4.446157 0
M  V30 54 H 2.155241 2.154219 -4.890110 0
M  V30 55 H -0.163152 2.240941 -4.002927 0
M  V30 56 H -2.124656 3.043652 -2.898963 0
M  V30 57 H -3.053792 4.202915 -0.878530 0
M  V30 58 H -3.167967 1.757418 4.859412 0
M  V30 59 H -4.289826 -0.503848 4.704933 0
M  V30 60 H -4.214770 -2.806610 4.041650 0
M  V30 61 H -1.245385 0.499979 1.904630 0
M  V30 62 H -2.752716 -3.058122 0.092530 0
M  V30 63 H -1.322866 -4.238030 0.257860 0
M  V30 64 H -2.975218 5.658752 1.687455 0
M  V30 65 H 0.025499 3.095783 0.752506 0
M  V30 66 H 2.076437 2.244126 -0.393339 0
M  V30 END ATOM
M  V30 BEGIN BOND
M  V30 1 1 1 2
M  V30 2 1 2 3
M  V30 3 1 3 4
M  V30 4 1 4 5
M  V30 5 1 5 6
M  V30 6 1 6 7
M  V30 7 1 7 8
M  V30 8 1 8 9
M  V30 9 1 9 10
M  V30 10 1 10 11
M  V30 11 1 11 12
M  V30 12 1 12 13
M  V30 13 1 13 14
M  V30 14 2 14 15
M  V30 15 1 15 16
M  V30 16 2 16 17
M  V30 17 1 17 18
M  V30 18 1 18 19
M  V30 19 2 19 20
M  V30 20 1 20 21
M  V30 21 2 21 22
M  V30 22 1 22 23
M  V30 23 2 23 24
M  V30 24 1 24 25
M  V30 25 2 25 26
M  V30 26 1 26 27
M  V30 27 2 27 28
M  V30 28 1 27 29
M  V30 29 1 29 30
M  V30 30 1 30 31
M  V30 31 1 21 32
M  V30 32 2 32 33
M  V30 33 1 32 34
M  V30 34 1 17 35
M  V30 35 2 35 36
M  V30 36 1 36 14
M  V30 37 1 34 19
M  V30 38 1 28 23
M  V30 39 1 31 26
M  V30 40 1 1 37
M  V30 41 1 1 38
M  V30 42 1 2 39
M  V30 43 1 2 40
M  V30 44 1 3 41
M  V30 45 1 3 42
M  V30 46 1 5 43
M  V30 47 1 5 44
M  V30 48 1 6 45
M  V30 49 1 6 46
M  V30 50 1 8 47
M  V30 51 1 8 48
M  V30 52 1 9 49
M  V30 53 1 9 50
M  V30 54 1 11 51
M  V30 55 1 11 52
M  V30 56 1 12 53
M  V30 57 1 12 54
M  V30 58 1 15 55
M  V30 59 1 16 56
M  V30 60 1 18 57
M  V30 61 1 22 58
M  V30 62 1 24 59
M  V30 63 1 25 60
M  V30 64 1 28 61
M  V30 65 1 30 62
M  V30 66 1 30 63
M  V30 67 1 34 64
M  V30 68 1 35 65
M  V30 69 1 36 66
M  V30 END BOND
M  V30 END CTAB
M  END
>  <Dataset>  (272) 
ChEMBL_Kinases

>  <Ligand_Instance>  (272) 
nan

>  <PDB_ID>  (272) 
nan

>  <Standardized_SMILES>  (272) 
NCCOCCOCCOCCOc1ccc(NC2=N/C(=C\c3ccc4c(c3)OCO4)C(=O)N2)cc1

>  <Name>  (272) 
nan

>  <Pocket>  (272) 
nan

>  <ATP_Site>  (272) 
nan

>  <Peripheral>  (272) 
nan

>  <Num_H_Atoms_ProtBoundConf>  (272) 
nan

>  <Num_Resolved_Atoms>  (272) 
nan

>  <Num_Not_Resolved_Atoms>  (272) 
nan

$$$$
CHEMBL3092862
     RDKit          3D

  0  0  0  0  0  0  0  0  0  0999 V3000
M  V30 BEGIN CTAB
M  V30 COUNTS 59 62 0 0 0
M  V30 BEGIN ATOM
M  V30 1 N -2.177856 0.063374 8.549329 0
M  V30 2 C -2.694855 -0.001606 7.207141 0
M  V30 3 C -2.460616 1.295003 6.471392 0
M  V30 4 O -1.113631 1.613183 6.374950 0
M  V30 5 C -0.360375 0.680023 5.719374 0
M  V30 6 C -0.759171 0.411309 4.292903 0
M  V30 7 O -0.669463 1.555489 3.534809 0
M  V30 8 C -1.021474 1.365510 2.201025 0
M  V30 9 C -0.862773 2.697969 1.516210 0
M  V30 10 O -1.162002 2.730663 0.170154 0
M  V30 11 C -0.595978 2.056373 -0.880567 0
M  V30 12 C 0.427082 1.146820 -1.018599 0
M  V30 13 C 0.762502 0.637334 -2.251353 0
M  V30 14 C 0.110149 0.996960 -3.405297 0
M  V30 15 N 0.453128 0.458965 -4.677875 0
M  V30 16 C 1.404400 -0.576152 -4.888621 0
M  V30 17 N 1.518623 -1.555651 -4.055858 0
M  V30 18 C 2.523111 -2.476046 -4.452264 0
M  V30 19 C 2.993834 -3.602442 -3.941271 0
M  V30 20 C 2.371617 -4.049871 -2.676601 0
M  V30 21 C 3.107185 -4.629169 -1.642498 0
M  V30 22 C 2.444693 -5.028257 -0.484568 0
M  V30 23 C 1.084524 -4.871136 -0.323141 0
M  V30 24 C 0.367442 -4.296847 -1.353732 0
M  V30 25 C 0.989870 -3.883434 -2.528819 0
M  V30 26 O -0.961255 -4.270734 -0.907620 0
M  V30 27 C -1.112003 -5.237763 0.116751 0
M  V30 28 O 0.185824 -5.177750 0.714807 0
M  V30 29 C 3.040933 -1.912220 -5.697809 0
M  V30 30 O 3.949255 -2.295976 -6.506016 0
M  V30 31 N 2.333907 -0.702615 -5.982614 0
M  V30 32 C -0.926557 1.911369 -3.311809 0
M  V30 33 C -1.268373 2.429947 -2.054888 0
M  V30 34 H -2.072956 1.050792 8.909898 0
M  V30 35 H -1.296229 -0.484094 8.671339 0
M  V30 36 H -2.248531 -0.872490 6.703373 0
M  V30 37 H -3.788335 -0.175133 7.267005 0
M  V30 38 H -2.988907 1.295977 5.497243 0
M  V30 39 H -2.937786 2.095244 7.076380 0
M  V30 40 H 0.684277 1.082023 5.689319 0
M  V30 41 H -0.237928 -0.285582 6.291982 0
M  V30 42 H -1.732881 -0.110922 4.215363 0
M  V30 43 H 0.009567 -0.297337 3.884341 0
M  V30 44 H -0.543516 0.521134 1.727480 0
M  V30 45 H -2.128906 1.135082 2.223045 0
M  V30 46 H -1.542465 3.458889 2.008260 0
M  V30 47 H 0.161031 3.136468 1.714774 0
M  V30 48 H 0.886972 0.925735 -0.078430 0
M  V30 49 H 1.571131 -0.058926 -2.248953 0
M  V30 50 H -0.021981 0.849097 -5.547301 0
M  V30 51 H 3.783026 -4.172777 -4.405098 0
M  V30 52 H 4.167964 -4.749700 -1.773494 0
M  V30 53 H 3.019365 -5.481334 0.324168 0
M  V30 54 H 0.345625 -3.451575 -3.268904 0
M  V30 55 H -1.297586 -6.239459 -0.360761 0
M  V30 56 H -1.913533 -4.984806 0.829225 0
M  V30 57 H 2.399157 0.002109 -6.775731 0
M  V30 58 H -1.423901 2.178692 -4.232122 0
M  V30 59 H -2.105504 3.135333 -2.159877 0
M  V30 END ATOM
M  V30 BEGIN BOND
M  V30 1 1 1 2
M  V30 2 1 2 3
M  V30 3 1 3 4
M  V30 4 1 4 5
M  V30 5 1 5 6
M  V30 6 1 6 7
M  V30 7 1 7 8
M  V30 8 1 8 9
M  V30 9 1 9 10
M  V30 10 1 10 11
M  V30 11 2 11 12
M  V30 12 1 12 13
M  V30 13 2 13 14
M  V30 14 1 14 15
M  V30 15 1 15 16
M  V30 16 2 16 17
M  V30 17 1 17 18
M  V30 18 2 18 19
M  V30 19 1 19 20
M  V30 20 2 20 21
M  V30 21 1 21 22
M  V30 22 2 22 23
M  V30 23 1 23 24
M  V30 24 2 24 25
M  V30 25 1 24 26
M  V30 26 1 26 27
M  V30 27 1 27 28
M  V30 28 1 18 29
M  V30 29 2 29 30
M  V30 30 1 29 31
M  V30 31 1 14 32
M  V30 32 2 32 33
M  V30 33 1 33 11
M  V30 34 1 31 16
M  V30 35 1 25 20
M  V30 36 1 28 23
M  V30 37 1 1 34
M  V30 38 1 1 35
M  V30 39 1 2 36
M  V30 40 1 2 37
M  V30 41 1 3 38
M  V30 42 1 3 39
M  V30 43 1 5 40
M  V30 44 1 5 41
M  V30 45 1 6 42
M  V30 46 1 6 43
M  V30 47 1 8 44
M  V30 48 1 8 45
M  V30 49 1 9 46
M  V30 50 1 9 47
M  V30 51 1 12 48
M  V30 52 1 13 49
M  V30 53 1 15 50
M  V30 54 1 19 51
M  V30 55 1 21 52
M  V30 56 1 22 53
M  V30 57 1 25 54
M  V30 58 1 27 55
M  V30 59 1 27 56
M  V30 60 1 31 57
M  V30 61 1 32 58
M  V30 62 1 33 59
M  V30 END BOND
M  V30 END CTAB
M  END
>  <Dataset>  (273) 
ChEMBL_Kinases

>  <Ligand_Instance>  (273) 
nan

>  <PDB_ID>  (273) 
nan

>  <Standardized_SMILES>  (273) 
NCCOCCOCCOc1ccc(NC2=N/C(=C\c3ccc4c(c3)OCO4)C(=O)N2)cc1

>  <Name>  (273) 
nan

>  <Pocket>  (273) 
nan

>  <ATP_Site>  (273) 
nan

>  <Peripheral>  (273) 
nan

>  <Num_H_Atoms_ProtBoundConf>  (273) 
nan

>  <Num_Resolved_Atoms>  (273) 
nan

>  <Num_Not_Resolved_Atoms>  (273) 
nan

$$$$
CHEMBL4074132
     RDKit          3D

  0  0  0  0  0  0  0  0  0  0999 V3000
M  V30 BEGIN CTAB
M  V30 COUNTS 41 43 0 0 0
M  V30 BEGIN ATOM
M  V30 1 C -0.330505 -4.513030 -1.730466 0
M  V30 2 C 0.431528 -3.937211 -0.585490 0
M  V30 3 C -0.384515 -4.130152 0.681562 0
M  V30 4 C 0.822657 -2.500011 -0.782905 0 CFG=1
M  V30 5 C -0.328520 -1.571001 -0.973005 0
M  V30 6 O -1.127195 -1.422330 0.133309 0
M  V30 7 N 1.674632 -2.016317 0.283396 0
M  V30 8 C 2.198749 -0.696937 0.376093 0
M  V30 9 C 3.375030 -0.202819 -0.133319 0
M  V30 10 C 3.658179 1.126243 0.096949 0
M  V30 11 C 2.793358 1.929811 0.811707 0
M  V30 12 N 2.844648 3.228894 1.161790 0
M  V30 13 C 1.754580 3.536173 1.856939 0
M  V30 14 C 0.983966 2.392682 1.951813 0
M  V30 15 C -0.298904 2.189479 2.605066 0
M  V30 16 C -1.399561 3.035950 2.519243 0
M  V30 17 C -2.577068 2.748378 3.183822 0
M  V30 18 C -2.666819 1.602679 3.946904 0
M  V30 19 N -1.608918 0.767237 4.043302 0
M  V30 20 C -0.441736 1.041753 3.391221 0
M  V30 21 N 1.655115 1.406921 1.291625 0
M  V30 22 N 1.404688 0.147208 1.063413 0
M  V30 23 H 0.195094 -4.441403 -2.693045 0
M  V30 24 H -0.417742 -5.620258 -1.533085 0
M  V30 25 H -1.387276 -4.173252 -1.783542 0
M  V30 26 H 1.361703 -4.528740 -0.458040 0
M  V30 27 H -0.434190 -5.198260 0.974651 0
M  V30 28 H 0.062563 -3.593811 1.543533 0
M  V30 29 H -1.430843 -3.781143 0.565298 0
M  V30 30 H 1.441029 -2.450499 -1.711924 0
M  V30 31 H 0.075776 -0.570276 -1.236336 0
M  V30 32 H -0.960697 -1.874935 -1.851167 0
M  V30 33 H -1.540531 -0.525306 0.097694 0
M  V30 34 H 2.021944 -2.540941 1.115761 0
M  V30 35 H 3.964188 -0.929689 -0.672706 0
M  V30 36 H 4.593815 1.485353 -0.318225 0
M  V30 37 H 1.477784 4.507754 2.293911 0
M  V30 38 H -1.272203 3.921702 1.905452 0
M  V30 39 H -3.425758 3.414766 3.108877 0
M  V30 40 H -3.564323 1.321139 4.492998 0
M  V30 41 H 0.359112 0.318147 3.522008 0
M  V30 END ATOM
M  V30 BEGIN BOND
M  V30 1 1 1 2
M  V30 2 1 2 3
M  V30 3 1 2 4
M  V30 4 1 4 5
M  V30 5 1 5 6
M  V30 6 1 4 7
M  V30 7 1 7 8
M  V30 8 1 8 9
M  V30 9 2 9 10
M  V30 10 1 10 11
M  V30 11 2 11 12
M  V30 12 1 12 13
M  V30 13 2 13 14
M  V30 14 1 14 15
M  V30 15 2 15 16
M  V30 16 1 16 17
M  V30 17 2 17 18
M  V30 18 1 18 19
M  V30 19 2 19 20
M  V30 20 1 14 21
M  V30 21 1 21 22
M  V30 22 2 22 8
M  V30 23 1 21 11
M  V30 24 1 20 15
M  V30 25 1 1 23
M  V30 26 1 1 24
M  V30 27 1 1 25
M  V30 28 1 2 26
M  V30 29 1 3 27
M  V30 30 1 3 28
M  V30 31 1 3 29
M  V30 32 1 4 30 CFG=3
M  V30 33 1 5 31
M  V30 34 1 5 32
M  V30 35 1 6 33
M  V30 36 1 7 34
M  V30 37 1 9 35
M  V30 38 1 10 36
M  V30 39 1 13 37
M  V30 40 1 16 38
M  V30 41 1 17 39
M  V30 42 1 18 40
M  V30 43 1 20 41
M  V30 END BOND
M  V30 END CTAB
M  END
>  <Dataset>  (274) 
ChEMBL_Kinases

>  <Ligand_Instance>  (274) 
nan

>  <PDB_ID>  (274) 
nan

>  <Standardized_SMILES>  (274) 
CC(C)[C@@H](CO)Nc1ccc2ncc(-c3cccnc3)n2n1

>  <Name>  (274) 
nan

>  <Pocket>  (274) 
nan

>  <ATP_Site>  (274) 
nan

>  <Peripheral>  (274) 
nan

>  <Num_H_Atoms_ProtBoundConf>  (274) 
nan

>  <Num_Resolved_Atoms>  (274) 
nan

>  <Num_Not_Resolved_Atoms>  (274) 
nan

$$$$
CHEMBL505637
     RDKit          3D

  0  0  0  0  0  0  0  0  0  0999 V3000
M  V30 BEGIN CTAB
M  V30 COUNTS 80 83 0 0 0
M  V30 BEGIN ATOM
M  V30 1 O 1.361989 3.828568 0.852613 0
M  V30 2 C 0.654156 2.937494 1.392750 0
M  V30 3 N 0.993495 1.639667 0.982475 0
M  V30 4 C 1.876347 0.920102 0.130450 0
M  V30 5 C 1.674409 1.177965 -1.309122 0
M  V30 6 C 1.816829 2.525505 -1.838893 0
M  V30 7 C 3.158260 2.840431 -2.093473 0
M  V30 8 C 3.539904 4.058489 -2.646945 0
M  V30 9 C 2.603368 4.991222 -2.961721 0
M  V30 10 O 2.952224 6.226672 -3.519544 0
M  V30 11 C 1.276636 4.712110 -2.723411 0
M  V30 12 Br -0.122662 5.947597 -3.129486 0
M  V30 13 C 0.881947 3.513415 -2.176417 0
M  V30 14 C -0.353862 3.414782 2.315368 0
M  V30 15 C -1.374201 2.681475 3.099810 0
M  V30 16 C -2.383919 1.975541 2.274656 0
M  V30 17 C -3.383650 2.880565 1.884390 0
M  V30 18 C -4.474401 2.513793 1.113962 0
M  V30 19 Br -5.857460 3.690341 0.554693 0
M  V30 20 C -4.604064 1.190888 0.696292 0
M  V30 21 O -5.652564 0.708718 -0.078509 0
M  V30 22 C -3.608552 0.319156 1.092866 0
M  V30 23 C -3.718704 -1.071810 0.673428 0
M  V30 24 C -3.183833 -1.506776 -0.518707 0
M  V30 25 C -3.285181 -2.813779 -0.942397 0
M  V30 26 C -2.767688 -3.429286 -2.173519 0
M  V30 27 C -1.532057 -4.193577 -2.064765 0
M  V30 28 N -1.571570 -5.442844 -2.389810 0
M  V30 29 O -0.487575 -6.271403 -2.335833 0
M  V30 30 C -0.337232 -3.549497 -1.608884 0
M  V30 31 O -0.371843 -2.307565 -1.307277 0
M  V30 32 N 0.989347 -3.994600 -1.391727 0
M  V30 33 C 1.799872 -2.915090 -0.922106 0
M  V30 34 C 3.233286 -3.322389 -0.681822 0
M  V30 35 C 3.347323 -4.394655 0.337806 0
M  V30 36 C 3.337607 -5.757523 0.147989 0
M  V30 37 C 3.455958 -6.635504 1.204816 0
M  V30 38 C 3.592048 -6.181141 2.519508 0
M  V30 39 O 3.711605 -7.061573 3.588960 0
M  V30 40 C 3.606533 -4.810944 2.742155 0
M  V30 41 Br 3.787444 -4.115651 4.507814 0
M  V30 42 C 3.484808 -3.960077 1.662374 0
M  V30 43 C -3.975675 -3.660757 -0.061548 0
M  V30 44 C -4.522178 -3.256088 1.138270 0
M  V30 45 Br -5.439109 -4.508859 2.245720 0
M  V30 46 C -4.390759 -1.934817 1.513361 0
M  V30 47 O -4.966613 -1.593389 2.739345 0
M  V30 48 C -2.530575 0.692572 1.857440 0
M  V30 49 N -0.396464 4.687650 2.481085 0
M  V30 50 O 0.409292 5.576656 1.873599 0
M  V30 51 H 0.315192 1.039091 1.548146 0
M  V30 52 H 2.957752 1.103596 0.423227 0
M  V30 53 H 1.745338 -0.175204 0.383587 0
M  V30 54 H 2.346610 0.440217 -1.851849 0
M  V30 55 H 0.649668 0.826710 -1.651738 0
M  V30 56 H 4.018451 2.187728 -1.894229 0
M  V30 57 H 4.563317 4.322891 -2.852043 0
M  V30 58 H 3.580106 6.172068 -4.339181 0
M  V30 59 H -0.118182 3.168204 -1.942089 0
M  V30 60 H -0.804871 1.916748 3.702689 0
M  V30 61 H -1.862081 3.316768 3.859862 0
M  V30 62 H -3.443976 3.942641 2.116829 0
M  V30 63 H -5.843389 1.173030 -0.962929 0
M  V30 64 H -2.659969 -0.844759 -1.184705 0
M  V30 65 H -3.570493 -4.094447 -2.551884 0
M  V30 66 H -2.702969 -2.630211 -2.981920 0
M  V30 67 H -0.399862 -6.886272 -1.529149 0
M  V30 68 H 1.177097 -4.995342 -1.597458 0
M  V30 69 H 1.359029 -2.507584 0.015497 0
M  V30 70 H 1.798223 -2.105538 -1.672682 0
M  V30 71 H 3.848639 -2.451036 -0.349158 0
M  V30 72 H 3.727466 -3.659159 -1.626280 0
M  V30 73 H 3.230292 -6.055253 -0.886724 0
M  V30 74 H 3.442132 -7.693985 0.987945 0
M  V30 75 H 4.554403 -7.100870 4.166629 0
M  V30 76 H 3.505184 -2.886382 1.892975 0
M  V30 77 H -4.100086 -4.718868 -0.322473 0
M  V30 78 H -5.916873 -1.195919 2.778922 0
M  V30 79 H -1.732622 0.053288 2.198573 0
M  V30 80 H 0.855588 6.347519 2.337341 0
M  V30 END ATOM
M  V30 BEGIN BOND
M  V30 1 2 1 2
M  V30 2 1 2 3
M  V30 3 1 3 4
M  V30 4 1 4 5
M  V30 5 1 5 6
M  V30 6 2 6 7
M  V30 7 1 7 8
M  V30 8 2 8 9
M  V30 9 1 9 10
M  V30 10 1 9 11
M  V30 11 1 11 12
M  V30 12 2 11 13
M  V30 13 1 2 14
M  V30 14 1 14 15
M  V30 15 1 15 16
M  V30 16 2 16 17
M  V30 17 1 17 18
M  V30 18 1 18 19
M  V30 19 2 18 20
M  V30 20 1 20 21
M  V30 21 1 20 22
M  V30 22 1 22 23
M  V30 23 2 23 24
M  V30 24 1 24 25
M  V30 25 1 25 26
M  V30 26 1 26 27
M  V30 27 2 27 28
M  V30 28 1 28 29
M  V30 29 1 27 30
M  V30 30 2 30 31
M  V30 31 1 30 32
M  V30 32 1 32 33
M  V30 33 1 33 34
M  V30 34 1 34 35
M  V30 35 2 35 36
M  V30 36 1 36 37
M  V30 37 2 37 38
M  V30 38 1 38 39
M  V30 39 1 38 40
M  V30 40 1 40 41
M  V30 41 2 40 42
M  V30 42 2 25 43
M  V30 43 1 43 44
M  V30 44 1 44 45
M  V30 45 2 44 46
M  V30 46 1 46 47
M  V30 47 2 22 48
M  V30 48 2 14 49
M  V30 49 1 49 50
M  V30 50 1 13 6
M  V30 51 1 48 16
M  V30 52 1 46 23
M  V30 53 1 42 35
M  V30 54 1 3 51
M  V30 55 1 4 52
M  V30 56 1 4 53
M  V30 57 1 5 54
M  V30 58 1 5 55
M  V30 59 1 7 56
M  V30 60 1 8 57
M  V30 61 1 10 58
M  V30 62 1 13 59
M  V30 63 1 15 60
M  V30 64 1 15 61
M  V30 65 1 17 62
M  V30 66 1 21 63
M  V30 67 1 24 64
M  V30 68 1 26 65
M  V30 69 1 26 66
M  V30 70 1 29 67
M  V30 71 1 32 68
M  V30 72 1 33 69
M  V30 73 1 33 70
M  V30 74 1 34 71
M  V30 75 1 34 72
M  V30 76 1 36 73
M  V30 77 1 37 74
M  V30 78 1 39 75
M  V30 79 1 42 76
M  V30 80 1 43 77
M  V30 81 1 47 78
M  V30 82 1 48 79
M  V30 83 1 50 80
M  V30 END BOND
M  V30 END CTAB
M  END
>  <Dataset>  (275) 
ChEMBL_Kinases

>  <Ligand_Instance>  (275) 
nan

>  <PDB_ID>  (275) 
nan

>  <Standardized_SMILES>  (275) 
O=C(NCCc1ccc(O)c(Br)c1)/C(Cc1cc(Br)c(O)c(-c2cc(C/C(=N/O)C(=O)NCCc3ccc(O)c(Br)c3)cc(Br)c2O)c1)=N\O

>  <Name>  (275) 
BASTADIN 3

>  <Pocket>  (275) 
nan

>  <ATP_Site>  (275) 
nan

>  <Peripheral>  (275) 
nan

>  <Num_H_Atoms_ProtBoundConf>  (275) 
nan

>  <Num_Resolved_Atoms>  (275) 
nan

>  <Num_Not_Resolved_Atoms>  (275) 
nan

$$$$
CHEMBL572881
     RDKit          3D

  0  0  0  0  0  0  0  0  0  0999 V3000
M  V30 BEGIN CTAB
M  V30 COUNTS 51 54 0 0 0
M  V30 BEGIN ATOM
M  V30 1 C 1.584252 -5.981809 1.058464 0
M  V30 2 C 2.890869 -5.286011 0.689503 0
M  V30 3 C 3.715702 -6.083632 -0.255285 0
M  V30 4 C 3.577185 -4.977150 2.003886 0
M  V30 5 N 2.815767 -3.829844 2.513058 0
M  V30 6 C 2.561388 -3.055374 1.325064 0
M  V30 7 C 2.304415 -1.688903 1.159372 0
M  V30 8 C 2.092782 -1.214472 -0.129449 0
M  V30 9 N 1.831502 0.198539 -0.256590 0
M  V30 10 C 0.446241 0.503645 -0.176267 0
M  V30 11 O -0.054353 -0.634663 -0.016171 0
M  V30 12 C -0.005025 1.877938 -0.283933 0
M  V30 13 C 0.907281 2.866393 -0.461680 0
M  V30 14 C 0.451976 4.161866 -0.560684 0
M  V30 15 C -0.885510 4.476010 -0.485129 0
M  V30 16 N -1.702359 3.449039 -0.311084 0
M  V30 17 C -1.350696 2.157778 -0.204116 0
M  V30 18 N -2.382713 1.239148 -0.026248 0
M  V30 19 C -3.789130 1.465276 0.065285 0
M  V30 20 C -4.227880 2.310754 1.190517 0
M  V30 21 C -4.448326 3.652283 1.259676 0
M  V30 22 C -4.849252 4.280455 2.403924 0
M  V30 23 N -5.042028 3.563706 3.525649 0
M  V30 24 C -4.854420 2.237668 3.569210 0
M  V30 25 C -4.449501 1.632719 2.397599 0
M  V30 26 C 2.130465 -2.045876 -1.222249 0
M  V30 27 C 2.386107 -3.408488 -1.063124 0
M  V30 28 C 2.598059 -3.894386 0.208584 0
M  V30 29 H 1.704145 -6.678909 1.917737 0
M  V30 30 H 1.067344 -6.408649 0.192088 0
M  V30 31 H 0.941809 -5.148696 1.465743 0
M  V30 32 H 4.416978 -6.781387 0.228064 0
M  V30 33 H 4.287505 -5.389357 -0.911286 0
M  V30 34 H 3.028668 -6.728282 -0.862050 0
M  V30 35 H 3.468250 -5.801353 2.752258 0
M  V30 36 H 4.644505 -4.757149 1.884855 0
M  V30 37 H 2.479097 -3.529991 3.458432 0
M  V30 38 H 2.277184 -1.044099 2.027034 0
M  V30 39 H 2.622243 0.899461 -0.394295 0
M  V30 40 H 1.968892 2.771981 -0.537902 0
M  V30 41 H 1.135585 4.994189 -0.703488 0
M  V30 42 H -1.207615 5.503912 -0.566863 0
M  V30 43 H -2.142525 0.234977 0.057287 0
M  V30 44 H -4.050973 2.075469 -0.857945 0
M  V30 45 H -4.401994 0.549238 0.101504 0
M  V30 46 H -4.286280 4.184892 0.331022 0
M  V30 47 H -5.006606 5.353987 2.389082 0
M  V30 48 H -5.010623 1.673591 4.468310 0
M  V30 49 H -4.305573 0.545967 2.469938 0
M  V30 50 H 1.954121 -1.584961 -2.180025 0
M  V30 51 H 2.410773 -4.034146 -1.922624 0
M  V30 END ATOM
M  V30 BEGIN BOND
M  V30 1 1 1 2
M  V30 2 1 2 3
M  V30 3 1 2 4
M  V30 4 1 4 5
M  V30 5 1 5 6
M  V30 6 2 6 7
M  V30 7 1 7 8
M  V30 8 1 8 9
M  V30 9 1 9 10
M  V30 10 2 10 11
M  V30 11 1 10 12
M  V30 12 2 12 13
M  V30 13 1 13 14
M  V30 14 2 14 15
M  V30 15 1 15 16
M  V30 16 2 16 17
M  V30 17 1 17 18
M  V30 18 1 18 19
M  V30 19 1 19 20
M  V30 20 2 20 21
M  V30 21 1 21 22
M  V30 22 2 22 23
M  V30 23 1 23 24
M  V30 24 2 24 25
M  V30 25 2 8 26
M  V30 26 1 26 27
M  V30 27 2 27 28
M  V30 28 1 28 2
M  V30 29 1 28 6
M  V30 30 1 17 12
M  V30 31 1 25 20
M  V30 32 1 1 29
M  V30 33 1 1 30
M  V30 34 1 1 31
M  V30 35 1 3 32
M  V30 36 1 3 33
M  V30 37 1 3 34
M  V30 38 1 4 35
M  V30 39 1 4 36
M  V30 40 1 5 37
M  V30 41 1 7 38
M  V30 42 1 9 39
M  V30 43 1 13 40
M  V30 44 1 14 41
M  V30 45 1 15 42
M  V30 46 1 18 43
M  V30 47 1 19 44
M  V30 48 1 19 45
M  V30 49 1 21 46
M  V30 50 1 22 47
M  V30 51 1 24 48
M  V30 52 1 25 49
M  V30 53 1 26 50
M  V30 54 1 27 51
M  V30 END BOND
M  V30 END CTAB
M  END
>  <Dataset>  (276) 
ChEMBL_Kinases

>  <Ligand_Instance>  (276) 
nan

>  <PDB_ID>  (276) 
nan

>  <Standardized_SMILES>  (276) 
CC1(C)CNc2cc(NC(=O)c3cccnc3NCc3ccncc3)ccc21

>  <Name>  (276) 
MOTESANIB

>  <Pocket>  (276) 
nan

>  <ATP_Site>  (276) 
nan

>  <Peripheral>  (276) 
nan

>  <Num_H_Atoms_ProtBoundConf>  (276) 
nan

>  <Num_Resolved_Atoms>  (276) 
nan

>  <Num_Not_Resolved_Atoms>  (276) 
nan

$$$$
CHEMBL4087260
     RDKit          3D

  0  0  0  0  0  0  0  0  0  0999 V3000
M  V30 BEGIN CTAB
M  V30 COUNTS 26 28 0 0 0
M  V30 BEGIN ATOM
M  V30 1 N -0.032499 -2.337635 2.847957 0
M  V30 2 C 1.110191 -1.901632 2.121887 0
M  V30 3 C 2.390836 -2.216837 2.555241 0
M  V30 4 C 3.477975 -1.780023 1.830316 0
M  V30 5 C 3.232670 -1.041641 0.695444 0
M  V30 6 Cl 4.645369 -0.495513 -0.213239 0
M  V30 7 C 1.972844 -0.703003 0.224829 0
M  V30 8 C 0.903747 -1.157658 0.976650 0
M  V30 9 C -0.415752 -0.789564 0.462962 0
M  V30 10 C -1.443108 -1.714948 0.397243 0
M  V30 11 N -2.540941 -1.088900 -0.118307 0
M  V30 12 C -2.199850 0.208537 -0.369539 0
M  V30 13 C -2.824318 1.333551 -0.874794 0
M  V30 14 C -2.095806 2.503206 -0.969751 0
M  V30 15 C -0.781876 2.638284 -0.596591 0
M  V30 16 Cl 0.034676 4.173527 -0.764852 0
M  V30 17 N -0.230464 1.500208 -0.110554 0
M  V30 18 N -0.908739 0.377901 -0.012960 0
M  V30 19 H -0.718135 -3.094235 2.975481 0
M  V30 20 H -0.700575 -2.048891 3.610885 0
M  V30 21 H 2.528519 -2.803740 3.459794 0
M  V30 22 H 4.497646 -2.004574 2.134382 0
M  V30 23 H 1.838021 -0.116476 -0.679258 0
M  V30 24 H -1.439055 -2.753278 0.684834 0
M  V30 25 H -3.860849 1.243723 -1.173787 0
M  V30 26 H -2.664571 3.332680 -1.376129 0
M  V30 END ATOM
M  V30 BEGIN BOND
M  V30 1 1 1 2
M  V30 2 2 2 3
M  V30 3 1 3 4
M  V30 4 2 4 5
M  V30 5 1 5 6
M  V30 6 1 5 7
M  V30 7 2 7 8
M  V30 8 1 8 9
M  V30 9 2 9 10
M  V30 10 1 10 11
M  V30 11 2 11 12
M  V30 12 1 12 13
M  V30 13 2 13 14
M  V30 14 1 14 15
M  V30 15 1 15 16
M  V30 16 2 15 17
M  V30 17 1 17 18
M  V30 18 1 8 2
M  V30 19 1 18 9
M  V30 20 1 18 12
M  V30 21 1 1 19
M  V30 22 1 1 20
M  V30 23 1 3 21
M  V30 24 1 4 22
M  V30 25 1 7 23
M  V30 26 1 10 24
M  V30 27 1 13 25
M  V30 28 1 14 26
M  V30 END BOND
M  V30 END CTAB
M  END
>  <Dataset>  (277) 
ChEMBL_Kinases

>  <Ligand_Instance>  (277) 
nan

>  <PDB_ID>  (277) 
nan

>  <Standardized_SMILES>  (277) 
Nc1ccc(Cl)cc1-c1cnc2ccc(Cl)nn12

>  <Name>  (277) 
nan

>  <Pocket>  (277) 
nan

>  <ATP_Site>  (277) 
nan

>  <Peripheral>  (277) 
nan

>  <Num_H_Atoms_ProtBoundConf>  (277) 
nan

>  <Num_Resolved_Atoms>  (277) 
nan

>  <Num_Not_Resolved_Atoms>  (277) 
nan

$$$$
CHEMBL3218297
     RDKit          3D

  0  0  0  0  0  0  0  0  0  0999 V3000
M  V30 BEGIN CTAB
M  V30 COUNTS 37 39 0 0 0
M  V30 BEGIN ATOM
M  V30 1 O 0.849259 -1.577830 1.577046 0
M  V30 2 C -0.187499 -1.944502 2.203397 0
M  V30 3 N -0.472467 -3.337241 2.443794 0
M  V30 4 C 0.344605 -4.478048 2.025709 0
M  V30 5 C 1.557111 -4.020858 1.291797 0
M  V30 6 C 2.781195 -3.723759 1.878144 0
M  V30 7 C 3.849342 -3.306029 1.110519 0
M  V30 8 C 3.742276 -3.168502 -0.260693 0
M  V30 9 C 2.540386 -3.450905 -0.911572 0
M  V30 10 O 2.325974 -3.347265 -2.271025 0
M  V30 11 C 1.504336 -3.865495 -0.091025 0
M  V30 12 N -1.165337 -1.037527 2.727987 0
M  V30 13 C -0.784257 0.407779 2.428523 0
M  V30 14 N -1.137400 0.949000 1.439444 0
M  V30 15 C -0.837938 2.213817 1.117190 0
M  V30 16 C -1.295820 2.846795 -0.118945 0
M  V30 17 C -2.072942 2.216153 -1.068623 0
M  V30 18 C -2.500823 2.819197 -2.231590 0
M  V30 19 N -2.162220 4.090745 -2.489193 0
M  V30 20 C -1.412242 4.768994 -1.619588 0
M  V30 21 C -0.994003 4.147559 -0.461286 0
M  V30 22 C -0.042549 2.942768 2.032934 0
M  V30 23 S 0.186776 1.589922 3.349674 0
M  V30 24 H -1.320398 -3.644656 2.956435 0
M  V30 25 H -0.226830 -5.116835 1.322685 0
M  V30 26 H 0.616605 -5.095273 2.904454 0
M  V30 27 H 2.844843 -3.836746 2.945402 0
M  V30 28 H 4.801235 -3.077101 1.583509 0
M  V30 29 H 4.555914 -2.844764 -0.890202 0
M  V30 30 H 1.912829 -2.569931 -2.749384 0
M  V30 31 H 0.548700 -4.094652 -0.571269 0
M  V30 32 H -2.052179 -1.263286 3.259130 0
M  V30 33 H -2.366806 1.170449 -0.883999 0
M  V30 34 H -3.110301 2.229816 -2.912564 0
M  V30 35 H -1.128834 5.795543 -1.809783 0
M  V30 36 H -0.378998 4.743899 0.224773 0
M  V30 37 H 0.286106 3.912347 1.961164 0
M  V30 END ATOM
M  V30 BEGIN BOND
M  V30 1 2 1 2
M  V30 2 1 2 3
M  V30 3 1 3 4
M  V30 4 1 4 5
M  V30 5 2 5 6
M  V30 6 1 6 7
M  V30 7 2 7 8
M  V30 8 1 8 9
M  V30 9 1 9 10
M  V30 10 2 9 11
M  V30 11 1 2 12
M  V30 12 1 12 13
M  V30 13 2 13 14
M  V30 14 1 14 15
M  V30 15 1 15 16
M  V30 16 2 16 17
M  V30 17 1 17 18
M  V30 18 2 18 19
M  V30 19 1 19 20
M  V30 20 2 20 21
M  V30 21 2 15 22
M  V30 22 1 22 23
M  V30 23 1 11 5
M  V30 24 1 23 13
M  V30 25 1 21 16
M  V30 26 1 3 24
M  V30 27 1 4 25
M  V30 28 1 4 26
M  V30 29 1 6 27
M  V30 30 1 7 28
M  V30 31 1 8 29
M  V30 32 1 10 30
M  V30 33 1 11 31
M  V30 34 1 12 32
M  V30 35 1 17 33
M  V30 36 1 18 34
M  V30 37 1 20 35
M  V30 38 1 21 36
M  V30 39 1 22 37
M  V30 END BOND
M  V30 END CTAB
M  END
>  <Dataset>  (278) 
ChEMBL_Kinases

>  <Ligand_Instance>  (278) 
nan

>  <PDB_ID>  (278) 
nan

>  <Standardized_SMILES>  (278) 
O=C(NCc1cccc(O)c1)Nc1nc(-c2ccncc2)cs1

>  <Name>  (278) 
nan

>  <Pocket>  (278) 
nan

>  <ATP_Site>  (278) 
nan

>  <Peripheral>  (278) 
nan

>  <Num_H_Atoms_ProtBoundConf>  (278) 
nan

>  <Num_Resolved_Atoms>  (278) 
nan

>  <Num_Not_Resolved_Atoms>  (278) 
nan

$$$$
CHEMBL4098107
     RDKit          3D

  0  0  0  0  0  0  0  0  0  0999 V3000
M  V30 BEGIN CTAB
M  V30 COUNTS 31 33 0 0 0
M  V30 BEGIN ATOM
M  V30 1 C -0.847363 -2.589884 3.857494 0
M  V30 2 O -0.546508 -3.682427 3.022227 0
M  V30 3 C -0.072542 -3.443794 1.736398 0
M  V30 4 C 0.190920 -4.603922 1.001859 0
M  V30 5 C 0.666479 -4.502106 -0.290404 0
M  V30 6 C 0.848710 -3.219205 -0.766544 0
M  V30 7 N 1.298703 -2.828532 -1.984840 0
M  V30 8 C 1.314030 -1.466569 -2.005699 0
M  V30 9 C 0.868381 -1.011735 -0.786279 0
M  V30 10 C 0.716324 0.383728 -0.351157 0
M  V30 11 C 1.781957 1.230311 -0.658256 0
M  V30 12 C 1.714289 2.562026 -0.281201 0
M  V30 13 C 0.614529 3.048620 0.386781 0
M  V30 14 C -0.436551 2.212722 0.689459 0
M  V30 15 C -1.642625 2.702677 1.410753 0
M  V30 16 F -1.622896 2.047388 2.643345 0
M  V30 17 F -1.639972 4.052394 1.585494 0
M  V30 18 F -2.764566 2.241660 0.757833 0
M  V30 19 C -0.380251 0.890253 0.320397 0
M  V30 20 N 0.589408 -2.098392 -0.043929 0
M  V30 21 N 0.134592 -2.229601 1.191451 0
M  V30 22 H 0.068227 -2.178649 4.361096 0
M  V30 23 H -1.570270 -2.886978 4.661616 0
M  V30 24 H -1.311161 -1.743398 3.308126 0
M  V30 25 H 0.045261 -5.606451 1.382875 0
M  V30 26 H 0.886325 -5.369378 -0.901866 0
M  V30 27 H 1.620069 -0.838792 -2.828684 0
M  V30 28 H 2.665182 0.888009 -1.182189 0
M  V30 29 H 2.533672 3.232606 -0.512274 0
M  V30 30 H 0.602045 4.093644 0.662642 0
M  V30 31 H -1.169763 0.189463 0.528937 0
M  V30 END ATOM
M  V30 BEGIN BOND
M  V30 1 1 1 2
M  V30 2 1 2 3
M  V30 3 1 3 4
M  V30 4 2 4 5
M  V30 5 1 5 6
M  V30 6 2 6 7
M  V30 7 1 7 8
M  V30 8 2 8 9
M  V30 9 1 9 10
M  V30 10 2 10 11
M  V30 11 1 11 12
M  V30 12 2 12 13
M  V30 13 1 13 14
M  V30 14 1 14 15
M  V30 15 1 15 16
M  V30 16 1 15 17
M  V30 17 1 15 18
M  V30 18 2 14 19
M  V30 19 1 9 20
M  V30 20 1 20 21
M  V30 21 2 21 3
M  V30 22 1 20 6
M  V30 23 1 19 10
M  V30 24 1 1 22
M  V30 25 1 1 23
M  V30 26 1 1 24
M  V30 27 1 4 25
M  V30 28 1 5 26
M  V30 29 1 8 27
M  V30 30 1 11 28
M  V30 31 1 12 29
M  V30 32 1 13 30
M  V30 33 1 19 31
M  V30 END BOND
M  V30 END CTAB
M  END
>  <Dataset>  (279) 
ChEMBL_Kinases

>  <Ligand_Instance>  (279) 
nan

>  <PDB_ID>  (279) 
nan

>  <Standardized_SMILES>  (279) 
COc1ccc2ncc(-c3cccc(C(F)(F)F)c3)n2n1

>  <Name>  (279) 
nan

>  <Pocket>  (279) 
nan

>  <ATP_Site>  (279) 
nan

>  <Peripheral>  (279) 
nan

>  <Num_H_Atoms_ProtBoundConf>  (279) 
nan

>  <Num_Resolved_Atoms>  (279) 
nan

>  <Num_Not_Resolved_Atoms>  (279) 
nan

$$$$
CHEMBL4091942
     RDKit          3D

  0  0  0  0  0  0  0  0  0  0999 V3000
M  V30 BEGIN CTAB
M  V30 COUNTS 28 31 0 0 0
M  V30 BEGIN ATOM
M  V30 1 Cl -2.579481 -4.755137 2.099315 0
M  V30 2 C -1.137712 -3.852670 2.502246 0
M  V30 3 C -0.460488 -4.326626 3.617936 0
M  V30 4 C 0.697287 -3.651003 3.992138 0
M  V30 5 C 1.083815 -2.551825 3.215651 0
M  V30 6 N 2.150939 -1.792865 3.419981 0
M  V30 7 C 2.191018 -0.825134 2.458547 0
M  V30 8 C 1.071856 -1.075863 1.681662 0
M  V30 9 C 0.684295 -0.290014 0.512189 0
M  V30 10 C 0.293778 -1.023238 -0.614961 0
M  V30 11 C -0.069587 -0.267923 -1.712040 0
M  V30 12 C -0.058659 1.128909 -1.726736 0
M  V30 13 N -0.356776 2.068329 -2.637558 0
M  V30 14 C -0.160015 3.291092 -2.098313 0
M  V30 15 C 0.284324 3.159152 -0.783358 0
M  V30 16 C 0.336530 1.793922 -0.583513 0
M  V30 17 C 0.710532 1.088604 0.543257 0
M  V30 18 N 0.381579 -2.137406 2.138249 0
M  V30 19 N -0.714896 -2.788812 1.795782 0
M  V30 20 H -0.770936 -5.168691 4.199532 0
M  V30 21 H 1.263097 -3.978623 4.853741 0
M  V30 22 H 2.938073 -0.058236 2.358520 0
M  V30 23 H 0.274876 -2.100584 -0.634504 0
M  V30 24 H -0.373004 -0.791625 -2.589334 0
M  V30 25 H -0.682501 1.796230 -3.589108 0
M  V30 26 H -0.331330 4.235670 -2.635317 0
M  V30 27 H 0.520514 3.992761 -0.114762 0
M  V30 28 H 1.018477 1.628620 1.433369 0
M  V30 END ATOM
M  V30 BEGIN BOND
M  V30 1 1 1 2
M  V30 2 1 2 3
M  V30 3 2 3 4
M  V30 4 1 4 5
M  V30 5 2 5 6
M  V30 6 1 6 7
M  V30 7 2 7 8
M  V30 8 1 8 9
M  V30 9 2 9 10
M  V30 10 1 10 11
M  V30 11 2 11 12
M  V30 12 1 12 13
M  V30 13 1 13 14
M  V30 14 2 14 15
M  V30 15 1 15 16
M  V30 16 2 16 17
M  V30 17 1 8 18
M  V30 18 1 18 19
M  V30 19 2 19 2
M  V30 20 1 18 5
M  V30 21 1 17 9
M  V30 22 1 16 12
M  V30 23 1 3 20
M  V30 24 1 4 21
M  V30 25 1 7 22
M  V30 26 1 10 23
M  V30 27 1 11 24
M  V30 28 1 13 25
M  V30 29 1 14 26
M  V30 30 1 15 27
M  V30 31 1 17 28
M  V30 END BOND
M  V30 END CTAB
M  END
>  <Dataset>  (280) 
ChEMBL_Kinases

>  <Ligand_Instance>  (280) 
nan

>  <PDB_ID>  (280) 
nan

>  <Standardized_SMILES>  (280) 
Clc1ccc2ncc(-c3ccc4[nH]ccc4c3)n2n1

>  <Name>  (280) 
nan

>  <Pocket>  (280) 
nan

>  <ATP_Site>  (280) 
nan

>  <Peripheral>  (280) 
nan

>  <Num_H_Atoms_ProtBoundConf>  (280) 
nan

>  <Num_Resolved_Atoms>  (280) 
nan

>  <Num_Not_Resolved_Atoms>  (280) 
nan

$$$$
CHEMBL4065432
     RDKit          3D

  0  0  0  0  0  0  0  0  0  0999 V3000
M  V30 BEGIN CTAB
M  V30 COUNTS 43 45 0 0 0
M  V30 BEGIN ATOM
M  V30 1 C -0.255269 -5.401905 1.111704 0
M  V30 2 C 0.731632 -4.354600 1.495502 0
M  V30 3 C 1.030769 -3.371431 0.418028 0 CFG=1
M  V30 4 C -0.193278 -2.615584 -0.033616 0
M  V30 5 O 0.168922 -1.676416 -1.024670 0
M  V30 6 N 1.949897 -2.384078 0.958286 0
M  V30 7 C 2.542107 -1.220155 0.441950 0
M  V30 8 C 3.691498 -1.037862 -0.292911 0
M  V30 9 C 4.076918 0.226295 -0.685972 0
M  V30 10 C 3.282455 1.289904 -0.322947 0
M  V30 11 N 3.415067 2.588086 -0.563575 0
M  V30 12 C 2.405566 3.286529 -0.022733 0
M  V30 13 C 1.613873 2.341429 0.583923 0
M  V30 14 C 0.355346 2.470307 1.349170 0
M  V30 15 C 0.134691 3.433842 2.326888 0
M  V30 16 C -1.082102 3.458922 2.983457 0
M  V30 17 C -2.097824 2.566510 2.713763 0
M  V30 18 C -1.907747 1.600220 1.749596 0
M  V30 19 C -2.906916 0.602376 1.378398 0
M  V30 20 N -2.771343 -0.317822 0.483817 0
M  V30 21 O -3.751338 -1.223003 0.185666 0
M  V30 22 C -0.682640 1.595034 1.106317 0
M  V30 23 N 2.163207 1.106378 0.393537 0
M  V30 24 N 1.814123 -0.135832 0.761192 0
M  V30 25 H -0.971922 -5.538677 1.961778 0
M  V30 26 H -0.870878 -5.168371 0.224503 0
M  V30 27 H 0.189916 -6.403512 0.910116 0
M  V30 28 H 1.687823 -4.858141 1.769060 0
M  V30 29 H 0.388469 -3.805283 2.396851 0
M  V30 30 H 1.529288 -3.890440 -0.433788 0
M  V30 31 H -0.995399 -3.246776 -0.439237 0
M  V30 32 H -0.508599 -1.980993 0.831626 0
M  V30 33 H -0.597128 -1.061692 -1.175330 0
M  V30 34 H 2.326888 -2.441174 1.941439 0
M  V30 35 H 4.202247 -1.990126 -0.494024 0
M  V30 36 H 4.981555 0.284845 -1.253500 0
M  V30 37 H 2.179102 4.343357 -0.012010 0
M  V30 38 H 0.945738 4.127143 2.524554 0
M  V30 39 H -1.234215 4.219915 3.743007 0
M  V30 40 H -3.050428 2.597804 3.238352 0
M  V30 41 H -3.873840 0.626875 1.905514 0
M  V30 42 H -3.572572 -1.859504 -0.583095 0
M  V30 43 H -0.508692 0.838225 0.338205 0
M  V30 END ATOM
M  V30 BEGIN BOND
M  V30 1 1 1 2
M  V30 2 1 2 3
M  V30 3 1 3 4
M  V30 4 1 4 5
M  V30 5 1 3 6
M  V30 6 1 6 7
M  V30 7 1 7 8
M  V30 8 2 8 9
M  V30 9 1 9 10
M  V30 10 2 10 11
M  V30 11 1 11 12
M  V30 12 2 12 13
M  V30 13 1 13 14
M  V30 14 2 14 15
M  V30 15 1 15 16
M  V30 16 2 16 17
M  V30 17 1 17 18
M  V30 18 1 18 19
M  V30 19 2 19 20
M  V30 20 1 20 21
M  V30 21 2 18 22
M  V30 22 1 13 23
M  V30 23 1 23 24
M  V30 24 2 24 7
M  V30 25 1 23 10
M  V30 26 1 22 14
M  V30 27 1 1 25
M  V30 28 1 1 26
M  V30 29 1 1 27
M  V30 30 1 2 28
M  V30 31 1 2 29
M  V30 32 1 3 30 CFG=3
M  V30 33 1 4 31
M  V30 34 1 4 32
M  V30 35 1 5 33
M  V30 36 1 6 34
M  V30 37 1 8 35
M  V30 38 1 9 36
M  V30 39 1 12 37
M  V30 40 1 15 38
M  V30 41 1 16 39
M  V30 42 1 17 40
M  V30 43 1 19 41
M  V30 44 1 21 42
M  V30 45 1 22 43
M  V30 END BOND
M  V30 END CTAB
M  END
>  <Dataset>  (281) 
ChEMBL_Kinases

>  <Ligand_Instance>  (281) 
nan

>  <PDB_ID>  (281) 
nan

>  <Standardized_SMILES>  (281) 
CC[C@@H](CO)Nc1ccc2ncc(-c3cccc(/C=N/O)c3)n2n1

>  <Name>  (281) 
nan

>  <Pocket>  (281) 
nan

>  <ATP_Site>  (281) 
nan

>  <Peripheral>  (281) 
nan

>  <Num_H_Atoms_ProtBoundConf>  (281) 
nan

>  <Num_Resolved_Atoms>  (281) 
nan

>  <Num_Not_Resolved_Atoms>  (281) 
nan

$$$$
CHEMBL4877302
     RDKit          3D

  0  0  0  0  0  0  0  0  0  0999 V3000
M  V30 BEGIN CTAB
M  V30 COUNTS 54 57 0 0 0
M  V30 BEGIN ATOM
M  V30 1 C 3.818749 -4.659075 -0.336364 0
M  V30 2 C 3.669629 -4.597040 1.189171 0
M  V30 3 C 3.077505 -3.267645 1.573714 0
M  V30 4 C 1.675124 -3.199824 1.582879 0
M  V30 5 C 1.293190 -1.922948 1.921270 0
M  V30 6 N 0.019229 -1.252598 2.087771 0
M  V30 7 C -0.266958 -0.907181 0.712654 0
M  V30 8 N 0.380075 0.110870 0.064262 0
M  V30 9 C 0.097038 0.404445 -1.228261 0
M  V30 10 N 0.912850 1.499034 -1.619393 0
M  V30 11 C 0.613200 2.919302 -1.611270 0
M  V30 12 C 0.221648 3.282904 -0.225189 0
M  V30 13 C 1.015493 3.973339 0.663655 0
M  V30 14 C 0.607605 4.298798 1.950064 0
M  V30 15 C -0.629396 3.934650 2.384742 0
M  V30 16 Cl -1.184992 4.323853 4.006921 0
M  V30 17 C -1.490804 3.237948 1.551181 0
M  V30 18 C -1.025018 2.940550 0.275655 0
M  V30 19 O -1.908067 2.246512 -0.528496 0
M  V30 20 C -3.193837 1.828284 -0.184698 0
M  V30 21 N -0.833590 -0.283283 -1.953415 0
M  V30 22 C -1.457797 -1.278383 -1.294667 0
M  V30 23 C -2.407700 -1.958009 -2.040520 0
M  V30 24 C -3.115350 -2.997422 -1.445508 0
M  V30 25 C -2.890166 -3.363974 -0.130669 0
M  V30 26 C -1.935798 -2.676825 0.609102 0
M  V30 27 O -1.623465 -2.951750 1.927577 0
M  V30 28 C -2.299192 -3.991974 2.599345 0
M  V30 29 C -1.233973 -1.643793 0.014613 0
M  V30 30 N 2.443446 -1.252386 2.107857 0
M  V30 31 N 3.483857 -2.032056 1.907083 0
M  V30 32 H 4.876489 -4.670913 -0.653821 0
M  V30 33 H 3.237319 -5.514413 -0.751708 0
M  V30 34 H 3.367841 -3.733315 -0.796728 0
M  V30 35 H 4.718010 -4.660354 1.590986 0
M  V30 36 H 3.080609 -5.439595 1.544291 0
M  V30 37 H 0.898161 -3.910885 1.384709 0
M  V30 38 H -0.539022 -1.070021 2.945879 0
M  V30 39 H 1.847614 1.131465 -1.947195 0
M  V30 40 H 1.508432 3.511756 -1.908656 0
M  V30 41 H -0.228595 3.071273 -2.311995 0
M  V30 42 H 1.994239 4.276118 0.360204 0
M  V30 43 H 1.263041 4.838628 2.611763 0
M  V30 44 H -2.483539 2.932835 1.870063 0
M  V30 45 H -3.213994 0.859680 0.392240 0
M  V30 46 H -3.809343 2.612015 0.307804 0
M  V30 47 H -3.698163 1.561615 -1.153760 0
M  V30 48 H -2.604150 -1.681765 -3.078399 0
M  V30 49 H -3.838850 -3.498739 -2.051840 0
M  V30 50 H -3.445234 -4.181793 0.350408 0
M  V30 51 H -2.101440 -3.937439 3.689963 0
M  V30 52 H -1.936626 -4.954522 2.164763 0
M  V30 53 H -3.373341 -3.922961 2.368812 0
M  V30 54 H 4.538966 -1.906445 1.949851 0
M  V30 END ATOM
M  V30 BEGIN BOND
M  V30 1 1 1 2
M  V30 2 1 2 3
M  V30 3 2 3 4
M  V30 4 1 4 5
M  V30 5 1 5 6
M  V30 6 1 6 7
M  V30 7 2 7 8
M  V30 8 1 8 9
M  V30 9 1 9 10
M  V30 10 1 10 11
M  V30 11 1 11 12
M  V30 12 2 12 13
M  V30 13 1 13 14
M  V30 14 2 14 15
M  V30 15 1 15 16
M  V30 16 1 15 17
M  V30 17 2 17 18
M  V30 18 1 18 19
M  V30 19 1 19 20
M  V30 20 2 9 21
M  V30 21 1 21 22
M  V30 22 2 22 23
M  V30 23 1 23 24
M  V30 24 2 24 25
M  V30 25 1 25 26
M  V30 26 1 26 27
M  V30 27 1 27 28
M  V30 28 2 26 29
M  V30 29 2 5 30
M  V30 30 1 30 31
M  V30 31 1 31 3
M  V30 32 1 29 7
M  V30 33 1 18 12
M  V30 34 1 29 22
M  V30 35 1 1 32
M  V30 36 1 1 33
M  V30 37 1 1 34
M  V30 38 1 2 35
M  V30 39 1 2 36
M  V30 40 1 4 37
M  V30 41 1 6 38
M  V30 42 1 10 39
M  V30 43 1 11 40
M  V30 44 1 11 41
M  V30 45 1 13 42
M  V30 46 1 14 43
M  V30 47 1 17 44
M  V30 48 1 20 45
M  V30 49 1 20 46
M  V30 50 1 20 47
M  V30 51 1 23 48
M  V30 52 1 24 49
M  V30 53 1 25 50
M  V30 54 1 28 51
M  V30 55 1 28 52
M  V30 56 1 28 53
M  V30 57 1 31 54
M  V30 END BOND
M  V30 END CTAB
M  END
>  <Dataset>  (282) 
ChEMBL_Kinases

>  <Ligand_Instance>  (282) 
nan

>  <PDB_ID>  (282) 
nan

>  <Standardized_SMILES>  (282) 
CCc1cc(Nc2nc(NCc3ccc(Cl)cc3OC)nc3cccc(OC)c23)n[nH]1

>  <Name>  (282) 
nan

>  <Pocket>  (282) 
nan

>  <ATP_Site>  (282) 
nan

>  <Peripheral>  (282) 
nan

>  <Num_H_Atoms_ProtBoundConf>  (282) 
nan

>  <Num_Resolved_Atoms>  (282) 
nan

>  <Num_Not_Resolved_Atoms>  (282) 
nan

$$$$
CHEMBL4093104
     RDKit          3D

  0  0  0  0  0  0  0  0  0  0999 V3000
M  V30 BEGIN CTAB
M  V30 COUNTS 41 43 0 0 0
M  V30 BEGIN ATOM
M  V30 1 C -1.020538 -4.528850 0.768752 0
M  V30 2 C 0.474618 -4.445176 0.972263 0
M  V30 3 C 0.927729 -3.042152 0.721757 0 CFG=1
M  V30 4 C 2.402494 -2.822897 0.891896 0
M  V30 5 O 3.124327 -3.475749 -0.103478 0
M  V30 6 N 0.528642 -2.518704 -0.565625 0
M  V30 7 C 1.019021 -1.206123 -0.755539 0
M  V30 8 C 1.931228 -1.048839 -1.784437 0
M  V30 9 C 2.438613 0.240749 -1.980612 0
M  V30 10 C 2.034467 1.289480 -1.174571 0
M  V30 11 N 2.396579 2.601507 -1.180734 0
M  V30 12 C 1.711855 3.215116 -0.171344 0
M  V30 13 C 0.933336 2.264329 0.444363 0
M  V30 14 C 0.003711 2.334915 1.591411 0
M  V30 15 C 0.226496 2.930916 2.815768 0
M  V30 16 C -0.767098 2.902335 3.766183 0
M  V30 17 C -1.986862 2.307248 3.566284 0
M  V30 18 C -2.250104 1.692193 2.337400 0
M  V30 19 C -3.521634 1.041148 2.034560 0
M  V30 20 O -3.841874 0.469218 0.960957 0
M  V30 21 C -1.239358 1.732271 1.398240 0
M  V30 22 N 1.148885 1.075381 -0.194444 0
M  V30 23 N 0.656752 -0.153949 0.002469 0
M  V30 24 H -1.497457 -3.534723 0.884665 0
M  V30 25 H -1.499632 -5.210302 1.525826 0
M  V30 26 H -1.231678 -4.915793 -0.246456 0
M  V30 27 H 1.033195 -5.230767 0.447133 0
M  V30 28 H 0.632966 -4.641324 2.071476 0
M  V30 29 H 0.428188 -2.413320 1.503497 0
M  V30 30 H 2.785679 -3.137057 1.885710 0
M  V30 31 H 2.613698 -1.723286 0.811843 0
M  V30 32 H 3.783667 -4.116410 0.310523 0
M  V30 33 H -0.045773 -3.128078 -1.183114 0
M  V30 34 H 2.239227 -1.885878 -2.409915 0
M  V30 35 H 3.161988 0.404768 -2.785951 0
M  V30 36 H 1.711604 4.250501 0.161718 0
M  V30 37 H 1.200423 3.382868 2.926704 0
M  V30 38 H -0.577031 3.374900 4.726850 0
M  V30 39 H -2.757947 2.292723 4.323150 0
M  V30 40 H -4.291421 1.034668 2.797137 0
M  V30 41 H -1.468147 1.246093 0.442767 0
M  V30 END ATOM
M  V30 BEGIN BOND
M  V30 1 1 1 2
M  V30 2 1 2 3
M  V30 3 1 3 4
M  V30 4 1 4 5
M  V30 5 1 3 6
M  V30 6 1 6 7
M  V30 7 1 7 8
M  V30 8 2 8 9
M  V30 9 1 9 10
M  V30 10 2 10 11
M  V30 11 1 11 12
M  V30 12 2 12 13
M  V30 13 1 13 14
M  V30 14 2 14 15
M  V30 15 1 15 16
M  V30 16 2 16 17
M  V30 17 1 17 18
M  V30 18 1 18 19
M  V30 19 2 19 20
M  V30 20 2 18 21
M  V30 21 1 13 22
M  V30 22 1 22 23
M  V30 23 2 23 7
M  V30 24 1 22 10
M  V30 25 1 21 14
M  V30 26 1 1 24
M  V30 27 1 1 25
M  V30 28 1 1 26
M  V30 29 1 2 27
M  V30 30 1 2 28
M  V30 31 1 3 29 CFG=1
M  V30 32 1 4 30
M  V30 33 1 4 31
M  V30 34 1 5 32
M  V30 35 1 6 33
M  V30 36 1 8 34
M  V30 37 1 9 35
M  V30 38 1 12 36
M  V30 39 1 15 37
M  V30 40 1 16 38
M  V30 41 1 17 39
M  V30 42 1 19 40
M  V30 43 1 21 41
M  V30 END BOND
M  V30 END CTAB
M  END
>  <Dataset>  (283) 
ChEMBL_Kinases

>  <Ligand_Instance>  (283) 
nan

>  <PDB_ID>  (283) 
nan

>  <Standardized_SMILES>  (283) 
CC[C@@H](CO)Nc1ccc2ncc(-c3cccc(C=O)c3)n2n1

>  <Name>  (283) 
nan

>  <Pocket>  (283) 
nan

>  <ATP_Site>  (283) 
nan

>  <Peripheral>  (283) 
nan

>  <Num_H_Atoms_ProtBoundConf>  (283) 
nan

>  <Num_Resolved_Atoms>  (283) 
nan

>  <Num_Not_Resolved_Atoms>  (283) 
nan

$$$$
CHEMBL4090223
     RDKit          3D

  0  0  0  0  0  0  0  0  0  0999 V3000
M  V30 BEGIN CTAB
M  V30 COUNTS 32 35 0 0 0
M  V30 BEGIN ATOM
M  V30 1 C -2.823641 -1.239043 3.822852 0
M  V30 2 S -2.265171 -2.929287 3.653312 0
M  V30 3 C -0.967951 -3.150982 2.469488 0
M  V30 4 C -0.555710 -4.474138 2.360417 0
M  V30 5 C 0.463609 -4.821054 1.467028 0
M  V30 6 C 1.051955 -3.818120 0.694795 0
M  V30 7 N 2.037263 -3.832983 -0.237145 0
M  V30 8 C 2.187236 -2.559386 -0.651082 0
M  V30 9 C 1.296922 -1.743725 0.019930 0
M  V30 10 C 1.222848 -0.305502 -0.216508 0
M  V30 11 C 2.358109 0.483047 -0.303238 0
M  V30 12 C 2.312994 1.848670 -0.526844 0
M  V30 13 C 1.049767 2.390345 -0.660997 0
M  V30 14 N 0.663327 3.663906 -0.882093 0
M  V30 15 C -0.669319 3.796528 -0.952291 0
M  V30 16 C -1.208240 2.531250 -0.766316 0
M  V30 17 C -0.130836 1.686452 -0.589684 0
M  V30 18 C 0.013584 0.315297 -0.361547 0
M  V30 19 N 0.594064 -2.551413 0.859229 0
M  V30 20 N -0.370344 -2.228198 1.705557 0
M  V30 21 H -2.901423 -0.956266 4.911780 0
M  V30 22 H -3.878586 -1.121720 3.438473 0
M  V30 23 H -2.197725 -0.481390 3.325867 0
M  V30 24 H -0.904302 -5.354417 2.878977 0
M  V30 25 H 0.853697 -5.793699 1.304206 0
M  V30 26 H 2.929629 -2.309775 -1.408863 0
M  V30 27 H 3.335243 0.034076 -0.194581 0
M  V30 28 H 3.197894 2.471814 -0.595799 0
M  V30 29 H 1.339386 4.462440 -0.987199 0
M  V30 30 H -1.218565 4.709527 -1.120733 0
M  V30 31 H -2.246581 2.232485 -0.755630 0
M  V30 32 H -0.871248 -0.299034 -0.293986 0
M  V30 END ATOM
M  V30 BEGIN BOND
M  V30 1 1 1 2
M  V30 2 1 2 3
M  V30 3 1 3 4
M  V30 4 2 4 5
M  V30 5 1 5 6
M  V30 6 2 6 7
M  V30 7 1 7 8
M  V30 8 2 8 9
M  V30 9 1 9 10
M  V30 10 2 10 11
M  V30 11 1 11 12
M  V30 12 2 12 13
M  V30 13 1 13 14
M  V30 14 1 14 15
M  V30 15 2 15 16
M  V30 16 1 16 17
M  V30 17 2 17 18
M  V30 18 1 9 19
M  V30 19 1 19 20
M  V30 20 2 20 3
M  V30 21 1 19 6
M  V30 22 1 18 10
M  V30 23 1 17 13
M  V30 24 1 1 21
M  V30 25 1 1 22
M  V30 26 1 1 23
M  V30 27 1 4 24
M  V30 28 1 5 25
M  V30 29 1 8 26
M  V30 30 1 11 27
M  V30 31 1 12 28
M  V30 32 1 14 29
M  V30 33 1 15 30
M  V30 34 1 16 31
M  V30 35 1 18 32
M  V30 END BOND
M  V30 END CTAB
M  END
>  <Dataset>  (284) 
ChEMBL_Kinases

>  <Ligand_Instance>  (284) 
nan

>  <PDB_ID>  (284) 
nan

>  <Standardized_SMILES>  (284) 
CSc1ccc2ncc(-c3ccc4[nH]ccc4c3)n2n1

>  <Name>  (284) 
nan

>  <Pocket>  (284) 
nan

>  <ATP_Site>  (284) 
nan

>  <Peripheral>  (284) 
nan

>  <Num_H_Atoms_ProtBoundConf>  (284) 
nan

>  <Num_Resolved_Atoms>  (284) 
nan

>  <Num_Not_Resolved_Atoms>  (284) 
nan

$$$$
CHEMBL3104851
     RDKit          3D

  0  0  0  0  0  0  0  0  0  0999 V3000
M  V30 BEGIN CTAB
M  V30 COUNTS 41 44 0 0 0
M  V30 BEGIN ATOM
M  V30 1 C 3.490699 -3.764946 -1.151759 0
M  V30 2 C 3.033652 -2.572397 -0.424260 0
M  V30 3 C 3.536066 -2.127377 0.779587 0
M  V30 4 O 4.559786 -2.870304 1.350205 0
M  V30 5 C 3.054628 -0.993516 1.406336 0
M  V30 6 O 3.569514 -0.551859 2.623624 0
M  V30 7 C 2.046559 -0.250206 0.857839 0
M  V30 8 C 1.552649 -0.710026 -0.351110 0
M  V30 9 C 2.018766 -1.827399 -0.980274 0
M  V30 10 C 1.426947 -2.215608 -2.243158 0
M  V30 11 O 1.998666 -1.710461 -3.240044 0
M  V30 12 C 0.445727 0.077789 -0.985775 0 CFG=2
M  V30 13 O 0.491008 1.400191 -0.629300 0
M  V30 14 C 0.435141 1.608423 0.749372 0 CFG=2
M  V30 15 O 1.488689 0.895632 1.392368 0
M  V30 16 C -0.845006 1.096400 1.256392 0
M  V30 17 C -1.492129 1.617014 2.331476 0
M  V30 18 C -0.923097 2.760991 3.068713 0
M  V30 19 C -2.705217 1.114460 2.793695 0
M  V30 20 O -3.388146 1.627632 3.890190 0
M  V30 21 C -3.305032 0.043626 2.158383 0
M  V30 22 O -4.508271 -0.510743 2.558132 0
M  V30 23 C -2.669250 -0.510329 1.057532 0
M  V30 24 O -3.200692 -1.600483 0.346126 0
M  V30 25 C -1.471531 0.023698 0.640921 0
M  V30 26 C -0.810904 -0.581871 -0.534439 0
M  V30 27 O -1.280425 -1.589633 -1.115687 0
M  V30 28 H 3.814910 -4.527460 -0.424516 0
M  V30 29 H 2.629111 -4.198223 -1.713350 0
M  V30 30 H 4.291601 -3.524343 -1.879326 0
M  V30 31 H 4.293362 -3.643642 1.943649 0
M  V30 32 H 4.306167 -1.083099 3.036358 0
M  V30 33 H 0.647819 -2.799277 -2.669017 0
M  V30 34 H 0.550555 0.003456 -2.066456 0
M  V30 35 H 0.587489 2.688748 0.891250 0
M  V30 36 H 0.115329 2.996283 2.851935 0
M  V30 37 H -1.613837 3.635897 2.893359 0
M  V30 38 H -0.987002 2.588777 4.180507 0
M  V30 39 H -4.195097 2.224612 3.785339 0
M  V30 40 H -4.644418 -0.831492 3.509837 0
M  V30 41 H -2.791951 -2.504985 0.610429 0
M  V30 END ATOM
M  V30 BEGIN BOND
M  V30 1 1 1 2
M  V30 2 2 2 3
M  V30 3 1 3 4
M  V30 4 1 3 5
M  V30 5 1 5 6
M  V30 6 2 5 7
M  V30 7 1 7 8
M  V30 8 2 8 9
M  V30 9 1 9 10
M  V30 10 2 10 11
M  V30 11 1 8 12
M  V30 12 1 12 13
M  V30 13 1 13 14
M  V30 14 1 14 15
M  V30 15 1 14 16
M  V30 16 2 16 17
M  V30 17 1 17 18
M  V30 18 1 17 19
M  V30 19 1 19 20
M  V30 20 2 19 21
M  V30 21 1 21 22
M  V30 22 1 21 23
M  V30 23 1 23 24
M  V30 24 2 23 25
M  V30 25 1 25 26
M  V30 26 2 26 27
M  V30 27 1 9 2
M  V30 28 1 26 12
M  V30 29 1 15 7
M  V30 30 1 25 16
M  V30 31 1 1 28
M  V30 32 1 1 29
M  V30 33 1 1 30
M  V30 34 1 4 31
M  V30 35 1 6 32
M  V30 36 1 10 33
M  V30 37 1 12 34 CFG=3
M  V30 38 1 14 35 CFG=3
M  V30 39 1 18 36
M  V30 40 1 18 37
M  V30 41 1 18 38
M  V30 42 1 20 39
M  V30 43 1 22 40
M  V30 44 1 24 41
M  V30 END BOND
M  V30 END CTAB
M  END
>  <Dataset>  (285) 
ChEMBL_Kinases

>  <Ligand_Instance>  (285) 
nan

>  <PDB_ID>  (285) 
nan

>  <Standardized_SMILES>  (285) 
Cc1c(O)c(O)c2c(c1C=O)[C@@H]1O[C@H](O2)c2c(C)c(O)c(O)c(O)c2C1=O

>  <Name>  (285) 
nan

>  <Pocket>  (285) 
nan

>  <ATP_Site>  (285) 
nan

>  <Peripheral>  (285) 
nan

>  <Num_H_Atoms_ProtBoundConf>  (285) 
nan

>  <Num_Resolved_Atoms>  (285) 
nan

>  <Num_Not_Resolved_Atoms>  (285) 
nan

$$$$
CHEMBL5088205
     RDKit          3D

  0  0  0  0  0  0  0  0  0  0999 V3000
M  V30 BEGIN CTAB
M  V30 COUNTS 51 52 0 0 0
M  V30 BEGIN ATOM
M  V30 1 C 4.012685 -3.585938 3.578914 0
M  V30 2 C 2.687396 -3.436278 2.873056 0
M  V30 3 C 1.632743 -3.373868 3.941590 0
M  V30 4 C 2.657053 -2.424398 1.841953 0
M  V30 5 C 2.923112 -0.994994 2.117457 0 CFG=2
M  V30 6 C 4.318254 -0.711407 2.692836 0
M  V30 7 N 1.996776 -0.316869 2.902022 0
M  V30 8 C 2.985524 -0.345090 0.734898 0
M  V30 9 O 1.877516 -0.318745 -0.010843 0
M  V30 10 C 0.630739 0.149275 -0.070738 0
M  V30 11 C -0.168223 0.935182 0.722784 0
M  V30 12 C -1.465489 1.325094 0.491744 0
M  V30 13 C -2.007960 0.859848 -0.683792 0
M  V30 14 C -3.382726 1.241287 -0.981359 0
M  V30 15 C -3.801801 2.483239 -0.517823 0
M  V30 16 C -5.094583 2.949024 -0.744162 0
M  V30 17 N -5.964218 2.198939 -1.419806 0
M  V30 18 C -5.562965 0.990436 -1.873139 0
M  V30 19 C -6.562548 0.198927 -2.614587 0
M  V30 20 F -7.646813 -0.084935 -1.806108 0
M  V30 21 F -7.073190 0.889851 -3.703053 0
M  V30 22 C -4.300419 0.481862 -1.678535 0
M  V30 23 C -1.296734 0.066273 -1.553048 0
M  V30 24 C 0.029779 -0.304139 -1.267417 0
M  V30 25 C 0.716099 -1.171394 -2.282032 0
M  V30 26 F 1.869452 -0.571352 -2.750721 0
M  V30 27 F 1.017736 -2.373583 -1.708249 0
M  V30 28 H 4.817171 -3.831974 2.837725 0
M  V30 29 H 4.265447 -2.785930 4.273079 0
M  V30 30 H 3.915689 -4.552343 4.167773 0
M  V30 31 H 2.527154 -4.446244 2.385642 0
M  V30 32 H 1.786108 -4.285138 4.580457 0
M  V30 33 H 0.590782 -3.526039 3.531386 0
M  V30 34 H 1.712580 -2.526030 4.624560 0
M  V30 35 H 3.398813 -2.727623 1.041093 0
M  V30 36 H 1.683333 -2.453735 1.277418 0
M  V30 37 H 4.989319 -1.505226 2.384209 0
M  V30 38 H 4.292763 -0.470920 3.767189 0
M  V30 39 H 4.756091 0.229396 2.235417 0
M  V30 40 H 2.289976 0.452794 3.487653 0
M  V30 41 H 1.017961 -0.607531 2.909095 0
M  V30 42 H 3.504613 0.653646 0.834674 0
M  V30 43 H 3.773147 -0.959163 0.176956 0
M  V30 44 H 0.299817 1.285570 1.615186 0
M  V30 45 H -1.965087 1.943185 1.206012 0
M  V30 46 H -3.145838 3.159929 0.046407 0
M  V30 47 H -5.385801 3.937324 -0.360664 0
M  V30 48 H -6.120505 -0.781097 -2.940655 0
M  V30 49 H -3.965912 -0.478805 -2.033609 0
M  V30 50 H -1.825471 -0.242920 -2.451870 0
M  V30 51 H 0.008358 -1.364081 -3.102314 0
M  V30 END ATOM
M  V30 BEGIN BOND
M  V30 1 1 1 2
M  V30 2 1 2 3
M  V30 3 1 2 4
M  V30 4 1 4 5
M  V30 5 1 5 6
M  V30 6 1 5 7 CFG=1
M  V30 7 1 5 8
M  V30 8 1 8 9
M  V30 9 1 9 10
M  V30 10 2 10 11
M  V30 11 1 11 12
M  V30 12 2 12 13
M  V30 13 1 13 14
M  V30 14 2 14 15
M  V30 15 1 15 16
M  V30 16 2 16 17
M  V30 17 1 17 18
M  V30 18 1 18 19
M  V30 19 1 19 20
M  V30 20 1 19 21
M  V30 21 2 18 22
M  V30 22 1 13 23
M  V30 23 2 23 24
M  V30 24 1 24 25
M  V30 25 1 25 26
M  V30 26 1 25 27
M  V30 27 1 24 10
M  V30 28 1 22 14
M  V30 29 1 1 28
M  V30 30 1 1 29
M  V30 31 1 1 30
M  V30 32 1 2 31
M  V30 33 1 3 32
M  V30 34 1 3 33
M  V30 35 1 3 34
M  V30 36 1 4 35
M  V30 37 1 4 36
M  V30 38 1 6 37
M  V30 39 1 6 38
M  V30 40 1 6 39
M  V30 41 1 7 40
M  V30 42 1 7 41
M  V30 43 1 8 42
M  V30 44 1 8 43
M  V30 45 1 11 44
M  V30 46 1 12 45
M  V30 47 1 15 46
M  V30 48 1 16 47
M  V30 49 1 19 48
M  V30 50 1 22 49
M  V30 51 1 23 50
M  V30 52 1 25 51
M  V30 END BOND
M  V30 END CTAB
M  END
>  <Dataset>  (286) 
ChEMBL_Kinases

>  <Ligand_Instance>  (286) 
nan

>  <PDB_ID>  (286) 
nan

>  <Standardized_SMILES>  (286) 
CC(C)C[C@](C)(N)COc1ccc(-c2ccnc(C(F)F)c2)cc1C(F)F

>  <Name>  (286) 
nan

>  <Pocket>  (286) 
nan

>  <ATP_Site>  (286) 
nan

>  <Peripheral>  (286) 
nan

>  <Num_H_Atoms_ProtBoundConf>  (286) 
nan

>  <Num_Resolved_Atoms>  (286) 
nan

>  <Num_Not_Resolved_Atoms>  (286) 
nan

$$$$
CHEMBL4092673
     RDKit          3D

  0  0  0  0  0  0  0  0  0  0999 V3000
M  V30 BEGIN CTAB
M  V30 COUNTS 51 53 0 0 0
M  V30 BEGIN ATOM
M  V30 1 C 1.093794 -2.765776 -0.853877 0
M  V30 2 C 2.451525 -2.100889 -0.895201 0
M  V30 3 C 3.067916 -1.970986 0.464950 0 CFG=1
M  V30 4 C 4.427126 -1.288444 0.287885 0
M  V30 5 O 5.103446 -1.178953 1.495500 0
M  V30 6 N 2.294304 -1.173318 1.372975 0
M  V30 7 C 1.942512 -1.824847 2.595790 0
M  V30 8 C 1.152288 -1.254528 3.718404 0
M  V30 9 O 2.255729 -3.018227 2.923298 0
M  V30 10 C 1.830536 0.144811 1.246590 0
M  V30 11 C 2.663329 1.162071 1.711687 0
M  V30 12 C 2.186333 2.468012 1.578205 0
M  V30 13 C 0.949550 2.706735 1.010607 0
M  V30 14 N 0.316366 3.881422 0.794092 0
M  V30 15 C -0.868475 3.614845 0.215479 0
M  V30 16 C -0.960129 2.228081 0.074575 0
M  V30 17 C -2.001450 1.369107 -0.477907 0
M  V30 18 C -2.602883 1.696693 -1.674628 0
M  V30 19 C -3.581904 0.855693 -2.158465 0
M  V30 20 C -3.957922 -0.278903 -1.479585 0
M  V30 21 C -3.380272 -0.637562 -0.283278 0
M  V30 22 N -3.823498 -1.816892 0.348543 0
M  V30 23 C -3.406765 -2.408711 1.566525 0
M  V30 24 C -3.953701 -3.662433 2.131386 0
M  V30 25 O -2.506766 -1.843435 2.232841 0
M  V30 26 C -2.413280 0.226244 0.159307 0
M  V30 27 N 0.182113 1.689489 0.576393 0
M  V30 28 N 0.637263 0.448974 0.704158 0
M  V30 29 H 0.906724 -3.055674 0.200041 0
M  V30 30 H 1.034611 -3.699836 -1.444083 0
M  V30 31 H 0.294859 -2.109020 -1.256290 0
M  V30 32 H 3.110543 -2.817034 -1.462250 0
M  V30 33 H 2.483134 -1.170491 -1.465294 0
M  V30 34 H 3.222435 -2.945649 0.934622 0
M  V30 35 H 4.305115 -0.303989 -0.196561 0
M  V30 36 H 5.000112 -1.938441 -0.406352 0
M  V30 37 H 5.076162 -2.050958 1.934369 0
M  V30 38 H 1.817186 -1.180663 4.609927 0
M  V30 39 H 0.308147 -1.927149 4.016804 0
M  V30 40 H 0.776019 -0.220023 3.480025 0
M  V30 41 H 3.629180 1.046619 2.159935 0
M  V30 42 H 2.781631 3.316134 1.919179 0
M  V30 43 H -1.686472 4.242570 -0.126856 0
M  V30 44 H -2.343595 2.577731 -2.247873 0
M  V30 45 H -4.081840 1.069081 -3.090438 0
M  V30 46 H -4.733073 -0.907071 -1.902840 0
M  V30 47 H -4.572600 -2.390723 -0.095935 0
M  V30 48 H -4.890748 -3.424809 2.693822 0
M  V30 49 H -3.202490 -4.176813 2.732484 0
M  V30 50 H -4.175410 -4.349477 1.262934 0
M  V30 51 H -1.909015 0.020707 1.089041 0
M  V30 END ATOM
M  V30 BEGIN BOND
M  V30 1 1 1 2
M  V30 2 1 2 3
M  V30 3 1 3 4
M  V30 4 1 4 5
M  V30 5 1 3 6
M  V30 6 1 6 7
M  V30 7 1 7 8
M  V30 8 2 7 9
M  V30 9 1 6 10
M  V30 10 1 10 11
M  V30 11 2 11 12
M  V30 12 1 12 13
M  V30 13 2 13 14
M  V30 14 1 14 15
M  V30 15 2 15 16
M  V30 16 1 16 17
M  V30 17 2 17 18
M  V30 18 1 18 19
M  V30 19 2 19 20
M  V30 20 1 20 21
M  V30 21 1 21 22
M  V30 22 1 22 23
M  V30 23 1 23 24
M  V30 24 2 23 25
M  V30 25 2 21 26
M  V30 26 1 16 27
M  V30 27 1 27 28
M  V30 28 2 28 10
M  V30 29 1 27 13
M  V30 30 1 26 17
M  V30 31 1 1 29
M  V30 32 1 1 30
M  V30 33 1 1 31
M  V30 34 1 2 32
M  V30 35 1 2 33
M  V30 36 1 3 34 CFG=1
M  V30 37 1 4 35
M  V30 38 1 4 36
M  V30 39 1 5 37
M  V30 40 1 8 38
M  V30 41 1 8 39
M  V30 42 1 8 40
M  V30 43 1 11 41
M  V30 44 1 12 42
M  V30 45 1 15 43
M  V30 46 1 18 44
M  V30 47 1 19 45
M  V30 48 1 20 46
M  V30 49 1 22 47
M  V30 50 1 24 48
M  V30 51 1 24 49
M  V30 52 1 24 50
M  V30 53 1 26 51
M  V30 END BOND
M  V30 END CTAB
M  END
>  <Dataset>  (287) 
ChEMBL_Kinases

>  <Ligand_Instance>  (287) 
nan

>  <PDB_ID>  (287) 
nan

>  <Standardized_SMILES>  (287) 
CC[C@@H](CO)N(C(C)=O)c1ccc2ncc(-c3cccc(NC(C)=O)c3)n2n1

>  <Name>  (287) 
nan

>  <Pocket>  (287) 
nan

>  <ATP_Site>  (287) 
nan

>  <Peripheral>  (287) 
nan

>  <Num_H_Atoms_ProtBoundConf>  (287) 
nan

>  <Num_Resolved_Atoms>  (287) 
nan

>  <Num_Not_Resolved_Atoms>  (287) 
nan

$$$$
CHEMBL2178352
     RDKit          3D

  0  0  0  0  0  0  0  0  0  0999 V3000
M  V30 BEGIN CTAB
M  V30 COUNTS 67 72 0 0 0
M  V30 BEGIN ATOM
M  V30 1 C 5.545832 -1.388604 3.854959 0
M  V30 2 N 6.478002 -0.266029 4.040975 0
M  V30 3 C 7.050991 -0.037560 2.726847 0
M  V30 4 C 6.439607 1.172531 2.057774 0
M  V30 5 N 5.024652 1.243002 2.233125 0
M  V30 6 C 4.029939 1.277903 1.219908 0
M  V30 7 C 4.278650 1.221448 -0.133133 0
M  V30 8 C 3.280227 1.259393 -1.084413 0
M  V30 9 C 1.956854 1.358182 -0.710369 0
M  V30 10 N 0.906494 1.400695 -1.668182 0
M  V30 11 C -0.450977 1.474346 -1.257323 0
M  V30 12 N -1.234330 2.549332 -1.005626 0
M  V30 13 C -2.502383 2.445126 -0.625104 0
M  V30 14 C -3.075412 1.219038 -0.470401 0
M  V30 15 N -4.290918 0.768284 -0.111368 0
M  V30 16 C -4.256280 -0.596503 -0.141920 0
M  V30 17 N -5.331422 -1.492889 0.168289 0
M  V30 18 C -6.250725 -1.934626 -0.851709 0
M  V30 19 C -7.306827 -2.809209 -0.570231 0
M  V30 20 C -8.136628 -3.176889 -1.614991 0
M  V30 21 C -7.964145 -2.718235 -2.912471 0
M  V30 22 C -6.909571 -1.845042 -3.192778 0
M  V30 23 C -6.057449 -1.458763 -2.154376 0
M  V30 24 N -3.052158 -1.028088 -0.510622 0
M  V30 25 C -2.532721 -2.354105 -0.686950 0
M  V30 26 C -1.026724 -2.407056 -0.578599 0
M  V30 27 C -0.824304 -3.880669 -0.241934 0
M  V30 28 C -1.954642 -4.233058 0.695819 0
M  V30 29 C -3.062120 -3.238873 0.416049 0
M  V30 30 C -2.312808 0.095714 -0.716506 0
M  V30 31 N -1.046397 0.268900 -1.095537 0
M  V30 32 C 1.677241 1.416737 0.642192 0
M  V30 33 C 2.700388 1.376266 1.565191 0
M  V30 34 C 4.618523 1.280597 3.624396 0
M  V30 35 C 5.755520 0.897905 4.515475 0
M  V30 36 H 5.031434 -1.291206 2.860941 0
M  V30 37 H 6.151985 -2.326289 3.823359 0
M  V30 38 H 4.774784 -1.410740 4.637646 0
M  V30 39 H 6.994217 -0.913327 2.056959 0
M  V30 40 H 8.123060 0.205407 2.873019 0
M  V30 41 H 6.672738 1.083429 0.981393 0
M  V30 42 H 6.969507 2.109064 2.385313 0
M  V30 43 H 5.292180 1.143567 -0.485261 0
M  V30 44 H 3.543127 1.210867 -2.129947 0
M  V30 45 H 1.163028 1.375987 -2.671239 0
M  V30 46 H -3.058326 3.352839 -0.444093 0
M  V30 47 H -5.499384 -1.866304 1.139306 0
M  V30 48 H -7.436198 -3.164296 0.447221 0
M  V30 49 H -8.930454 -3.844878 -1.360355 0
M  V30 50 H -8.629491 -3.023289 -3.709905 0
M  V30 51 H -6.772088 -1.484375 -4.207110 0
M  V30 52 H -5.222986 -0.775093 -2.348075 0
M  V30 53 H -2.862778 -2.702073 -1.695971 0
M  V30 54 H -0.587166 -2.207904 -1.578095 0
M  V30 55 H -0.654505 -1.728515 0.200343 0
M  V30 56 H -0.964348 -4.444950 -1.177460 0
M  V30 57 H 0.173742 -4.018010 0.227468 0
M  V30 58 H -1.657774 -4.200456 1.756573 0
M  V30 59 H -2.360982 -5.251738 0.484379 0
M  V30 60 H -3.975700 -3.717083 0.047181 0
M  V30 61 H -3.225619 -2.614134 1.321276 0
M  V30 62 H 0.635591 1.493581 0.900030 0
M  V30 63 H 2.338262 1.431749 2.582092 0
M  V30 64 H 4.263310 2.290177 3.909317 0
M  V30 65 H 3.764459 0.575638 3.738539 0
M  V30 66 H 6.466398 1.734257 4.598877 0
M  V30 67 H 5.326763 0.618681 5.514598 0
M  V30 END ATOM
M  V30 BEGIN BOND
M  V30 1 1 1 2
M  V30 2 1 2 3
M  V30 3 1 3 4
M  V30 4 1 4 5
M  V30 5 1 5 6
M  V30 6 2 6 7
M  V30 7 1 7 8
M  V30 8 2 8 9
M  V30 9 1 9 10
M  V30 10 1 10 11
M  V30 11 2 11 12
M  V30 12 1 12 13
M  V30 13 2 13 14
M  V30 14 1 14 15
M  V30 15 2 15 16
M  V30 16 1 16 17
M  V30 17 1 17 18
M  V30 18 2 18 19
M  V30 19 1 19 20
M  V30 20 2 20 21
M  V30 21 1 21 22
M  V30 22 2 22 23
M  V30 23 1 16 24
M  V30 24 1 24 25
M  V30 25 1 25 26
M  V30 26 1 26 27
M  V30 27 1 27 28
M  V30 28 1 28 29
M  V30 29 1 24 30
M  V30 30 2 30 31
M  V30 31 1 9 32
M  V30 32 2 32 33
M  V30 33 1 5 34
M  V30 34 1 34 35
M  V30 35 1 35 2
M  V30 36 1 33 6
M  V30 37 1 31 11
M  V30 38 1 30 14
M  V30 39 1 23 18
M  V30 40 1 29 25
M  V30 41 1 1 36
M  V30 42 1 1 37
M  V30 43 1 1 38
M  V30 44 1 3 39
M  V30 45 1 3 40
M  V30 46 1 4 41
M  V30 47 1 4 42
M  V30 48 1 7 43
M  V30 49 1 8 44
M  V30 50 1 10 45
M  V30 51 1 13 46
M  V30 52 1 17 47
M  V30 53 1 19 48
M  V30 54 1 20 49
M  V30 55 1 21 50
M  V30 56 1 22 51
M  V30 57 1 23 52
M  V30 58 1 25 53
M  V30 59 1 26 54
M  V30 60 1 26 55
M  V30 61 1 27 56
M  V30 62 1 27 57
M  V30 63 1 28 58
M  V30 64 1 28 59
M  V30 65 1 29 60
M  V30 66 1 29 61
M  V30 67 1 32 62
M  V30 68 1 33 63
M  V30 69 1 34 64
M  V30 70 1 34 65
M  V30 71 1 35 66
M  V30 72 1 35 67
M  V30 END BOND
M  V30 END CTAB
M  END
>  <Dataset>  (288) 
ChEMBL_Kinases

>  <Ligand_Instance>  (288) 
nan

>  <PDB_ID>  (288) 
nan

>  <Standardized_SMILES>  (288) 
CN1CCN(c2ccc(Nc3ncc4nc(Nc5ccccc5)n(C5CCCC5)c4n3)cc2)CC1

>  <Name>  (288) 
nan

>  <Pocket>  (288) 
nan

>  <ATP_Site>  (288) 
nan

>  <Peripheral>  (288) 
nan

>  <Num_H_Atoms_ProtBoundConf>  (288) 
nan

>  <Num_Resolved_Atoms>  (288) 
nan

>  <Num_Not_Resolved_Atoms>  (288) 
nan

$$$$
CHEMBL421866
     RDKit          3D

  0  0  0  0  0  0  0  0  0  0999 V3000
M  V30 BEGIN CTAB
M  V30 COUNTS 66 69 0 0 0
M  V30 BEGIN ATOM
M  V30 1 N 5.318782 0.231181 4.147993 0
M  V30 2 C 4.663446 1.287775 4.850106 0
M  V30 3 C 3.463952 1.870873 4.121920 0 CFG=1
M  V30 4 C 3.837958 2.446456 2.788377 0
M  V30 5 C 2.969289 1.773945 1.790617 0 CFG=2
M  V30 6 N 1.717729 2.356306 1.490415 0
M  V30 7 C 1.070127 2.766262 0.316326 0
M  V30 8 O 1.661088 2.622219 -0.769907 0
M  V30 9 C -0.260659 3.350911 0.321370 0
M  V30 10 C -0.792110 3.716320 -0.913513 0
M  V30 11 C -2.064555 4.274129 -0.897405 0
M  V30 12 C -2.809392 4.478917 0.253291 0
M  V30 13 O -4.068382 5.033202 0.246984 0
M  V30 14 C -2.268803 4.112123 1.463489 0
M  V30 15 C -1.002541 3.556010 1.456964 0
M  V30 16 C 2.818902 0.380665 2.413943 0 CFG=2
M  V30 17 O 1.787825 -0.342466 1.779109 0
M  V30 18 C 2.107776 -1.532817 1.175769 0
M  V30 19 O 3.297895 -1.939323 1.206388 0
M  V30 20 C 1.075866 -2.313445 0.508212 0
M  V30 21 C 1.459265 -3.496003 -0.076850 0
M  V30 22 C 0.516016 -4.287490 -0.732786 0
M  V30 23 O 1.006568 -5.467488 -1.292505 0
M  V30 24 C -0.807383 -3.918752 -0.816122 0
M  V30 25 C -1.781139 -4.760696 -1.411257 0
M  V30 26 O -1.296279 -5.953164 -1.341953 0
M  V30 27 C -3.051965 -4.790892 -2.032724 0
M  V30 28 C -3.780476 -5.968171 -1.862604 0
M  V30 29 O -3.338437 -7.078278 -1.110376 0
M  V30 30 C -5.046179 -6.185196 -2.423851 0
M  V30 31 C -5.559919 -5.167657 -3.170293 0
M  V30 32 C -4.918421 -3.986037 -3.391593 0
M  V30 33 C -3.679959 -3.858133 -2.805522 0
M  V30 34 C -2.957655 -2.637495 -3.219932 0
M  V30 35 O -1.827174 -2.106565 -3.140231 0
M  V30 36 O -3.496413 -1.597120 -3.939624 0
M  V30 37 C -1.098915 -2.699486 -0.187719 0
M  V30 38 O -2.408463 -2.176138 -0.168367 0
M  V30 39 C -0.225625 -1.866888 0.475366 0
M  V30 40 C 2.512155 0.725884 3.841602 0
M  V30 41 H 5.757549 -0.452353 4.803342 0
M  V30 42 H 6.069590 0.564013 3.510182 0
M  V30 43 H 5.443415 2.075170 5.026505 0
M  V30 44 H 4.379956 0.944591 5.862326 0
M  V30 45 H 3.029639 2.625472 4.815905 0
M  V30 46 H 3.866876 3.537722 2.731028 0
M  V30 47 H 4.891594 2.116124 2.580237 0
M  V30 48 H 3.521463 1.632676 0.837790 0
M  V30 49 H 1.271765 2.452266 2.429641 0
M  V30 50 H -0.297923 3.600841 -1.868170 0
M  V30 51 H -2.575475 4.594674 -1.796294 0
M  V30 52 H -4.803410 4.641477 -0.340569 0
M  V30 53 H -2.798824 4.245680 2.396355 0
M  V30 54 H -0.595192 3.274414 2.417686 0
M  V30 55 H 3.783991 -0.120340 2.341818 0
M  V30 56 H 2.488132 -3.811964 -0.029157 0
M  V30 57 H 1.036193 -6.341094 -0.819250 0
M  V30 58 H -3.110551 -7.896528 -1.681990 0
M  V30 59 H -5.607847 -7.094823 -2.291565 0
M  V30 60 H -6.532200 -5.312358 -3.608091 0
M  V30 61 H -5.374010 -3.216205 -3.991498 0
M  V30 62 H -3.545589 -0.609513 -3.651395 0
M  V30 63 H -3.168617 -2.832792 -0.060460 0
M  V30 64 H -0.486077 -0.934460 0.946114 0
M  V30 65 H 2.716349 -0.141612 4.499835 0
M  V30 66 H 1.452191 1.031149 3.913803 0
M  V30 END ATOM
M  V30 BEGIN BOND
M  V30 1 1 1 2
M  V30 2 1 2 3
M  V30 3 1 3 4
M  V30 4 1 4 5
M  V30 5 1 5 6
M  V30 6 1 6 7
M  V30 7 2 7 8
M  V30 8 1 7 9
M  V30 9 2 9 10
M  V30 10 1 10 11
M  V30 11 2 11 12
M  V30 12 1 12 13
M  V30 13 1 12 14
M  V30 14 2 14 15
M  V30 15 1 5 16
M  V30 16 1 16 17
M  V30 17 1 17 18
M  V30 18 2 18 19
M  V30 19 1 18 20
M  V30 20 2 20 21
M  V30 21 1 21 22
M  V30 22 1 22 23
M  V30 23 2 22 24
M  V30 24 1 24 25
M  V30 25 2 25 26
M  V30 26 1 25 27
M  V30 27 2 27 28
M  V30 28 1 28 29
M  V30 29 1 28 30
M  V30 30 2 30 31
M  V30 31 1 31 32
M  V30 32 2 32 33
M  V30 33 1 33 34
M  V30 34 2 34 35
M  V30 35 1 34 36
M  V30 36 1 24 37
M  V30 37 1 37 38
M  V30 38 2 37 39
M  V30 39 1 16 40
M  V30 40 1 40 3
M  V30 41 1 15 9
M  V30 42 1 39 20
M  V30 43 1 33 27
M  V30 44 1 1 41
M  V30 45 1 1 42
M  V30 46 1 2 43
M  V30 47 1 2 44
M  V30 48 1 3 45 CFG=1
M  V30 49 1 4 46
M  V30 50 1 4 47
M  V30 51 1 5 48 CFG=3
M  V30 52 1 6 49
M  V30 53 1 10 50
M  V30 54 1 11 51
M  V30 55 1 13 52
M  V30 56 1 14 53
M  V30 57 1 15 54
M  V30 58 1 16 55 CFG=1
M  V30 59 1 21 56
M  V30 60 1 23 57
M  V30 61 1 29 58
M  V30 62 1 30 59
M  V30 63 1 31 60
M  V30 64 1 32 61
M  V30 65 1 36 62
M  V30 66 1 38 63
M  V30 67 1 39 64
M  V30 68 1 40 65
M  V30 69 1 40 66
M  V30 END BOND
M  V30 END CTAB
M  END
>  <Dataset>  (289) 
ChEMBL_Kinases

>  <Ligand_Instance>  (289) 
nan

>  <PDB_ID>  (289) 
nan

>  <Standardized_SMILES>  (289) 
NC[C@H]1C[C@H](NC(=O)c2ccc(O)cc2)[C@H](OC(=O)c2cc(O)c(C(=O)c3c(O)cccc3C(=O)O)c(O)c2)C1

>  <Name>  (289) 
nan

>  <Pocket>  (289) 
nan

>  <ATP_Site>  (289) 
nan

>  <Peripheral>  (289) 
nan

>  <Num_H_Atoms_ProtBoundConf>  (289) 
nan

>  <Num_Resolved_Atoms>  (289) 
nan

>  <Num_Not_Resolved_Atoms>  (289) 
nan

$$$$
CHEMBL2418196
     RDKit          3D

  0  0  0  0  0  0  0  0  0  0999 V3000
M  V30 BEGIN CTAB
M  V30 COUNTS 86 89 0 0 0
M  V30 BEGIN ATOM
M  V30 1 C -1.933246 -3.211241 -0.333894 0
M  V30 2 C -2.433626 -1.869440 0.185093 0 CFG=2
M  V30 3 C -1.756643 -0.797900 -0.581581 0 CFG=1
M  V30 4 C -2.335110 -0.602494 -1.955696 0 CFG=1
M  V30 5 C -3.778519 -0.218238 -1.988703 0
M  V30 6 C -1.588265 0.473726 -2.728570 0
M  V30 7 C -2.134989 0.689789 -4.118106 0
M  V30 8 C -1.338928 1.792008 -4.772810 0
M  V30 9 C 0.097904 1.478224 -4.871030 0
M  V30 10 C 0.718046 0.815748 -5.900210 0
M  V30 11 C 2.096302 0.603716 -5.860519 0
M  V30 12 C 2.901605 1.027408 -4.826277 0
M  V30 13 C 2.289856 1.704736 -3.765882 0
M  V30 14 O 3.018273 2.166984 -2.683836 0
M  V30 15 C 0.907662 1.911327 -3.816812 0
M  V30 16 O -1.694487 0.413048 0.035339 0
M  V30 17 C -1.055845 0.403508 1.291889 0 CFG=1
M  V30 18 C -1.935268 -0.432614 2.190929 0
M  V30 19 C -2.208065 -1.783551 1.679986 0 CFG=2
M  V30 20 O -1.364081 -2.830321 2.022630 0
M  V30 21 C -0.596003 -3.079467 3.097691 0
M  V30 22 O -0.525362 -2.291636 4.059296 0
M  V30 23 C 0.255287 -4.295935 3.290391 0
M  V30 24 C 1.531789 -4.096855 2.479504 0 CFG=2
M  V30 25 C 2.474406 -5.216413 2.696506 0 CFG=1
M  V30 26 C 1.667662 -6.511221 2.528870 0
M  V30 27 O 3.535665 -5.256907 1.823112 0
M  V30 28 O 2.019977 -2.799370 2.578938 0
M  V30 29 C 1.944213 -1.983527 1.422142 0
M  V30 30 O 1.476475 -2.381226 0.325831 0
M  V30 31 C 2.424760 -0.548326 1.426309 0
M  V30 32 C 1.224457 0.329675 1.851302 0 CFG=2
M  V30 33 O 1.193242 0.205477 3.220636 0
M  V30 34 O 0.153495 -0.187188 1.169359 0
M  V30 35 C 1.470118 1.746346 1.475125 0 CFG=2
M  V30 36 C 2.477708 2.436303 2.367107 0
M  V30 37 C 0.223348 2.582254 1.446617 0
M  V30 38 C -1.049530 1.857099 1.729244 0
M  V30 39 C -1.569173 2.045471 3.141357 0
M  V30 40 C -2.096959 2.649437 0.910946 0
M  V30 41 H -1.030365 -3.012170 -0.938866 0
M  V30 42 H -2.671284 -3.687812 -1.026417 0
M  V30 43 H -1.738438 -3.928803 0.491992 0
M  V30 44 H -3.530907 -1.908698 0.037853 0
M  V30 45 H -0.683600 -1.108703 -0.765751 0
M  V30 46 H -2.204285 -1.538362 -2.537995 0
M  V30 47 H -3.930546 0.875310 -2.156564 0
M  V30 48 H -4.394718 -0.591087 -1.150981 0
M  V30 49 H -4.237566 -0.700507 -2.897220 0
M  V30 50 H -1.626247 1.461531 -2.229658 0
M  V30 51 H -0.515694 0.207053 -2.835814 0
M  V30 52 H -3.198799 0.976885 -4.035032 0
M  V30 53 H -2.009700 -0.261692 -4.679049 0
M  V30 54 H -1.738605 1.904892 -5.825266 0
M  V30 55 H -1.512643 2.774752 -4.277091 0
M  V30 56 H 0.093108 0.481592 -6.714109 0
M  V30 57 H 2.579568 0.071814 -6.692891 0
M  V30 58 H 3.961664 0.856999 -4.810035 0
M  V30 59 H 2.614177 2.927306 -2.140752 0
M  V30 60 H 0.481624 2.434867 -2.981141 0
M  V30 61 H -1.544295 -0.479961 3.225431 0
M  V30 62 H -2.914574 0.126852 2.252887 0
M  V30 63 H -3.208460 -2.084418 2.172492 0
M  V30 64 H 0.451899 -4.535512 4.331396 0
M  V30 65 H -0.294222 -5.140668 2.833656 0
M  V30 66 H 1.164350 -4.204641 1.402053 0
M  V30 67 H 2.875113 -5.256963 3.751367 0
M  V30 68 H 2.333470 -7.382706 2.341200 0
M  V30 69 H 1.017464 -6.665357 3.431746 0
M  V30 70 H 0.927386 -6.393819 1.692243 0
M  V30 71 H 3.183311 -5.205829 0.884857 0
M  V30 72 H 3.207023 -0.386465 2.188645 0
M  V30 73 H 2.803982 -0.282516 0.440413 0
M  V30 74 H 2.001727 -0.177384 3.633125 0
M  V30 75 H 1.951890 1.722553 0.463288 0
M  V30 76 H 2.814420 3.382021 1.848373 0
M  V30 77 H 3.417908 1.857225 2.487987 0
M  V30 78 H 2.051037 2.772678 3.315535 0
M  V30 79 H 0.194482 3.108031 0.470344 0
M  V30 80 H 0.282147 3.421501 2.200475 0
M  V30 81 H -2.690899 1.977665 3.120497 0
M  V30 82 H -1.360141 3.127456 3.375976 0
M  V30 83 H -1.142106 1.404819 3.897418 0
M  V30 84 H -3.033099 2.067039 0.842527 0
M  V30 85 H -1.673042 2.936763 -0.077297 0
M  V30 86 H -2.344190 3.590059 1.443309 0
M  V30 END ATOM
M  V30 BEGIN BOND
M  V30 1 1 1 2
M  V30 2 1 2 3
M  V30 3 1 3 4
M  V30 4 1 4 5
M  V30 5 1 4 6
M  V30 6 1 6 7
M  V30 7 1 7 8
M  V30 8 1 8 9
M  V30 9 2 9 10
M  V30 10 1 10 11
M  V30 11 2 11 12
M  V30 12 1 12 13
M  V30 13 1 13 14
M  V30 14 2 13 15
M  V30 15 1 3 16
M  V30 16 1 17 16 CFG=3
M  V30 17 1 17 18
M  V30 18 1 18 19
M  V30 19 1 19 20
M  V30 20 1 20 21
M  V30 21 2 21 22
M  V30 22 1 21 23
M  V30 23 1 23 24
M  V30 24 1 24 25
M  V30 25 1 25 26
M  V30 26 1 25 27
M  V30 27 1 24 28
M  V30 28 1 28 29
M  V30 29 2 29 30
M  V30 30 1 29 31
M  V30 31 1 31 32
M  V30 32 1 32 33 CFG=1
M  V30 33 1 32 34
M  V30 34 1 32 35
M  V30 35 1 35 36
M  V30 36 1 35 37
M  V30 37 1 37 38
M  V30 38 1 38 39
M  V30 39 1 38 40
M  V30 40 1 19 2
M  V30 41 1 15 9
M  V30 42 1 34 17
M  V30 43 1 38 17
M  V30 44 1 1 41
M  V30 45 1 1 42
M  V30 46 1 1 43
M  V30 47 1 2 44 CFG=1
M  V30 48 1 3 45 CFG=3
M  V30 49 1 4 46 CFG=3
M  V30 50 1 5 47
M  V30 51 1 5 48
M  V30 52 1 5 49
M  V30 53 1 6 50
M  V30 54 1 6 51
M  V30 55 1 7 52
M  V30 56 1 7 53
M  V30 57 1 8 54
M  V30 58 1 8 55
M  V30 59 1 10 56
M  V30 60 1 11 57
M  V30 61 1 12 58
M  V30 62 1 14 59
M  V30 63 1 15 60
M  V30 64 1 18 61
M  V30 65 1 18 62
M  V30 66 1 19 63 CFG=1
M  V30 67 1 23 64
M  V30 68 1 23 65
M  V30 69 1 24 66 CFG=3
M  V30 70 1 25 67 CFG=1
M  V30 71 1 26 68
M  V30 72 1 26 69
M  V30 73 1 26 70
M  V30 74 1 27 71
M  V30 75 1 31 72
M  V30 76 1 31 73
M  V30 77 1 33 74
M  V30 78 1 35 75 CFG=3
M  V30 79 1 36 76
M  V30 80 1 36 77
M  V30 81 1 36 78
M  V30 82 1 37 79
M  V30 83 1 37 80
M  V30 84 1 39 81
M  V30 85 1 39 82
M  V30 86 1 39 83
M  V30 87 1 40 84
M  V30 88 1 40 85
M  V30 89 1 40 86
M  V30 END BOND
M  V30 END CTAB
M  END
>  <Dataset>  (290) 
ChEMBL_Kinases

>  <Ligand_Instance>  (290) 
nan

>  <PDB_ID>  (290) 
nan

>  <Standardized_SMILES>  (290) 
C[C@@H]1[C@@H]([C@@H](C)CCCc2cccc(O)c2)O[C@@]23C[C@@H]1OC(=O)C[C@H]([C@@H](C)O)OC(=O)C[C@](O)(O2)[C@H](C)CC3(C)C

>  <Name>  (290) 
DEMETHOXYDEBROMOAPLYSIATOXIN

>  <Pocket>  (290) 
nan

>  <ATP_Site>  (290) 
nan

>  <Peripheral>  (290) 
nan

>  <Num_H_Atoms_ProtBoundConf>  (290) 
nan

>  <Num_Resolved_Atoms>  (290) 
nan

>  <Num_Not_Resolved_Atoms>  (290) 
nan

$$$$
CHEMBL2036343
     RDKit          3D

  0  0  0  0  0  0  0  0  0  0999 V3000
M  V30 BEGIN CTAB
M  V30 COUNTS 35 37 0 0 0
M  V30 BEGIN ATOM
M  V30 1 O -0.457269 -0.198390 3.099276 0
M  V30 2 C 0.077601 -0.282697 1.965259 0
M  V30 3 C 0.805639 -1.455975 1.514506 0
M  V30 4 C 0.410293 -2.622324 1.951314 0
M  V30 5 C 1.049323 -3.878236 1.573786 0
M  V30 6 C 1.407454 -4.977620 2.321055 0
M  V30 7 C 1.993867 -6.067099 1.665120 0
M  V30 8 C 2.187084 -5.995090 0.296056 0
M  V30 9 C 1.826633 -4.893914 -0.441438 0
M  V30 10 N 1.285558 -3.916561 0.251094 0
M  V30 11 C 1.955062 -1.324159 0.613734 0
M  V30 12 S 2.483719 0.426290 0.477259 0
M  V30 13 C 0.944021 1.287754 0.038736 0
M  V30 14 C -0.057970 0.892536 1.069263 0
M  V30 15 C -1.094524 1.704417 1.074407 0
M  V30 16 C -1.473001 2.905245 0.319938 0
M  V30 17 C -2.797585 2.851445 -0.159301 0
M  V30 18 C -3.329891 3.927039 -0.863342 0
M  V30 19 C -2.456690 4.981006 -1.020978 0
M  V30 20 C -1.144777 5.065151 -0.561485 0
M  V30 21 N -0.680337 3.970361 0.123790 0
M  V30 22 H -0.448927 -2.697911 2.648830 0
M  V30 23 H 1.172889 -4.844146 3.368787 0
M  V30 24 H 2.242037 -6.878647 2.326232 0
M  V30 25 H 2.645532 -6.857381 -0.170740 0
M  V30 26 H 2.003992 -4.890587 -1.514732 0
M  V30 27 H 2.817492 -1.823690 1.156191 0
M  V30 28 H 1.829197 -1.682273 -0.405304 0
M  V30 29 H 0.606861 0.878470 -0.953988 0
M  V30 30 H 1.143560 2.362293 0.017261 0
M  V30 31 H -1.850512 1.421860 1.836774 0
M  V30 32 H -3.443129 1.996321 -0.009387 0
M  V30 33 H -4.338636 3.963767 -1.263289 0
M  V30 34 H -2.862441 5.833664 -1.567148 0
M  V30 35 H -0.557965 5.947626 -0.748249 0
M  V30 END ATOM
M  V30 BEGIN BOND
M  V30 1 2 1 2
M  V30 2 1 2 3
M  V30 3 2 3 4
M  V30 4 1 4 5
M  V30 5 2 5 6
M  V30 6 1 6 7
M  V30 7 2 7 8
M  V30 8 1 8 9
M  V30 9 2 9 10
M  V30 10 1 3 11
M  V30 11 1 11 12
M  V30 12 1 12 13
M  V30 13 1 13 14
M  V30 14 2 14 15
M  V30 15 1 15 16
M  V30 16 2 16 17
M  V30 17 1 17 18
M  V30 18 2 18 19
M  V30 19 1 19 20
M  V30 20 2 20 21
M  V30 21 1 14 2
M  V30 22 1 21 16
M  V30 23 1 10 5
M  V30 24 1 4 22
M  V30 25 1 6 23
M  V30 26 1 7 24
M  V30 27 1 8 25
M  V30 28 1 9 26
M  V30 29 1 11 27
M  V30 30 1 11 28
M  V30 31 1 13 29
M  V30 32 1 13 30
M  V30 33 1 15 31
M  V30 34 1 17 32
M  V30 35 1 18 33
M  V30 36 1 19 34
M  V30 37 1 20 35
M  V30 END BOND
M  V30 END CTAB
M  END
>  <Dataset>  (291) 
ChEMBL_Kinases

>  <Ligand_Instance>  (291) 
nan

>  <PDB_ID>  (291) 
nan

>  <Standardized_SMILES>  (291) 
O=C1/C(=C/c2ccccn2)CSC/C1=C\c1ccccn1

>  <Name>  (291) 
nan

>  <Pocket>  (291) 
nan

>  <ATP_Site>  (291) 
nan

>  <Peripheral>  (291) 
nan

>  <Num_H_Atoms_ProtBoundConf>  (291) 
nan

>  <Num_Resolved_Atoms>  (291) 
nan

>  <Num_Not_Resolved_Atoms>  (291) 
nan

$$$$
CHEMBL4075820
     RDKit          3D

  0  0  0  0  0  0  0  0  0  0999 V3000
M  V30 BEGIN CTAB
M  V30 COUNTS 41 43 0 0 0
M  V30 BEGIN ATOM
M  V30 1 C 0.227800 -6.416795 0.157063 0
M  V30 2 C 1.063725 -5.249752 0.629274 0
M  V30 3 C 0.820776 -4.063800 -0.282976 0 CFG=2
M  V30 4 C 1.222064 -4.482228 -1.662908 0
M  V30 5 O 0.943525 -3.552197 -2.653040 0
M  V30 6 N 1.431265 -2.874500 0.212010 0
M  V30 7 C 0.689603 -1.721404 0.611552 0
M  V30 8 O -0.560331 -1.853078 0.485482 0
M  V30 9 C 1.325196 -0.502099 1.119618 0
M  V30 10 C 2.685259 -0.322302 1.270860 0
M  V30 11 C 3.171828 0.890004 1.767217 0
M  V30 12 C 2.305181 1.910414 2.108085 0
M  V30 13 C 0.928969 1.730102 1.955671 0
M  V30 14 C 0.045507 2.833714 2.327543 0
M  V30 15 C 0.269805 3.501906 3.513339 0
M  V30 16 N -0.669329 4.453280 3.609262 0
M  V30 17 C -1.470700 4.393371 2.514386 0
M  V30 18 C -2.582688 5.082951 2.038215 0
M  V30 19 C -3.152938 4.724170 0.832359 0
M  V30 20 C -2.655641 3.690824 0.066709 0
M  V30 21 Cl -3.437849 3.306904 -1.441261 0
M  V30 22 N -1.569869 3.036661 0.557517 0
M  V30 23 N -1.037768 3.406062 1.729437 0
M  V30 24 C 0.481480 0.528902 1.465949 0
M  V30 25 H -0.219162 -6.984579 1.020033 0
M  V30 26 H -0.660598 -5.976166 -0.374264 0
M  V30 27 H 0.776032 -7.109181 -0.514651 0
M  V30 28 H 0.711847 -4.981415 1.656827 0
M  V30 29 H 2.138561 -5.523816 0.599316 0
M  V30 30 H -0.282320 -3.905202 -0.288442 0
M  V30 31 H 0.571569 -5.363437 -1.908136 0
M  V30 32 H 2.253472 -4.887557 -1.707513 0
M  V30 33 H 1.603164 -3.719316 -3.396256 0
M  V30 34 H 2.471916 -2.856448 0.281678 0
M  V30 35 H 3.329472 -1.144526 0.992937 0
M  V30 36 H 4.244445 1.022773 1.883014 0
M  V30 37 H 2.681916 2.850545 2.492971 0
M  V30 38 H 1.017348 3.368695 4.279412 0
M  V30 39 H -2.951897 5.898866 2.672434 0
M  V30 40 H -4.010122 5.334800 0.572014 0
M  V30 41 H -0.597679 0.428802 1.362344 0
M  V30 END ATOM
M  V30 BEGIN BOND
M  V30 1 1 1 2
M  V30 2 1 2 3
M  V30 3 1 3 4
M  V30 4 1 4 5
M  V30 5 1 3 6
M  V30 6 1 6 7
M  V30 7 2 7 8
M  V30 8 1 7 9
M  V30 9 2 9 10
M  V30 10 1 10 11
M  V30 11 2 11 12
M  V30 12 1 12 13
M  V30 13 1 13 14
M  V30 14 2 14 15
M  V30 15 1 15 16
M  V30 16 2 16 17
M  V30 17 1 17 18
M  V30 18 2 18 19
M  V30 19 1 19 20
M  V30 20 1 20 21
M  V30 21 2 20 22
M  V30 22 1 22 23
M  V30 23 2 13 24
M  V30 24 1 24 9
M  V30 25 1 23 14
M  V30 26 1 23 17
M  V30 27 1 1 25
M  V30 28 1 1 26
M  V30 29 1 1 27
M  V30 30 1 2 28
M  V30 31 1 2 29
M  V30 32 1 3 30 CFG=3
M  V30 33 1 4 31
M  V30 34 1 4 32
M  V30 35 1 5 33
M  V30 36 1 6 34
M  V30 37 1 10 35
M  V30 38 1 11 36
M  V30 39 1 12 37
M  V30 40 1 15 38
M  V30 41 1 18 39
M  V30 42 1 19 40
M  V30 43 1 24 41
M  V30 END BOND
M  V30 END CTAB
M  END
>  <Dataset>  (292) 
ChEMBL_Kinases

>  <Ligand_Instance>  (292) 
nan

>  <PDB_ID>  (292) 
nan

>  <Standardized_SMILES>  (292) 
CC[C@H](CO)NC(=O)c1cccc(-c2cnc3ccc(Cl)nn23)c1

>  <Name>  (292) 
nan

>  <Pocket>  (292) 
nan

>  <ATP_Site>  (292) 
nan

>  <Peripheral>  (292) 
nan

>  <Num_H_Atoms_ProtBoundConf>  (292) 
nan

>  <Num_Resolved_Atoms>  (292) 
nan

>  <Num_Not_Resolved_Atoms>  (292) 
nan

$$$$
CHEMBL3904602
     RDKit          3D

  0  0  0  0  0  0  0  0  0  0999 V3000
M  V30 BEGIN CTAB
M  V30 COUNTS 69 74 0 0 0
M  V30 BEGIN ATOM
M  V30 1 C 4.280325 -2.857736 2.582155 0
M  V30 2 C 5.259673 -2.088074 1.756768 0
M  V30 3 C 5.354130 -2.820214 0.413897 0
M  V30 4 N 4.836774 -0.750104 1.454410 0
M  V30 5 C 4.608991 0.079079 2.612797 0
M  V30 6 C 3.930392 1.348685 2.158520 0
M  V30 7 N 3.723173 1.404321 0.748179 0
M  V30 8 C 2.494559 1.539636 0.052003 0
M  V30 9 C 1.297442 1.627165 0.723828 0
M  V30 10 C 0.155885 1.753897 -0.041470 0
M  V30 11 C 0.107139 1.800762 -1.417801 0
M  V30 12 N -1.112138 1.926729 -2.138093 0
M  V30 13 C -2.305021 1.998375 -1.373149 0
M  V30 14 N -2.947823 3.102170 -0.903135 0
M  V30 15 C -4.091732 2.966274 -0.178898 0
M  V30 16 C -4.526970 1.683161 0.031066 0
M  V30 17 C -5.650977 1.287680 0.725983 0
M  V30 18 C -5.654401 -0.089476 0.653301 0
M  V30 19 N -4.592772 -0.572472 -0.048339 0
M  V30 20 C -3.921742 0.532316 -0.417168 0
M  V30 21 N -2.809572 0.801114 -1.114345 0
M  V30 22 C -4.346052 -1.999903 -0.259123 0
M  V30 23 C -3.661854 -2.311764 -1.534472 0
M  V30 24 C -2.199671 -2.534035 -1.503201 0
M  V30 25 C -1.773260 -3.397358 -0.346626 0
M  V30 26 C -2.191798 -2.642027 0.906870 0
M  V30 27 C -3.680979 -2.629736 0.915655 0
M  V30 28 C -5.755026 -2.628772 -0.307743 0
M  V30 29 N -6.425229 -2.388353 0.951049 0
M  V30 30 C -6.679317 -0.993495 1.223813 0
M  V30 31 O -7.680892 -0.585860 1.887139 0
M  V30 32 N 1.315867 1.710474 -2.025020 0
M  V30 33 C 2.455084 1.585713 -1.320433 0
M  V30 34 C 5.049413 1.286783 0.234589 0
M  V30 35 C 5.559954 -0.125582 0.399605 0
M  V30 36 H 4.239124 -2.498932 3.648411 0
M  V30 37 H 3.286750 -2.980223 2.148501 0
M  V30 38 H 4.699692 -3.903761 2.653583 0
M  V30 39 H 6.233490 -2.115556 2.286983 0
M  V30 40 H 5.282577 -3.905798 0.643895 0
M  V30 41 H 4.459116 -2.528686 -0.178402 0
M  V30 42 H 6.252308 -2.547450 -0.157468 0
M  V30 43 H 3.999533 -0.488867 3.334066 0
M  V30 44 H 5.544269 0.374591 3.131312 0
M  V30 45 H 4.473536 2.270065 2.519075 0
M  V30 46 H 2.954872 1.395733 2.671158 0
M  V30 47 H 1.184938 1.604519 1.784198 0
M  V30 48 H -0.804534 1.824946 0.464513 0
M  V30 49 H -1.046906 1.958256 -3.177310 0
M  V30 50 H -4.584150 3.852423 0.183174 0
M  V30 51 H -6.375950 1.916261 1.222010 0
M  V30 52 H -4.121598 -3.258754 -1.934018 0
M  V30 53 H -3.912827 -1.561904 -2.341287 0
M  V30 54 H -1.944505 -3.125439 -2.437225 0
M  V30 55 H -1.563049 -1.623891 -1.454872 0
M  V30 56 H -2.239244 -4.381758 -0.310817 0
M  V30 57 H -0.672281 -3.517031 -0.410297 0
M  V30 58 H -1.720842 -1.652924 0.999298 0
M  V30 59 H -1.857366 -3.261886 1.753079 0
M  V30 60 H -4.005224 -3.707879 0.952561 0
M  V30 61 H -4.025625 -2.217483 1.889455 0
M  V30 62 H -5.643825 -3.712640 -0.520570 0
M  V30 63 H -6.288656 -2.133529 -1.116330 0
M  V30 64 H -6.755346 -3.080260 1.692678 0
M  V30 65 H 3.313117 1.527367 -1.963649 0
M  V30 66 H 5.784638 2.022337 0.632636 0
M  V30 67 H 4.992724 1.436889 -0.887019 0
M  V30 68 H 5.386804 -0.736632 -0.525603 0
M  V30 69 H 6.661702 -0.067258 0.605992 0
M  V30 END ATOM
M  V30 BEGIN BOND
M  V30 1 1 1 2
M  V30 2 1 2 3
M  V30 3 1 2 4
M  V30 4 1 4 5
M  V30 5 1 5 6
M  V30 6 1 6 7
M  V30 7 1 7 8
M  V30 8 2 8 9
M  V30 9 1 9 10
M  V30 10 2 10 11
M  V30 11 1 11 12
M  V30 12 1 12 13
M  V30 13 2 13 14
M  V30 14 1 14 15
M  V30 15 2 15 16
M  V30 16 1 16 17
M  V30 17 2 17 18
M  V30 18 1 18 19
M  V30 19 1 19 20
M  V30 20 2 20 21
M  V30 21 1 19 22
M  V30 22 1 22 23
M  V30 23 1 23 24
M  V30 24 1 24 25
M  V30 25 1 25 26
M  V30 26 1 26 27
M  V30 27 1 22 28
M  V30 28 1 28 29
M  V30 29 1 29 30
M  V30 30 2 30 31
M  V30 31 1 11 32
M  V30 32 2 32 33
M  V30 33 1 7 34
M  V30 34 1 34 35
M  V30 35 1 35 4
M  V30 36 1 33 8
M  V30 37 1 21 13
M  V30 38 1 27 22
M  V30 39 1 20 16
M  V30 40 1 30 18
M  V30 41 1 1 36
M  V30 42 1 1 37
M  V30 43 1 1 38
M  V30 44 1 2 39
M  V30 45 1 3 40
M  V30 46 1 3 41
M  V30 47 1 3 42
M  V30 48 1 5 43
M  V30 49 1 5 44
M  V30 50 1 6 45
M  V30 51 1 6 46
M  V30 52 1 9 47
M  V30 53 1 10 48
M  V30 54 1 12 49
M  V30 55 1 15 50
M  V30 56 1 17 51
M  V30 57 1 23 52
M  V30 58 1 23 53
M  V30 59 1 24 54
M  V30 60 1 24 55
M  V30 61 1 25 56
M  V30 62 1 25 57
M  V30 63 1 26 58
M  V30 64 1 26 59
M  V30 65 1 27 60
M  V30 66 1 27 61
M  V30 67 1 28 62
M  V30 68 1 28 63
M  V30 69 1 29 64
M  V30 70 1 33 65
M  V30 71 1 34 66
M  V30 72 1 34 67
M  V30 73 1 35 68
M  V30 74 1 35 69
M  V30 END BOND
M  V30 END CTAB
M  END
>  <Dataset>  (293) 
ChEMBL_Kinases

>  <Ligand_Instance>  (293) 
nan

>  <PDB_ID>  (293) 
nan

>  <Standardized_SMILES>  (293) 
CC(C)N1CCN(c2ccc(Nc3ncc4cc5n(c4n3)C3(CCCCC3)CNC5=O)nc2)CC1

>  <Name>  (293) 
LEROCICLIB

>  <Pocket>  (293) 
nan

>  <ATP_Site>  (293) 
nan

>  <Peripheral>  (293) 
nan

>  <Num_H_Atoms_ProtBoundConf>  (293) 
nan

>  <Num_Resolved_Atoms>  (293) 
nan

>  <Num_Not_Resolved_Atoms>  (293) 
nan

$$$$
CHEMBL1922219
     RDKit          3D

  0  0  0  0  0  0  0  0  0  0999 V3000
M  V30 BEGIN CTAB
M  V30 COUNTS 54 56 0 0 0
M  V30 BEGIN ATOM
M  V30 1 C -2.210212 -4.019648 2.938021 0
M  V30 2 C -2.767933 -3.487199 1.613625 0
M  V30 3 C -1.914172 -4.066542 0.491112 0 CFG=2
M  V30 4 N -0.545092 -3.696060 0.600878 0
M  V30 5 C -0.111944 -2.360453 0.587762 0
M  V30 6 N 1.194899 -2.136424 0.658500 0
M  V30 7 C 1.833753 -0.975000 0.657668 0
M  V30 8 N 3.170495 -0.606527 0.726261 0
M  V30 9 C 4.513671 -0.238401 0.795261 0
M  V30 10 C 4.711406 1.262390 0.777337 0
M  V30 11 C 4.883124 1.895909 -0.433535 0
M  V30 12 C 5.076808 3.281122 -0.494572 0
M  V30 13 C 5.075269 3.903743 0.736692 0
M  V30 14 N 4.907810 3.279203 1.904604 0
M  V30 15 C 4.718202 1.944867 2.003188 0
M  V30 16 C 1.036463 0.192579 0.569435 0
M  V30 17 N 1.233943 1.517385 0.534413 0
M  V30 18 C 0.033386 2.104658 0.444109 0
M  V30 19 N -0.973740 1.210862 0.416019 0
M  V30 20 C -2.402044 1.491796 0.326929 0
M  V30 21 C -2.832063 1.502665 -1.132253 0
M  V30 22 C -3.169506 0.537685 1.174491 0
M  V30 23 C -0.349665 -0.001941 0.493953 0
M  V30 24 N -0.832048 -1.246653 0.507433 0
M  V30 25 C -2.514180 -3.755712 -0.862069 0 CFG=1
M  V30 26 C -3.911146 -4.286864 -0.969521 0
M  V30 27 O -2.492385 -2.433206 -1.213359 0
M  V30 28 H -2.292370 -5.115537 3.021166 0
M  V30 29 H -2.820152 -3.571657 3.764850 0
M  V30 30 H -1.137081 -3.768425 3.036776 0
M  V30 31 H -2.749577 -2.401595 1.638338 0
M  V30 32 H -3.797382 -3.936591 1.561674 0
M  V30 33 H -2.033290 -5.169543 0.604744 0
M  V30 34 H 0.161077 -4.479186 0.694743 0
M  V30 35 H 3.511917 -1.630000 0.803431 0
M  V30 36 H 5.098101 -0.617044 -0.089991 0
M  V30 37 H 5.069943 -0.555035 1.717390 0
M  V30 38 H 4.876511 1.360576 -1.394411 0
M  V30 39 H 5.207230 3.735352 -1.461754 0
M  V30 40 H 5.227111 4.984505 0.718569 0
M  V30 41 H 4.573817 1.354375 2.893682 0
M  V30 42 H -0.191035 3.181845 0.393089 0
M  V30 43 H -2.601021 2.541644 0.685603 0
M  V30 44 H -2.333900 0.633730 -1.625324 0
M  V30 45 H -3.932289 1.463430 -1.153397 0
M  V30 46 H -2.479885 2.469823 -1.559766 0
M  V30 47 H -3.785259 1.121817 1.904636 0
M  V30 48 H -3.792217 -0.108812 0.536918 0
M  V30 49 H -2.434960 -0.042345 1.796342 0
M  V30 50 H -1.896750 -4.326258 -1.619588 0
M  V30 51 H -4.631257 -3.780709 -0.292810 0
M  V30 52 H -3.946663 -5.383613 -0.892297 0
M  V30 53 H -4.267230 -4.036022 -2.014464 0
M  V30 54 H -2.075531 -2.262413 -2.111835 0
M  V30 END ATOM
M  V30 BEGIN BOND
M  V30 1 1 1 2
M  V30 2 1 2 3
M  V30 3 1 3 4
M  V30 4 1 4 5
M  V30 5 2 5 6
M  V30 6 1 6 7
M  V30 7 1 7 8
M  V30 8 1 8 9
M  V30 9 1 9 10
M  V30 10 2 10 11
M  V30 11 1 11 12
M  V30 12 2 12 13
M  V30 13 1 13 14
M  V30 14 2 14 15
M  V30 15 2 7 16
M  V30 16 1 16 17
M  V30 17 2 17 18
M  V30 18 1 18 19
M  V30 19 1 19 20
M  V30 20 1 20 21
M  V30 21 1 20 22
M  V30 22 1 19 23
M  V30 23 2 23 24
M  V30 24 1 3 25
M  V30 25 1 25 26
M  V30 26 1 25 27
M  V30 27 1 24 5
M  V30 28 1 15 10
M  V30 29 1 23 16
M  V30 30 1 1 28
M  V30 31 1 1 29
M  V30 32 1 1 30
M  V30 33 1 2 31
M  V30 34 1 2 32
M  V30 35 1 3 33 CFG=1
M  V30 36 1 4 34
M  V30 37 1 8 35
M  V30 38 1 9 36
M  V30 39 1 9 37
M  V30 40 1 11 38
M  V30 41 1 12 39
M  V30 42 1 13 40
M  V30 43 1 15 41
M  V30 44 1 18 42
M  V30 45 1 20 43
M  V30 46 1 21 44
M  V30 47 1 21 45
M  V30 48 1 21 46
M  V30 49 1 22 47
M  V30 50 1 22 48
M  V30 51 1 22 49
M  V30 52 1 25 50 CFG=3
M  V30 53 1 26 51
M  V30 54 1 26 52
M  V30 55 1 26 53
M  V30 56 1 27 54
M  V30 END BOND
M  V30 END CTAB
M  END
>  <Dataset>  (294) 
ChEMBL_Kinases

>  <Ligand_Instance>  (294) 
nan

>  <PDB_ID>  (294) 
nan

>  <Standardized_SMILES>  (294) 
CC[C@H](Nc1nc(NCc2cccnc2)c2ncn(C(C)C)c2n1)[C@@H](C)O

>  <Name>  (294) 
nan

>  <Pocket>  (294) 
nan

>  <ATP_Site>  (294) 
nan

>  <Peripheral>  (294) 
nan

>  <Num_H_Atoms_ProtBoundConf>  (294) 
nan

>  <Num_Resolved_Atoms>  (294) 
nan

>  <Num_Not_Resolved_Atoms>  (294) 
nan

$$$$
CHEMBL210540
     RDKit          3D

  0  0  0  0  0  0  0  0  0  0999 V3000
M  V30 BEGIN CTAB
M  V30 COUNTS 66 70 0 0 0
M  V30 BEGIN ATOM
M  V30 1 C 6.200008 -5.942321 3.453785 0
M  V30 2 C 4.996566 -5.120604 3.359856 0
M  V30 3 C 4.954594 -4.223113 2.317768 0
M  V30 4 C 3.896888 -3.408018 2.118745 0
M  V30 5 C 3.806663 -2.426792 1.003945 0
M  V30 6 C 4.702217 -2.131678 -0.009509 0
M  V30 7 N 4.345492 -1.208553 -0.852483 0
M  V30 8 C 3.367299 -0.571812 -0.895716 0
M  V30 9 N 2.849892 0.468334 -1.736034 0
M  V30 10 C 1.598749 1.113978 -1.680523 0
M  V30 11 C 0.520721 0.888703 -0.864555 0
M  V30 12 N -0.621289 1.594276 -0.910447 0
M  V30 13 C -0.770181 2.596812 -1.794166 0
M  V30 14 C -2.062750 3.325836 -1.784571 0
M  V30 15 N -3.033107 2.739896 -2.721845 0
M  V30 16 C -4.237790 3.563609 -2.540870 0
M  V30 17 C -5.318526 3.226699 -3.514255 0
M  V30 18 N -4.895719 2.836909 -4.797429 0
M  V30 19 C -5.520335 1.709370 -5.397001 0
M  V30 20 C -3.534108 3.061170 -5.132524 0
M  V30 21 C -2.543552 3.080640 -4.039554 0
M  V30 22 C 0.307760 2.827957 -2.615584 0
M  V30 23 N 1.451497 2.131242 -2.579928 0
M  V30 24 S 2.500052 -1.298759 0.614882 0
M  V30 25 N 2.885976 -3.485484 2.953274 0
M  V30 26 C 2.849098 -4.347588 4.012566 0
M  V30 27 O 1.762697 -4.400250 4.877581 0
M  V30 28 C 0.630546 -3.600946 4.743901 0
M  V30 29 C -0.631540 -4.392728 4.505572 0
M  V30 30 C -1.674595 -3.355949 4.073819 0
M  V30 31 C -2.004645 -2.554619 5.297127 0
M  V30 32 C -0.837306 -1.938794 5.969922 0
M  V30 33 C 0.477648 -2.598362 5.837999 0
M  V30 34 N 3.921245 -5.139285 4.171391 0
M  V30 35 H 7.088099 -5.338644 3.780551 0
M  V30 36 H 6.445797 -6.407858 2.462833 0
M  V30 37 H 6.062714 -6.696169 4.253415 0
M  V30 38 H 5.786328 -4.137873 1.597514 0
M  V30 39 H 5.637831 -2.688234 -0.035372 0
M  V30 40 H 3.544754 0.713884 -2.444137 0
M  V30 41 H 0.613889 0.090611 -0.151889 0
M  V30 42 H -1.839217 4.388742 -2.028098 0
M  V30 43 H -2.485550 3.368896 -0.743537 0
M  V30 44 H -3.955517 4.624377 -2.698059 0
M  V30 45 H -4.564191 3.423195 -1.490891 0
M  V30 46 H -5.966697 2.445270 -3.058276 0
M  V30 47 H -5.971128 4.134399 -3.627446 0
M  V30 48 H -6.463082 2.064514 -5.896453 0
M  V30 49 H -5.845175 0.984047 -4.622349 0
M  V30 50 H -4.841913 1.211447 -6.148875 0
M  V30 51 H -3.508093 4.038942 -5.697237 0
M  V30 52 H -3.226212 2.307441 -5.888543 0
M  V30 53 H -2.088974 4.102219 -3.957286 0
M  V30 54 H -1.671934 2.407571 -4.242908 0
M  V30 55 H 0.182447 3.643897 -3.333947 0
M  V30 56 H 0.799137 -2.993653 3.803321 0
M  V30 57 H -0.563602 -5.161497 3.742075 0
M  V30 58 H -0.975906 -4.762909 5.502360 0
M  V30 59 H -2.567797 -3.925603 3.744455 0
M  V30 60 H -1.287318 -2.672475 3.291709 0
M  V30 61 H -2.450197 -3.287575 6.031396 0
M  V30 62 H -2.835662 -1.839927 5.098297 0
M  V30 63 H -0.726803 -0.904764 5.527496 0
M  V30 64 H -1.046723 -1.705891 7.059141 0
M  V30 65 H 0.638333 -3.171525 6.801279 0
M  V30 66 H 1.298981 -1.848928 5.841561 0
M  V30 END ATOM
M  V30 BEGIN BOND
M  V30 1 1 1 2
M  V30 2 2 2 3
M  V30 3 1 3 4
M  V30 4 1 4 5
M  V30 5 2 5 6
M  V30 6 1 6 7
M  V30 7 2 7 8
M  V30 8 1 8 9
M  V30 9 1 9 10
M  V30 10 2 10 11
M  V30 11 1 11 12
M  V30 12 2 12 13
M  V30 13 1 13 14
M  V30 14 1 14 15
M  V30 15 1 15 16
M  V30 16 1 16 17
M  V30 17 1 17 18
M  V30 18 1 18 19
M  V30 19 1 18 20
M  V30 20 1 20 21
M  V30 21 1 13 22
M  V30 22 2 22 23
M  V30 23 1 8 24
M  V30 24 2 4 25
M  V30 25 1 25 26
M  V30 26 1 26 27
M  V30 27 1 27 28
M  V30 28 1 28 29
M  V30 29 1 29 30
M  V30 30 1 30 31
M  V30 31 1 31 32
M  V30 32 1 32 33
M  V30 33 2 26 34
M  V30 34 1 34 2
M  V30 35 1 24 5
M  V30 36 1 33 28
M  V30 37 1 23 10
M  V30 38 1 21 15
M  V30 39 1 1 35
M  V30 40 1 1 36
M  V30 41 1 1 37
M  V30 42 1 3 38
M  V30 43 1 6 39
M  V30 44 1 9 40
M  V30 45 1 11 41
M  V30 46 1 14 42
M  V30 47 1 14 43
M  V30 48 1 16 44
M  V30 49 1 16 45
M  V30 50 1 17 46
M  V30 51 1 17 47
M  V30 52 1 19 48
M  V30 53 1 19 49
M  V30 54 1 19 50
M  V30 55 1 20 51
M  V30 56 1 20 52
M  V30 57 1 21 53
M  V30 58 1 21 54
M  V30 59 1 22 55
M  V30 60 1 28 56
M  V30 61 1 29 57
M  V30 62 1 29 58
M  V30 63 1 30 59
M  V30 64 1 30 60
M  V30 65 1 31 61
M  V30 66 1 31 62
M  V30 67 1 32 63
M  V30 68 1 32 64
M  V30 69 1 33 65
M  V30 70 1 33 66
M  V30 END BOND
M  V30 END CTAB
M  END
>  <Dataset>  (295) 
ChEMBL_Kinases

>  <Ligand_Instance>  (295) 
nan

>  <PDB_ID>  (295) 
nan

>  <Standardized_SMILES>  (295) 
Cc1cc(-c2cnc(Nc3cnc(CN4CCN(C)CC4)cn3)s2)nc(OC2CCCCC2)n1

>  <Name>  (295) 
nan

>  <Pocket>  (295) 
nan

>  <ATP_Site>  (295) 
nan

>  <Peripheral>  (295) 
nan

>  <Num_H_Atoms_ProtBoundConf>  (295) 
nan

>  <Num_Resolved_Atoms>  (295) 
nan

>  <Num_Not_Resolved_Atoms>  (295) 
nan

$$$$
CHEMBL4798421
     RDKit          3D

  0  0  0  0  0  0  0  0  0  0999 V3000
M  V30 BEGIN CTAB
M  V30 COUNTS 68 71 0 0 0
M  V30 BEGIN ATOM
M  V30 1 C 7.151348 -2.805721 3.724114 0
M  V30 2 C 6.783005 -1.839340 2.623367 0
M  V30 3 N 5.330372 -2.076441 2.349766 0
M  V30 4 C 4.685419 -1.606759 3.537111 0
M  V30 5 C 3.206848 -1.891857 3.530640 0
M  V30 6 C 5.096511 -1.350850 1.148245 0
M  V30 7 C 3.751694 -1.392280 0.571290 0
M  V30 8 C 3.436580 -2.469504 -0.268386 0
M  V30 9 C 2.208201 -2.593346 -0.884122 0
M  V30 10 C 1.281938 -1.601896 -0.640696 0
M  V30 11 O 0.054216 -1.737711 -1.263939 0
M  V30 12 C -0.357685 -2.757912 -2.108780 0
M  V30 13 C 1.502703 -0.510004 0.167590 0
M  V30 14 C 0.539733 0.550319 0.438344 0
M  V30 15 C -0.747833 0.702875 -0.026985 0
M  V30 16 C -1.340315 1.861111 0.469636 0
M  V30 17 C -2.581882 2.455100 0.306691 0
M  V30 18 C -3.592868 1.787689 -0.547305 0
M  V30 19 C -4.295329 2.410677 -1.554137 0
M  V30 20 C -5.226812 1.688107 -2.288078 0
M  V30 21 C -5.444085 0.356634 -2.007400 0
M  V30 22 C -6.424390 -0.353059 -2.816841 0
M  V30 23 O -6.777568 -1.554412 -2.754973 0
M  V30 24 O -7.148042 0.231191 -3.828924 0
M  V30 25 C -4.772133 -0.311987 -1.014866 0
M  V30 26 C -4.950803 -1.727489 -0.643163 0
M  V30 27 C -4.107767 -2.657711 -1.472271 0
M  V30 28 C -4.539047 -1.950989 0.821371 0
M  V30 29 C -3.855715 0.433233 -0.306384 0
M  V30 30 C -2.849734 3.642889 0.956509 0
M  V30 31 C -1.836405 4.155640 1.735222 0
M  V30 32 N -0.638231 3.565111 1.881995 0
M  V30 33 C -0.328311 2.397334 1.263219 0
M  V30 34 N 0.762090 1.613575 1.229938 0
M  V30 35 C 2.751675 -0.460006 0.744044 0
M  V30 36 H 7.126041 -2.287773 4.718490 0
M  V30 37 H 8.168370 -3.171473 3.527441 0
M  V30 38 H 6.481358 -3.685517 3.791072 0
M  V30 39 H 7.385174 -2.047632 1.740783 0
M  V30 40 H 6.823120 -0.801267 3.004843 0
M  V30 41 H 4.878065 -0.514787 3.712767 0
M  V30 42 H 5.110819 -2.084522 4.458436 0
M  V30 43 H 2.880713 -2.543025 2.690293 0
M  V30 44 H 2.949557 -2.374920 4.514210 0
M  V30 45 H 2.600147 -0.951553 3.544723 0
M  V30 46 H 5.792119 -1.788270 0.380895 0
M  V30 47 H 5.460170 -0.279219 1.263438 0
M  V30 48 H 4.175288 -3.251308 -0.457282 0
M  V30 49 H 2.001896 -3.431937 -1.521011 0
M  V30 50 H -1.159252 -2.348657 -2.793509 0
M  V30 51 H 0.478907 -3.007474 -2.806880 0
M  V30 52 H -0.789976 -3.647309 -1.604941 0
M  V30 53 H -1.269076 0.040911 -0.693608 0
M  V30 54 H -4.091540 3.451875 -1.737211 0
M  V30 55 H -5.775775 2.198114 -3.084242 0
M  V30 56 H -7.337641 -0.226707 -4.722583 0
M  V30 57 H -5.996622 -2.090051 -0.680543 0
M  V30 58 H -3.491734 -2.144378 -2.236965 0
M  V30 59 H -4.725860 -3.391967 -2.061434 0
M  V30 60 H -3.440653 -3.292370 -0.855586 0
M  V30 61 H -4.960412 -1.170282 1.488619 0
M  V30 62 H -3.435678 -2.034426 0.915146 0
M  V30 63 H -4.949162 -2.924039 1.165663 0
M  V30 64 H -3.305660 -0.044984 0.491216 0
M  V30 65 H -3.812616 4.125377 0.843223 0
M  V30 66 H -2.003318 5.096181 2.270700 0
M  V30 67 H 1.617259 1.885872 1.782892 0
M  V30 68 H 3.071369 0.354445 1.413870 0
M  V30 END ATOM
M  V30 BEGIN BOND
M  V30 1 1 1 2
M  V30 2 1 2 3
M  V30 3 1 3 4
M  V30 4 1 4 5
M  V30 5 1 3 6
M  V30 6 1 6 7
M  V30 7 2 7 8
M  V30 8 1 8 9
M  V30 9 2 9 10
M  V30 10 1 10 11
M  V30 11 1 11 12
M  V30 12 1 10 13
M  V30 13 1 13 14
M  V30 14 2 14 15
M  V30 15 1 15 16
M  V30 16 2 16 17
M  V30 17 1 17 18
M  V30 18 2 18 19
M  V30 19 1 19 20
M  V30 20 2 20 21
M  V30 21 1 21 22
M  V30 22 2 22 23
M  V30 23 1 22 24
M  V30 24 1 21 25
M  V30 25 1 25 26
M  V30 26 1 26 27
M  V30 27 1 26 28
M  V30 28 2 25 29
M  V30 29 1 17 30
M  V30 30 2 30 31
M  V30 31 1 31 32
M  V30 32 2 32 33
M  V30 33 1 33 34
M  V30 34 2 13 35
M  V30 35 1 35 7
M  V30 36 1 34 14
M  V30 37 1 33 16
M  V30 38 1 29 18
M  V30 39 1 1 36
M  V30 40 1 1 37
M  V30 41 1 1 38
M  V30 42 1 2 39
M  V30 43 1 2 40
M  V30 44 1 4 41
M  V30 45 1 4 42
M  V30 46 1 5 43
M  V30 47 1 5 44
M  V30 48 1 5 45
M  V30 49 1 6 46
M  V30 50 1 6 47
M  V30 51 1 8 48
M  V30 52 1 9 49
M  V30 53 1 12 50
M  V30 54 1 12 51
M  V30 55 1 12 52
M  V30 56 1 15 53
M  V30 57 1 19 54
M  V30 58 1 20 55
M  V30 59 1 24 56
M  V30 60 1 26 57
M  V30 61 1 27 58
M  V30 62 1 27 59
M  V30 63 1 27 60
M  V30 64 1 28 61
M  V30 65 1 28 62
M  V30 66 1 28 63
M  V30 67 1 29 64
M  V30 68 1 30 65
M  V30 69 1 31 66
M  V30 70 1 34 67
M  V30 71 1 35 68
M  V30 END BOND
M  V30 END CTAB
M  END
>  <Dataset>  (296) 
ChEMBL_Kinases

>  <Ligand_Instance>  (296) 
nan

>  <PDB_ID>  (296) 
nan

>  <Standardized_SMILES>  (296) 
CCN(CC)Cc1ccc(OC)c(-c2cc3c(-c4ccc(C(=O)O)c(C(C)C)c4)ccnc3[nH]2)c1

>  <Name>  (296) 
nan

>  <Pocket>  (296) 
nan

>  <ATP_Site>  (296) 
nan

>  <Peripheral>  (296) 
nan

>  <Num_H_Atoms_ProtBoundConf>  (296) 
nan

>  <Num_Resolved_Atoms>  (296) 
nan

>  <Num_Not_Resolved_Atoms>  (296) 
nan

$$$$
CHEMBL4082113
     RDKit          3D

  0  0  0  0  0  0  0  0  0  0999 V3000
M  V30 BEGIN CTAB
M  V30 COUNTS 39 41 0 0 0
M  V30 BEGIN ATOM
M  V30 1 C 0.329546 -5.356463 4.293714 0
M  V30 2 O 0.741265 -4.340310 5.175645 0
M  V30 3 C 0.889808 -3.028100 4.758113 0
M  V30 4 C 1.294722 -2.255288 5.812846 0
M  V30 5 C 1.486505 -0.901385 5.539672 0
M  V30 6 C 1.268907 -0.409047 4.260730 0
M  V30 7 S 1.422821 1.195456 3.591606 0
M  V30 8 C 0.916566 0.706473 1.878269 0
M  V30 9 C 0.763429 1.506185 0.534976 0
M  V30 10 O 1.899064 1.931171 0.181943 0
M  V30 11 N -0.480188 1.646077 -0.064756 0
M  V30 12 C -1.745754 1.104679 0.445469 0
M  V30 13 C -0.541585 2.407268 -1.298205 0
M  V30 14 C -0.275248 1.549181 -2.502449 0
M  V30 15 C 1.030434 1.440992 -2.995741 0
M  V30 16 C 1.380682 0.673263 -4.078012 0
M  V30 17 C 0.413651 -0.044319 -4.740274 0
M  V30 18 C -0.882942 0.050298 -4.268249 0
M  V30 19 F -1.850116 -0.667415 -4.929016 0
M  V30 20 C -1.247985 0.832180 -3.161759 0
M  V30 21 C 0.672446 -0.651153 1.972492 0
M  V30 22 C 0.864170 -1.192182 3.212070 0
M  V30 23 C 0.674957 -2.542702 3.495466 0
M  V30 24 H 0.612944 -5.178857 3.239400 0
M  V30 25 H 0.773537 -6.359230 4.528478 0
M  V30 26 H -0.780940 -5.480591 4.310981 0
M  V30 27 H 1.496080 -2.511994 6.841814 0
M  V30 28 H 1.795061 -0.165092 6.243896 0
M  V30 29 H -2.070362 1.672699 1.349400 0
M  V30 30 H -1.657446 0.058297 0.777287 0
M  V30 31 H -2.540704 1.176408 -0.313140 0
M  V30 32 H -1.560206 2.848324 -1.472862 0
M  V30 33 H 0.134029 3.288991 -1.282010 0
M  V30 34 H 1.865381 1.972006 -2.547795 0
M  V30 35 H 2.381791 0.583230 -4.468352 0
M  V30 36 H 0.665351 -0.656998 -5.597292 0
M  V30 37 H -2.266025 0.885915 -2.817213 0
M  V30 38 H 0.355993 -1.153667 1.057597 0
M  V30 39 H 0.357325 -3.275105 2.781374 0
M  V30 END ATOM
M  V30 BEGIN BOND
M  V30 1 1 1 2
M  V30 2 1 2 3
M  V30 3 2 3 4
M  V30 4 1 4 5
M  V30 5 2 5 6
M  V30 6 1 6 7
M  V30 7 1 7 8
M  V30 8 1 8 9
M  V30 9 2 9 10
M  V30 10 1 9 11
M  V30 11 1 11 12
M  V30 12 1 11 13
M  V30 13 1 13 14
M  V30 14 2 14 15
M  V30 15 1 15 16
M  V30 16 2 16 17
M  V30 17 1 17 18
M  V30 18 1 18 19
M  V30 19 2 18 20
M  V30 20 2 8 21
M  V30 21 1 21 22
M  V30 22 2 22 23
M  V30 23 1 23 3
M  V30 24 1 22 6
M  V30 25 1 20 14
M  V30 26 1 1 24
M  V30 27 1 1 25
M  V30 28 1 1 26
M  V30 29 1 4 27
M  V30 30 1 5 28
M  V30 31 1 12 29
M  V30 32 1 12 30
M  V30 33 1 12 31
M  V30 34 1 13 32
M  V30 35 1 13 33
M  V30 36 1 15 34
M  V30 37 1 16 35
M  V30 38 1 17 36
M  V30 39 1 20 37
M  V30 40 1 21 38
M  V30 41 1 23 39
M  V30 END BOND
M  V30 END CTAB
M  END
>  <Dataset>  (297) 
ChEMBL_Kinases

>  <Ligand_Instance>  (297) 
nan

>  <PDB_ID>  (297) 
nan

>  <Standardized_SMILES>  (297) 
COc1ccc2sc(C(=O)N(C)Cc3cccc(F)c3)cc2c1

>  <Name>  (297) 
nan

>  <Pocket>  (297) 
nan

>  <ATP_Site>  (297) 
nan

>  <Peripheral>  (297) 
nan

>  <Num_H_Atoms_ProtBoundConf>  (297) 
nan

>  <Num_Resolved_Atoms>  (297) 
nan

>  <Num_Not_Resolved_Atoms>  (297) 
nan

$$$$
CHEMBL4075509
     RDKit          3D

  0  0  0  0  0  0  0  0  0  0999 V3000
M  V30 BEGIN CTAB
M  V30 COUNTS 35 37 0 0 0
M  V30 BEGIN ATOM
M  V30 1 C -0.344189 -5.061918 1.720517 0
M  V30 2 C 1.057220 -5.160503 2.291970 0
M  V30 3 O 1.507601 -3.815361 2.470791 0
M  V30 4 C 1.560489 -3.041090 1.315428 0
M  V30 5 O 1.243436 -3.469551 0.199903 0
M  V30 6 N 2.008172 -1.705545 1.496128 0
M  V30 7 C 2.206775 -0.618102 0.631523 0
M  V30 8 C 3.368422 -0.298810 -0.053252 0
M  V30 9 C 3.339632 0.826945 -0.856768 0
M  V30 10 C 2.186359 1.582724 -0.953338 0
M  V30 11 N 1.931907 2.709212 -1.669242 0
M  V30 12 C 0.664159 3.082053 -1.443952 0
M  V30 13 C 0.111854 2.156492 -0.558379 0
M  V30 14 C -1.242373 2.123625 -0.005682 0
M  V30 15 C -1.936350 3.188065 0.504999 0
M  V30 16 C -3.217868 3.027557 1.000809 0
M  V30 17 C -3.823033 1.770481 0.986464 0
M  V30 18 C -3.140712 0.677033 0.474497 0
M  V30 19 Cl -3.885251 -0.925545 0.445068 0
M  V30 20 C -1.851256 0.871114 -0.017532 0
M  V30 21 N 1.070017 1.249152 -0.275920 0
M  V30 22 N 1.131187 0.185030 0.470341 0
M  V30 23 H -0.403549 -5.497065 0.696387 0
M  V30 24 H -1.081964 -5.528586 2.428700 0
M  V30 25 H -0.700044 -4.016987 1.604179 0
M  V30 26 H 1.030966 -5.672643 3.293885 0
M  V30 27 H 1.707929 -5.731003 1.627750 0
M  V30 28 H 2.285559 -1.303376 2.419998 0
M  V30 29 H 4.203721 -0.971077 0.107067 0
M  V30 30 H 4.244901 1.057330 -1.377071 0
M  V30 31 H 0.060176 3.900151 -1.800141 0
M  V30 32 H -1.441109 4.130585 0.498606 0
M  V30 33 H -3.768564 3.859916 1.403471 0
M  V30 34 H -4.821176 1.571956 1.357174 0
M  V30 35 H -1.368883 -0.023714 -0.405092 0
M  V30 END ATOM
M  V30 BEGIN BOND
M  V30 1 1 1 2
M  V30 2 1 2 3
M  V30 3 1 3 4
M  V30 4 2 4 5
M  V30 5 1 4 6
M  V30 6 1 6 7
M  V30 7 1 7 8
M  V30 8 2 8 9
M  V30 9 1 9 10
M  V30 10 2 10 11
M  V30 11 1 11 12
M  V30 12 2 12 13
M  V30 13 1 13 14
M  V30 14 2 14 15
M  V30 15 1 15 16
M  V30 16 2 16 17
M  V30 17 1 17 18
M  V30 18 1 18 19
M  V30 19 2 18 20
M  V30 20 1 13 21
M  V30 21 1 21 22
M  V30 22 2 22 7
M  V30 23 1 21 10
M  V30 24 1 20 14
M  V30 25 1 1 23
M  V30 26 1 1 24
M  V30 27 1 1 25
M  V30 28 1 2 26
M  V30 29 1 2 27
M  V30 30 1 6 28
M  V30 31 1 8 29
M  V30 32 1 9 30
M  V30 33 1 12 31
M  V30 34 1 15 32
M  V30 35 1 16 33
M  V30 36 1 17 34
M  V30 37 1 20 35
M  V30 END BOND
M  V30 END CTAB
M  END
>  <Dataset>  (298) 
ChEMBL_Kinases

>  <Ligand_Instance>  (298) 
nan

>  <PDB_ID>  (298) 
nan

>  <Standardized_SMILES>  (298) 
CCOC(=O)Nc1ccc2ncc(-c3cccc(Cl)c3)n2n1

>  <Name>  (298) 
nan

>  <Pocket>  (298) 
nan

>  <ATP_Site>  (298) 
nan

>  <Peripheral>  (298) 
nan

>  <Num_H_Atoms_ProtBoundConf>  (298) 
nan

>  <Num_Resolved_Atoms>  (298) 
nan

>  <Num_Not_Resolved_Atoms>  (298) 
nan

$$$$
CHEMBL3770443
     RDKit          3D

  0  0  0  0  0  0  0  0  0  0999 V3000
M  V30 BEGIN CTAB
M  V30 COUNTS 60 64 0 0 0
M  V30 BEGIN ATOM
M  V30 1 C 3.785984 -5.902232 4.026836 0
M  V30 2 N 4.447402 -5.078096 3.009211 0
M  V30 3 C 4.065714 -3.726065 2.793803 0
M  V30 4 N 4.618498 -2.572030 3.208193 0
M  V30 5 C 4.056950 -1.378384 2.877685 0
M  V30 6 C 2.911063 -1.409238 2.109270 0
M  V30 7 C 2.391114 -0.160125 1.812290 0
M  V30 8 C 1.242316 -0.139222 1.048674 0
M  V30 9 C 0.451695 1.009093 0.558531 0
M  V30 10 C 0.847408 1.464054 -0.702609 0
M  V30 11 C 0.129469 2.530221 -1.206588 0
M  V30 12 C -0.919780 3.172174 -0.589532 0
M  V30 13 C -1.611429 4.285847 -1.221380 0
M  V30 14 C -2.658687 4.916881 -0.588138 0
M  V30 15 C -3.218729 5.961891 -1.321043 0
M  V30 16 C -2.732589 6.295219 -2.564448 0
M  V30 17 C -1.687753 5.638273 -3.155334 0
M  V30 18 C -1.211108 6.039736 -4.504660 0
M  V30 19 N -1.138449 4.621157 -2.446770 0
M  V30 20 C -1.239742 2.658343 0.646555 0
M  V30 21 C -0.594804 1.599768 1.246909 0
M  V30 22 Cl -1.013184 0.956030 2.817547 0
M  V30 23 C 0.650289 -1.310683 0.609457 0
M  V30 24 O -0.389489 -1.442490 -0.087014 0
M  V30 25 N 1.189901 -2.524376 0.920405 0
M  V30 26 C 0.625852 -3.795835 0.504999 0
M  V30 27 C -0.353005 -4.345187 1.530747 0 CFG=1
M  V30 28 O -1.420495 -3.545864 1.788427 0
M  V30 29 C -2.600791 -3.809281 1.144540 0
M  V30 30 C -2.512521 -4.816104 0.032693 0 CFG=2
M  V30 31 N -3.865696 -5.309896 -0.256765 0
M  V30 32 C -1.699775 -5.968770 0.521301 0
M  V30 33 O -0.633373 -5.670719 1.309791 0
M  V30 34 C 2.315672 -2.571495 1.666693 0
M  V30 35 N 2.939582 -3.726713 2.039954 0
M  V30 36 H 4.566753 -6.274660 4.696573 0
M  V30 37 H 3.222800 -6.740272 3.604319 0
M  V30 38 H 3.107201 -5.219423 4.618769 0
M  V30 39 H 5.217204 -5.440556 2.430971 0
M  V30 40 H 4.519904 -0.469273 3.221361 0
M  V30 41 H 2.728706 0.811381 2.074917 0
M  V30 42 H 1.665114 1.015297 -1.260577 0
M  V30 43 H 0.461897 2.867845 -2.202265 0
M  V30 44 H -3.027552 4.644775 0.381794 0
M  V30 45 H -4.045460 6.502453 -0.884533 0
M  V30 46 H -3.227595 7.124711 -3.070100 0
M  V30 47 H -1.833740 5.543735 -5.303783 0
M  V30 48 H -1.321450 7.157814 -4.613907 0
M  V30 49 H -0.158213 5.709944 -4.612869 0
M  V30 50 H -2.043404 3.087734 1.211866 0
M  V30 51 H 1.436062 -4.532969 0.367201 0
M  V30 52 H 0.124072 -3.590432 -0.463172 0
M  V30 53 H 0.270211 -4.357741 2.478168 0
M  V30 54 H -3.157944 -2.915740 0.788536 0
M  V30 55 H -3.290010 -4.264720 1.916617 0
M  V30 56 H -2.154533 -4.385475 -0.925630 0
M  V30 57 H -3.916442 -5.787178 -1.192991 0
M  V30 58 H -4.566258 -4.548221 -0.235258 0
M  V30 59 H -2.400401 -6.676312 1.050927 0
M  V30 60 H -1.387759 -6.553565 -0.392290 0
M  V30 END ATOM
M  V30 BEGIN BOND
M  V30 1 1 1 2
M  V30 2 1 2 3
M  V30 3 2 3 4
M  V30 4 1 4 5
M  V30 5 2 5 6
M  V30 6 1 6 7
M  V30 7 2 7 8
M  V30 8 1 8 9
M  V30 9 2 9 10
M  V30 10 1 10 11
M  V30 11 2 11 12
M  V30 12 1 12 13
M  V30 13 2 13 14
M  V30 14 1 14 15
M  V30 15 2 15 16
M  V30 16 1 16 17
M  V30 17 1 17 18
M  V30 18 2 17 19
M  V30 19 1 12 20
M  V30 20 2 20 21
M  V30 21 1 21 22
M  V30 22 1 8 23
M  V30 23 2 23 24
M  V30 24 1 23 25
M  V30 25 1 25 26
M  V30 26 1 26 27
M  V30 27 1 27 28
M  V30 28 1 28 29
M  V30 29 1 29 30
M  V30 30 1 30 31
M  V30 31 1 30 32
M  V30 32 1 32 33
M  V30 33 1 25 34
M  V30 34 2 34 35
M  V30 35 1 35 3
M  V30 36 1 34 6
M  V30 37 1 21 9
M  V30 38 1 33 27
M  V30 39 1 19 13
M  V30 40 1 1 36
M  V30 41 1 1 37
M  V30 42 1 1 38
M  V30 43 1 2 39
M  V30 44 1 5 40
M  V30 45 1 7 41
M  V30 46 1 10 42
M  V30 47 1 11 43
M  V30 48 1 14 44
M  V30 49 1 15 45
M  V30 50 1 16 46
M  V30 51 1 18 47
M  V30 52 1 18 48
M  V30 53 1 18 49
M  V30 54 1 20 50
M  V30 55 1 26 51
M  V30 56 1 26 52
M  V30 57 1 27 53 CFG=1
M  V30 58 1 29 54
M  V30 59 1 29 55
M  V30 60 1 30 56 CFG=3
M  V30 61 1 31 57
M  V30 62 1 31 58
M  V30 63 1 32 59
M  V30 64 1 32 60
M  V30 END BOND
M  V30 END CTAB
M  END
>  <Dataset>  (299) 
ChEMBL_Kinases

>  <Ligand_Instance>  (299) 
nan

>  <PDB_ID>  (299) 
nan

>  <Standardized_SMILES>  (299) 
CNc1ncc2cc(-c3ccc(-c4cccc(C)n4)cc3Cl)c(=O)n(C[C@H]3OC[C@H](N)CO3)c2n1

>  <Name>  (299) 
nan

>  <Pocket>  (299) 
nan

>  <ATP_Site>  (299) 
nan

>  <Peripheral>  (299) 
nan

>  <Num_H_Atoms_ProtBoundConf>  (299) 
nan

>  <Num_Resolved_Atoms>  (299) 
nan

>  <Num_Not_Resolved_Atoms>  (299) 
nan

$$$$
CHEMBL184574
     RDKit          3D

  0  0  0  0  0  0  0  0  0  0999 V3000
M  V30 BEGIN CTAB
M  V30 COUNTS 27 29 0 0 0
M  V30 BEGIN ATOM
M  V30 1 O -1.131738 -1.533046 2.496703 0
M  V30 2 C -0.479458 -1.024654 1.573834 0
M  V30 3 C 0.878859 -0.710192 1.637785 0
M  V30 4 C 1.471875 -1.015309 2.846135 0
M  V30 5 O 0.803271 -1.581409 3.912141 0
M  V30 6 C 2.827910 -0.719590 2.958555 0
M  V30 7 C 3.489808 -0.153752 1.888781 0
M  V30 8 O 4.855222 0.186620 1.888272 0
M  V30 9 C 2.890181 0.148610 0.683395 0
M  V30 10 C 1.528114 -0.145004 0.561358 0
M  V30 11 O 0.868870 0.113482 -0.566595 0
M  V30 12 C -0.427351 -0.177771 -0.651191 0
M  V30 13 C -1.023579 0.130894 -1.871142 0
M  V30 14 O -0.355622 0.697205 -2.938133 0
M  V30 15 C -2.380222 -0.146326 -2.033334 0
M  V30 16 C -3.117706 -0.712433 -1.013103 0
M  V30 17 C -2.481543 -0.999903 0.176841 0
M  V30 18 O -3.137403 -1.573005 1.270007 0
M  V30 19 C -1.141308 -0.743554 0.383807 0
M  V30 20 H 1.065294 -2.503870 4.206967 0
M  V30 21 H 3.404096 -0.910832 3.851856 0
M  V30 22 H 5.296037 0.691331 2.647724 0
M  V30 23 H 3.358400 0.584464 -0.168286 0
M  V30 24 H -0.853565 1.384965 -3.507860 0
M  V30 25 H -2.896826 0.072779 -2.961438 0
M  V30 26 H -4.177581 -0.938698 -1.113962 0
M  V30 27 H -3.288373 -2.565362 1.319118 0
M  V30 END ATOM
M  V30 BEGIN BOND
M  V30 1 2 1 2
M  V30 2 1 2 3
M  V30 3 2 3 4
M  V30 4 1 4 5
M  V30 5 1 4 6
M  V30 6 2 6 7
M  V30 7 1 7 8
M  V30 8 1 7 9
M  V30 9 2 9 10
M  V30 10 1 10 11
M  V30 11 1 11 12
M  V30 12 2 12 13
M  V30 13 1 13 14
M  V30 14 1 13 15
M  V30 15 2 15 16
M  V30 16 1 16 17
M  V30 17 1 17 18
M  V30 18 2 17 19
M  V30 19 1 19 2
M  V30 20 1 10 3
M  V30 21 1 19 12
M  V30 22 1 5 20
M  V30 23 1 6 21
M  V30 24 1 8 22
M  V30 25 1 9 23
M  V30 26 1 14 24
M  V30 27 1 15 25
M  V30 28 1 16 26
M  V30 29 1 18 27
M  V30 END BOND
M  V30 END CTAB
M  END
>  <Dataset>  (300) 
ChEMBL_Kinases

>  <Ligand_Instance>  (300) 
nan

>  <PDB_ID>  (300) 
nan

>  <Standardized_SMILES>  (300) 
O=c1c2c(O)cc(O)cc2oc2c(O)ccc(O)c12

>  <Name>  (300) 
DEMETHYLBELLIDIFOLIN

>  <Pocket>  (300) 
nan

>  <ATP_Site>  (300) 
nan

>  <Peripheral>  (300) 
nan

>  <Num_H_Atoms_ProtBoundConf>  (300) 
nan

>  <Num_Resolved_Atoms>  (300) 
nan

>  <Num_Not_Resolved_Atoms>  (300) 
nan

$$$$
CHEMBL210390
     RDKit          3D

  0  0  0  0  0  0  0  0  0  0999 V3000
M  V30 BEGIN CTAB
M  V30 COUNTS 54 58 0 0 0
M  V30 BEGIN ATOM
M  V30 1 N 3.253137 -7.159539 5.352827 0
M  V30 2 C 2.737976 -6.612174 4.130671 0
M  V30 3 C 2.917160 -5.275361 3.843040 0
M  V30 4 C 2.372014 -4.853998 2.625200 0
M  V30 5 C 2.521290 -3.534735 2.291287 0
M  V30 6 C 1.988647 -3.103063 1.094019 0
M  V30 7 C 2.133843 -1.699375 0.713729 0
M  V30 8 C 3.291935 -1.097316 1.161578 0
M  V30 9 N 3.474825 0.195064 0.839199 0
M  V30 10 C 2.604817 0.917431 0.117081 0
M  V30 11 C 1.430632 0.381438 -0.361203 0
M  V30 12 O 0.360466 0.805263 -1.095080 0
M  V30 13 C 0.071408 2.033138 -1.645471 0
M  V30 14 C -0.084504 3.189811 -0.710590 0 CFG=1
M  V30 15 N -0.344534 4.387803 -1.533848 0
M  V30 16 C -1.144326 3.050468 0.334696 0
M  V30 17 C -2.501291 2.894030 -0.221716 0
M  V30 18 C -3.271567 4.061458 -0.361698 0
M  V30 19 N -4.469842 3.807919 -0.915975 0
M  V30 20 C -4.536023 2.471556 -1.160616 0
M  V30 21 C -5.473786 1.609706 -1.691629 0
M  V30 22 C -5.183142 0.253563 -1.775193 0
M  V30 23 C -3.973665 -0.254753 -1.337677 0
M  V30 24 C -3.039245 0.608064 -0.808395 0
M  V30 25 C -3.348679 1.945214 -0.737148 0
M  V30 26 C 1.208434 -0.965149 -0.043029 0
M  V30 27 C 1.319024 -3.955102 0.236887 0
M  V30 28 C 1.209760 -5.282796 0.649425 0
M  V30 29 C 1.719082 -5.785113 1.836015 0
M  V30 30 C 1.580001 -7.100744 2.188822 0
M  V30 31 N 2.107402 -7.521089 3.372999 0
M  V30 32 H 3.378693 -6.783411 6.305217 0
M  V30 33 H 3.272563 -6.546206 6.212380 0
M  V30 34 H 3.449676 -4.644895 4.546861 0
M  V30 35 H 3.046464 -2.848123 2.954771 0
M  V30 36 H 4.069448 -1.561201 1.747382 0
M  V30 37 H 2.696627 1.944523 -0.177638 0
M  V30 38 H -0.889892 1.923476 -2.214819 0
M  V30 39 H 0.823533 2.304514 -2.429980 0
M  V30 40 H 0.872823 3.394958 -0.215848 0
M  V30 41 H -0.685164 5.120718 -0.868383 0
M  V30 42 H 0.566320 4.724130 -1.904267 0
M  V30 43 H -0.899942 2.071085 0.863560 0
M  V30 44 H -1.090247 3.876159 1.081158 0
M  V30 45 H -3.057176 5.109285 -0.099291 0
M  V30 46 H -5.260579 4.443088 -1.151693 0
M  V30 47 H -6.423792 2.033673 -2.031158 0
M  V30 48 H -5.985592 -0.334444 -2.206788 0
M  V30 49 H -3.803516 -1.326545 -1.428463 0
M  V30 50 H -2.120988 0.183875 -0.467070 0
M  V30 51 H 0.371101 -1.619130 -0.295110 0
M  V30 52 H 0.888440 -3.658248 -0.706595 0
M  V30 53 H 0.688727 -5.963200 -0.009861 0
M  V30 54 H 1.052186 -7.779153 1.516130 0
M  V30 END ATOM
M  V30 BEGIN BOND
M  V30 1 1 1 2
M  V30 2 2 2 3
M  V30 3 1 3 4
M  V30 4 2 4 5
M  V30 5 1 5 6
M  V30 6 1 6 7
M  V30 7 2 7 8
M  V30 8 1 8 9
M  V30 9 2 9 10
M  V30 10 1 10 11
M  V30 11 1 11 12
M  V30 12 1 12 13
M  V30 13 1 13 14
M  V30 14 1 14 15
M  V30 15 1 14 16
M  V30 16 1 16 17
M  V30 17 2 17 18
M  V30 18 1 18 19
M  V30 19 1 19 20
M  V30 20 2 20 21
M  V30 21 1 21 22
M  V30 22 2 22 23
M  V30 23 1 23 24
M  V30 24 2 24 25
M  V30 25 2 11 26
M  V30 26 2 6 27
M  V30 27 1 27 28
M  V30 28 2 28 29
M  V30 29 1 29 30
M  V30 30 2 30 31
M  V30 31 1 31 2
M  V30 32 1 29 4
M  V30 33 1 26 7
M  V30 34 1 25 17
M  V30 35 1 25 20
M  V30 36 1 1 32
M  V30 37 1 1 33
M  V30 38 1 3 34
M  V30 39 1 5 35
M  V30 40 1 8 36
M  V30 41 1 10 37
M  V30 42 1 13 38
M  V30 43 1 13 39
M  V30 44 1 14 40 CFG=1
M  V30 45 1 15 41
M  V30 46 1 15 42
M  V30 47 1 16 43
M  V30 48 1 16 44
M  V30 49 1 18 45
M  V30 50 1 19 46
M  V30 51 1 21 47
M  V30 52 1 22 48
M  V30 53 1 23 49
M  V30 54 1 24 50
M  V30 55 1 26 51
M  V30 56 1 27 52
M  V30 57 1 28 53
M  V30 58 1 30 54
M  V30 END BOND
M  V30 END CTAB
M  END
>  <Dataset>  (301) 
ChEMBL_Kinases

>  <Ligand_Instance>  (301) 
nan

>  <PDB_ID>  (301) 
nan

>  <Standardized_SMILES>  (301) 
Nc1cc2cc(-c3cncc(OC[C@@H](N)Cc4c[nH]c5ccccc45)c3)ccc2cn1

>  <Name>  (301) 
nan

>  <Pocket>  (301) 
nan

>  <ATP_Site>  (301) 
nan

>  <Peripheral>  (301) 
nan

>  <Num_H_Atoms_ProtBoundConf>  (301) 
nan

>  <Num_Resolved_Atoms>  (301) 
nan

>  <Num_Not_Resolved_Atoms>  (301) 
nan

$$$$
CHEMBL417051
     RDKit          3D

  0  0  0  0  0  0  0  0  0  0999 V3000
M  V30 BEGIN CTAB
M  V30 COUNTS 63 66 0 0 0
M  V30 BEGIN ATOM
M  V30 1 N -0.936543 4.524806 3.999595 0
M  V30 2 C -1.637611 3.294330 4.310379 0 CFG=2
M  V30 3 C -0.826279 2.400150 5.219615 0
M  V30 4 C -0.351346 1.307107 4.267829 0 CFG=2
M  V30 5 N 0.677640 1.873719 3.453456 0
M  V30 6 C 1.989382 1.352619 3.286294 0
M  V30 7 O 2.211952 0.284718 3.944069 0
M  V30 8 C 3.002248 1.970941 2.442197 0
M  V30 9 C 2.829307 3.116338 1.709520 0
M  V30 10 C 3.808052 3.679589 0.917796 0
M  V30 11 C 5.041104 3.066406 0.847547 0
M  V30 12 O 5.996372 3.661323 0.043185 0
M  V30 13 C 5.228266 1.922652 1.573339 0
M  V30 14 C 4.233274 1.360356 2.370965 0
M  V30 15 C -1.609147 1.099492 3.451748 0 CFG=2
M  V30 16 O -1.320357 0.297323 2.318645 0
M  V30 17 C -2.005912 -0.862375 2.020850 0
M  V30 18 O -2.934583 -1.216672 2.803687 0
M  V30 19 C -1.695624 -1.676108 0.850380 0
M  V30 20 C -0.678186 -1.252744 0.029702 0
M  V30 21 C -0.352955 -2.005821 -1.104722 0
M  V30 22 O 0.690934 -1.485949 -1.862134 0
M  V30 23 C -1.036679 -3.162236 -1.410036 0
M  V30 24 C -0.614449 -3.928520 -2.546991 0
M  V30 25 O 0.627152 -3.668812 -2.763636 0
M  V30 26 C -1.071643 -4.872181 -3.520542 0
M  V30 27 C -0.142971 -5.715797 -4.092720 0
M  V30 28 O 1.198583 -5.732258 -3.738954 0
M  V30 29 C -0.564070 -6.607184 -5.083563 0
M  V30 30 C -1.862377 -6.676422 -5.509642 0
M  V30 31 C -2.805685 -5.859749 -4.971247 0
M  V30 32 C -2.351154 -4.997906 -4.002183 0
M  V30 33 C -3.405746 -4.094826 -3.583311 0
M  V30 34 O -4.614601 -4.065331 -3.908363 0
M  V30 35 O -4.105069 -3.083276 -2.976011 0
M  V30 36 C -2.042887 -3.524665 -0.538119 0
M  V30 37 O -2.821197 -4.662249 -0.684545 0
M  V30 38 C -2.410313 -2.825651 0.592761 0
M  V30 39 C -1.990908 2.506060 3.091742 0
M  V30 40 H -1.526509 5.379927 4.101405 0
M  V30 41 H -0.163840 4.638322 4.700830 0
M  V30 42 H -2.572724 3.544354 4.850260 0
M  V30 43 H -1.416292 1.965502 6.033060 0
M  V30 44 H 0.084460 2.876945 5.623753 0
M  V30 45 H -0.040236 0.384034 4.794452 0
M  V30 46 H 0.449669 2.748359 2.933778 0
M  V30 47 H 1.871521 3.608311 1.753180 0
M  V30 48 H 3.572988 4.596911 0.370073 0
M  V30 49 H 5.869204 3.886963 -0.941595 0
M  V30 50 H 6.223073 1.479756 1.480340 0
M  V30 51 H 4.532192 0.450491 2.887449 0
M  V30 52 H -2.434638 0.687055 4.053672 0
M  V30 53 H -0.149646 -0.354216 0.269359 0
M  V30 54 H 0.604275 -0.600422 -2.350434 0
M  V30 55 H 1.876231 -5.966936 -4.451465 0
M  V30 56 H 0.185275 -7.254353 -5.512874 0
M  V30 57 H -2.065431 -7.404696 -6.277026 0
M  V30 58 H -3.815215 -5.947242 -5.335654 0
M  V30 59 H -3.670661 -2.241711 -2.562512 0
M  V30 60 H -2.712463 -5.396088 0.008585 0
M  V30 61 H -3.176638 -3.071980 1.282443 0
M  V30 62 H -1.439188 2.790716 2.172922 0
M  V30 63 H -3.086842 2.526232 2.887708 0
M  V30 END ATOM
M  V30 BEGIN BOND
M  V30 1 1 1 2
M  V30 2 1 2 3
M  V30 3 1 3 4
M  V30 4 1 4 5
M  V30 5 1 5 6
M  V30 6 2 6 7
M  V30 7 1 6 8
M  V30 8 2 8 9
M  V30 9 1 9 10
M  V30 10 2 10 11
M  V30 11 1 11 12
M  V30 12 1 11 13
M  V30 13 2 13 14
M  V30 14 1 4 15
M  V30 15 1 15 16
M  V30 16 1 16 17
M  V30 17 2 17 18
M  V30 18 1 17 19
M  V30 19 2 19 20
M  V30 20 1 20 21
M  V30 21 1 21 22
M  V30 22 2 21 23
M  V30 23 1 23 24
M  V30 24 2 24 25
M  V30 25 1 24 26
M  V30 26 2 26 27
M  V30 27 1 27 28
M  V30 28 1 27 29
M  V30 29 2 29 30
M  V30 30 1 30 31
M  V30 31 2 31 32
M  V30 32 1 32 33
M  V30 33 2 33 34
M  V30 34 1 33 35
M  V30 35 1 23 36
M  V30 36 1 36 37
M  V30 37 2 36 38
M  V30 38 1 15 39
M  V30 39 1 39 2
M  V30 40 1 14 8
M  V30 41 1 38 19
M  V30 42 1 32 26
M  V30 43 1 1 40
M  V30 44 1 1 41
M  V30 45 1 2 42 CFG=1
M  V30 46 1 3 43
M  V30 47 1 3 44
M  V30 48 1 4 45 CFG=1
M  V30 49 1 5 46
M  V30 50 1 9 47
M  V30 51 1 10 48
M  V30 52 1 12 49
M  V30 53 1 13 50
M  V30 54 1 14 51
M  V30 55 1 15 52 CFG=1
M  V30 56 1 20 53
M  V30 57 1 22 54
M  V30 58 1 28 55
M  V30 59 1 29 56
M  V30 60 1 30 57
M  V30 61 1 31 58
M  V30 62 1 35 59
M  V30 63 1 37 60
M  V30 64 1 38 61
M  V30 65 1 39 62
M  V30 66 1 39 63
M  V30 END BOND
M  V30 END CTAB
M  END
>  <Dataset>  (302) 
ChEMBL_Kinases

>  <Ligand_Instance>  (302) 
nan

>  <PDB_ID>  (302) 
nan

>  <Standardized_SMILES>  (302) 
N[C@@H]1C[C@H](NC(=O)c2ccc(O)cc2)[C@H](OC(=O)c2cc(O)c(C(=O)c3c(O)cccc3C(=O)O)c(O)c2)C1

>  <Name>  (302) 
nan

>  <Pocket>  (302) 
nan

>  <ATP_Site>  (302) 
nan

>  <Peripheral>  (302) 
nan

>  <Num_H_Atoms_ProtBoundConf>  (302) 
nan

>  <Num_Resolved_Atoms>  (302) 
nan

>  <Num_Not_Resolved_Atoms>  (302) 
nan

$$$$
CHEMBL4446434
     RDKit          3D

  0  0  0  0  0  0  0  0  0  0999 V3000
M  V30 BEGIN CTAB
M  V30 COUNTS 34 37 0 0 0
M  V30 BEGIN ATOM
M  V30 1 C -0.684905 -3.212185 0.701273 0
M  V30 2 O 0.099372 -2.032520 0.794048 0
M  V30 3 C 1.404127 -2.007581 1.228096 0
M  V30 4 C 1.965880 -3.224583 1.592176 0
M  V30 5 C 3.253769 -3.254286 2.028465 0
M  V30 6 Br 4.160654 -4.858631 2.564228 0
M  V30 7 C 3.993384 -2.093144 2.108970 0
M  V30 8 C 3.394548 -0.907879 1.737027 0
M  V30 9 N 3.864175 0.352310 1.712674 0
M  V30 10 C 2.914488 1.192824 1.272799 0
M  V30 11 C 1.748929 0.486080 0.983833 0
M  V30 12 C 0.473662 0.990736 0.483180 0
M  V30 13 C 0.276209 2.351792 0.220560 0
M  V30 14 N -1.008846 2.461923 -0.226457 0
M  V30 15 C -1.562634 1.235434 -0.235287 0
M  V30 16 C -2.932037 0.936787 -0.651622 0
M  V30 17 C -3.529971 -0.307124 -0.672766 0
M  V30 18 C -4.824337 -0.133486 -1.132075 0
M  V30 19 C -4.952852 1.235846 -1.372750 0
M  V30 20 N -3.793984 1.879982 -1.076883 0
M  V30 21 O -0.639117 0.409214 0.193755 0
M  V30 22 C 2.094120 -0.815162 1.287437 0
M  V30 23 H -0.459576 -3.787581 -0.220816 0
M  V30 24 H -1.761750 -2.927212 0.644191 0
M  V30 25 H -0.529268 -3.845575 1.620713 0
M  V30 26 H 1.482257 -4.178120 1.567540 0
M  V30 27 H 5.020665 -2.048387 2.447097 0
M  V30 28 H 4.824977 0.650235 1.991960 0
M  V30 29 H 2.998499 2.279771 1.144099 0
M  V30 30 H 1.004858 3.147958 0.350137 0
M  V30 31 H -3.129988 -1.256104 -0.401661 0
M  V30 32 H -5.609738 -0.860451 -1.290699 0
M  V30 33 H -5.868460 1.682603 -1.744393 0
M  V30 34 H -3.688716 2.913032 -1.190606 0
M  V30 END ATOM
M  V30 BEGIN BOND
M  V30 1 1 1 2
M  V30 2 1 2 3
M  V30 3 2 3 4
M  V30 4 1 4 5
M  V30 5 1 5 6
M  V30 6 2 5 7
M  V30 7 1 7 8
M  V30 8 1 8 9
M  V30 9 1 9 10
M  V30 10 2 10 11
M  V30 11 1 11 12
M  V30 12 2 12 13
M  V30 13 1 13 14
M  V30 14 2 14 15
M  V30 15 1 15 16
M  V30 16 2 16 17
M  V30 17 1 17 18
M  V30 18 2 18 19
M  V30 19 1 19 20
M  V30 20 1 15 21
M  V30 21 1 11 22
M  V30 22 1 22 3
M  V30 23 2 22 8
M  V30 24 1 21 12
M  V30 25 1 20 16
M  V30 26 1 1 23
M  V30 27 1 1 24
M  V30 28 1 1 25
M  V30 29 1 4 26
M  V30 30 1 7 27
M  V30 31 1 9 28
M  V30 32 1 10 29
M  V30 33 1 13 30
M  V30 34 1 17 31
M  V30 35 1 18 32
M  V30 36 1 19 33
M  V30 37 1 20 34
M  V30 END BOND
M  V30 END CTAB
M  END
>  <Dataset>  (303) 
ChEMBL_Kinases

>  <Ligand_Instance>  (303) 
nan

>  <PDB_ID>  (303) 
nan

>  <Standardized_SMILES>  (303) 
COc1cc(Br)cc2[nH]cc(-c3cnc(-c4ccc[nH]4)o3)c12

>  <Name>  (303) 
nan

>  <Pocket>  (303) 
nan

>  <ATP_Site>  (303) 
nan

>  <Peripheral>  (303) 
nan

>  <Num_H_Atoms_ProtBoundConf>  (303) 
nan

>  <Num_Resolved_Atoms>  (303) 
nan

>  <Num_Not_Resolved_Atoms>  (303) 
nan

$$$$
CHEMBL4092117
     RDKit          3D

  0  0  0  0  0  0  0  0  0  0999 V3000
M  V30 BEGIN CTAB
M  V30 COUNTS 42 44 0 0 0
M  V30 BEGIN ATOM
M  V30 1 C -1.557724 -5.313053 0.434496 0
M  V30 2 C -0.395804 -4.561913 1.021070 0
M  V30 3 C 0.104671 -3.494265 0.057206 0 CFG=1
M  V30 4 C -1.030388 -2.535597 -0.210073 0
M  V30 5 O -1.446382 -1.850897 0.923414 0
M  V30 6 N 1.274573 -2.850266 0.566794 0
M  V30 7 C 1.996514 -1.812581 -0.074116 0
M  V30 8 C 3.057842 -2.047754 -0.954602 0
M  V30 9 C 3.640454 -0.902616 -1.482620 0
M  V30 10 C 3.167427 0.345513 -1.130281 0
M  V30 11 N 3.601832 1.567722 -1.536883 0
M  V30 12 C 2.830728 2.502750 -0.923960 0
M  V30 13 C 1.907094 1.850050 -0.127652 0
M  V30 14 C 0.837382 2.340296 0.750909 0
M  V30 15 C -0.003587 3.358902 0.289424 0
M  V30 16 C -0.996382 3.790516 1.147365 0
M  V30 17 C -1.200669 3.270862 2.431099 0
M  V30 18 C -0.329306 2.269910 2.810163 0
M  V30 19 C -0.545260 1.731709 4.146976 0
M  V30 20 O -1.477597 2.185617 4.864296 0
M  V30 21 O 0.126863 0.750585 4.819743 0
M  V30 22 C 0.675337 1.794945 2.011490 0
M  V30 23 N 2.139712 0.525533 -0.276009 0
M  V30 24 N 1.578028 -0.570743 0.232772 0
M  V30 25 H -2.500961 -4.825147 0.776056 0
M  V30 26 H -1.583156 -5.243450 -0.687822 0
M  V30 27 H -1.595477 -6.375221 0.775736 0
M  V30 28 H 0.409285 -5.296984 1.226217 0
M  V30 29 H -0.698075 -4.081701 1.978093 0
M  V30 30 H 0.342681 -3.975056 -0.910901 0
M  V30 31 H -0.797999 -1.815258 -1.003799 0
M  V30 32 H -1.911654 -3.115310 -0.553428 0
M  V30 33 H -1.505485 -0.858492 0.760678 0
M  V30 34 H 1.749667 -3.058253 1.474306 0
M  V30 35 H 3.345554 -3.068998 -1.159714 0
M  V30 36 H 4.468935 -1.061020 -2.170832 0
M  V30 37 H 2.843668 3.584254 -0.972707 0
M  V30 38 H 0.094000 3.808602 -0.690384 0
M  V30 39 H -1.657432 4.582206 0.800961 0
M  V30 40 H -2.004265 3.662119 3.049310 0
M  V30 41 H -0.421830 -0.021686 5.217327 0
M  V30 42 H 1.332082 1.021624 2.331594 0
M  V30 END ATOM
M  V30 BEGIN BOND
M  V30 1 1 1 2
M  V30 2 1 2 3
M  V30 3 1 3 4
M  V30 4 1 4 5
M  V30 5 1 3 6
M  V30 6 1 6 7
M  V30 7 1 7 8
M  V30 8 2 8 9
M  V30 9 1 9 10
M  V30 10 2 10 11
M  V30 11 1 11 12
M  V30 12 2 12 13
M  V30 13 1 13 14
M  V30 14 2 14 15
M  V30 15 1 15 16
M  V30 16 2 16 17
M  V30 17 1 17 18
M  V30 18 1 18 19
M  V30 19 2 19 20
M  V30 20 1 19 21
M  V30 21 2 18 22
M  V30 22 1 13 23
M  V30 23 1 23 24
M  V30 24 2 24 7
M  V30 25 1 23 10
M  V30 26 1 22 14
M  V30 27 1 1 25
M  V30 28 1 1 26
M  V30 29 1 1 27
M  V30 30 1 2 28
M  V30 31 1 2 29
M  V30 32 1 3 30 CFG=3
M  V30 33 1 4 31
M  V30 34 1 4 32
M  V30 35 1 5 33
M  V30 36 1 6 34
M  V30 37 1 8 35
M  V30 38 1 9 36
M  V30 39 1 12 37
M  V30 40 1 15 38
M  V30 41 1 16 39
M  V30 42 1 17 40
M  V30 43 1 21 41
M  V30 44 1 22 42
M  V30 END BOND
M  V30 END CTAB
M  END
>  <Dataset>  (304) 
ChEMBL_Kinases

>  <Ligand_Instance>  (304) 
nan

>  <PDB_ID>  (304) 
nan

>  <Standardized_SMILES>  (304) 
CC[C@@H](CO)Nc1ccc2ncc(-c3cccc(C(=O)O)c3)n2n1

>  <Name>  (304) 
nan

>  <Pocket>  (304) 
nan

>  <ATP_Site>  (304) 
nan

>  <Peripheral>  (304) 
nan

>  <Num_H_Atoms_ProtBoundConf>  (304) 
nan

>  <Num_Resolved_Atoms>  (304) 
nan

>  <Num_Not_Resolved_Atoms>  (304) 
nan

$$$$
CHEMBL4571241
     RDKit          3D

  0  0  0  0  0  0  0  0  0  0999 V3000
M  V30 BEGIN CTAB
M  V30 COUNTS 67 71 0 0 0
M  V30 BEGIN ATOM
M  V30 1 C 4.340343 -0.090482 6.898222 0
M  V30 2 C 3.230377 0.895642 7.128461 0
M  V30 3 C 3.091701 1.712020 5.850941 0
M  V30 4 C 3.834862 2.851943 5.815276 0
M  V30 5 C 3.613174 3.474086 4.581959 0
M  V30 6 C 2.775918 3.079786 3.476232 0
M  V30 7 C 2.167440 1.902488 3.816519 0
M  V30 8 C 2.249613 1.149316 4.950231 0
M  V30 9 C 1.354166 1.482795 2.752483 0
M  V30 10 O 0.733283 0.390707 2.952929 0
M  V30 11 C 1.250747 2.231412 1.564005 0
M  V30 12 C 0.365540 1.757666 0.475716 0
M  V30 13 O 0.488838 1.981202 -0.751388 0
M  V30 14 N -0.759651 0.963988 0.739224 0
M  V30 15 C -1.779715 0.301817 0.011225 0
M  V30 16 C -2.796474 -0.403573 0.533080 0
M  V30 17 C -3.738179 -1.131656 -0.204123 0
M  V30 18 C -3.623690 -1.138526 -1.629720 0
M  V30 19 O -4.658485 -1.923090 -2.013812 0
M  V30 20 C -4.799039 -3.129598 -2.594860 0
M  V30 21 N -6.124870 -3.298033 -2.769577 0
M  V30 22 C -6.659165 -4.429216 -3.341678 0
M  V30 23 N -5.770192 -5.373307 -3.727555 0
M  V30 24 C -4.451857 -5.245261 -3.573221 0
M  V30 25 C -3.558423 -6.207239 -3.958472 0
M  V30 26 C -2.179284 -6.133881 -3.818194 0
M  V30 27 O -1.319635 -6.878788 -4.095108 0
M  V30 28 C -0.370216 -7.839851 -4.464422 0
M  V30 29 C -1.774987 -4.928519 -3.218254 0
M  V30 30 O -0.406149 -4.682716 -2.978584 0
M  V30 31 C -0.018611 -3.491583 -2.357539 0
M  V30 32 C -2.631709 -3.906388 -2.803462 0
M  V30 33 C -3.944285 -4.114221 -3.000954 0
M  V30 34 C -2.556591 -0.389392 -2.071598 0
M  V30 35 F -2.608451 -0.502622 -3.448395 0
M  V30 36 C -1.610191 0.338170 -1.400434 0
M  V30 37 C 1.930758 3.392482 1.384605 0
M  V30 38 C 1.941659 4.289400 0.234960 0
M  V30 39 N 2.749489 3.849340 2.403994 0
M  V30 40 C 3.554001 5.046296 2.411982 0
M  V30 41 H 4.923857 0.246119 6.010385 0
M  V30 42 H 5.042517 -0.085539 7.760845 0
M  V30 43 H 3.865248 -1.095025 6.743074 0
M  V30 44 H 3.408260 1.586004 7.984443 0
M  V30 45 H 2.275035 0.331797 7.307673 0
M  V30 46 H 4.473270 3.235667 6.557298 0
M  V30 47 H 4.189966 4.417077 4.477320 0
M  V30 48 H 1.719804 0.245564 5.066797 0
M  V30 49 H -0.958990 0.840704 1.750762 0
M  V30 50 H -2.856167 -0.368950 1.634608 0
M  V30 51 H -4.461935 -1.607436 0.477447 0
M  V30 52 H -7.664485 -4.741650 -3.557283 0
M  V30 53 H -3.866769 -7.161509 -4.408591 0
M  V30 54 H -0.571957 -8.318090 -5.458203 0
M  V30 55 H -0.326293 -8.622267 -3.643057 0
M  V30 56 H 0.630885 -7.389831 -4.514114 0
M  V30 57 H -0.278935 -2.580530 -2.908993 0
M  V30 58 H -0.404716 -3.437526 -1.294228 0
M  V30 59 H 1.119638 -3.472671 -2.237176 0
M  V30 60 H -2.293271 -3.009634 -2.346778 0
M  V30 61 H -0.917790 0.800310 -2.032987 0
M  V30 62 H 3.023397 4.394925 -0.078530 0
M  V30 63 H 1.657412 5.329806 0.527766 0
M  V30 64 H 1.424670 3.946648 -0.646823 0
M  V30 65 H 4.643904 4.786568 2.459572 0
M  V30 66 H 3.408808 5.616286 1.477748 0
M  V30 67 H 3.273341 5.760348 3.235109 0
M  V30 END ATOM
M  V30 BEGIN BOND
M  V30 1 1 1 2
M  V30 2 1 2 3
M  V30 3 2 3 4
M  V30 4 1 4 5
M  V30 5 2 5 6
M  V30 6 1 6 7
M  V30 7 2 7 8
M  V30 8 1 7 9
M  V30 9 2 9 10
M  V30 10 1 9 11
M  V30 11 1 11 12
M  V30 12 2 12 13
M  V30 13 1 12 14
M  V30 14 1 14 15
M  V30 15 2 15 16
M  V30 16 1 16 17
M  V30 17 2 17 18
M  V30 18 1 18 19
M  V30 19 1 19 20
M  V30 20 2 20 21
M  V30 21 1 21 22
M  V30 22 2 22 23
M  V30 23 1 23 24
M  V30 24 2 24 25
M  V30 25 1 25 26
M  V30 26 1 26 27
M  V30 27 1 27 28
M  V30 28 2 26 29
M  V30 29 1 29 30
M  V30 30 1 30 31
M  V30 31 1 29 32
M  V30 32 2 32 33
M  V30 33 1 18 34
M  V30 34 1 34 35
M  V30 35 2 34 36
M  V30 36 2 11 37
M  V30 37 1 37 38
M  V30 38 1 37 39
M  V30 39 1 39 40
M  V30 40 1 8 3
M  V30 41 1 36 15
M  V30 42 1 39 6
M  V30 43 1 33 20
M  V30 44 1 33 24
M  V30 45 1 1 41
M  V30 46 1 1 42
M  V30 47 1 1 43
M  V30 48 1 2 44
M  V30 49 1 2 45
M  V30 50 1 4 46
M  V30 51 1 5 47
M  V30 52 1 8 48
M  V30 53 1 14 49
M  V30 54 1 16 50
M  V30 55 1 17 51
M  V30 56 1 22 52
M  V30 57 1 25 53
M  V30 58 1 28 54
M  V30 59 1 28 55
M  V30 60 1 28 56
M  V30 61 1 31 57
M  V30 62 1 31 58
M  V30 63 1 31 59
M  V30 64 1 32 60
M  V30 65 1 36 61
M  V30 66 1 38 62
M  V30 67 1 38 63
M  V30 68 1 38 64
M  V30 69 1 40 65
M  V30 70 1 40 66
M  V30 71 1 40 67
M  V30 END BOND
M  V30 END CTAB
M  END
>  <Dataset>  (305) 
ChEMBL_Kinases

>  <Ligand_Instance>  (305) 
nan

>  <PDB_ID>  (305) 
nan

>  <Standardized_SMILES>  (305) 
CCc1ccc2c(c1)c(=O)c(C(=O)Nc1ccc(Oc3ncnc4cc(OC)c(OC)cc34)c(F)c1)c(C)n2C

>  <Name>  (305) 
nan

>  <Pocket>  (305) 
nan

>  <ATP_Site>  (305) 
nan

>  <Peripheral>  (305) 
nan

>  <Num_H_Atoms_ProtBoundConf>  (305) 
nan

>  <Num_Resolved_Atoms>  (305) 
nan

>  <Num_Not_Resolved_Atoms>  (305) 
nan

$$$$
CHEMBL4087337
     RDKit          3D

  0  0  0  0  0  0  0  0  0  0999 V3000
M  V30 BEGIN CTAB
M  V30 COUNTS 33 35 0 0 0
M  V30 BEGIN ATOM
M  V30 1 C 2.776679 -5.230746 4.163026 0
M  V30 2 O 3.158809 -4.500651 3.025432 0
M  V30 3 C 2.331633 -3.520027 2.500830 0
M  V30 4 C 1.086554 -3.209617 3.073457 0
M  V30 5 C 0.236195 -2.238841 2.580740 0
M  V30 6 C 0.593024 -1.497956 1.448753 0
M  V30 7 C 1.810172 -1.785812 0.873165 0
M  V30 8 C 2.613357 -2.756406 1.402056 0
M  V30 9 C 1.979657 -0.914504 -0.274461 0
M  V30 10 O 2.948199 -0.832405 -1.095314 0
M  V30 11 C 0.778626 -0.080736 -0.354794 0
M  V30 12 C 0.438283 0.860971 -1.214846 0
M  V30 13 C -0.806869 1.634982 -1.192953 0
M  V30 14 C -1.292808 2.213508 -0.045069 0
M  V30 15 C -2.532919 2.864064 -0.202013 0
M  V30 16 C -3.191088 2.905542 -1.425014 0
M  V30 17 O -4.413704 3.549970 -1.569978 0
M  V30 18 C -2.609726 2.289502 -2.514436 0
M  V30 19 O -3.329272 2.364735 -3.734482 0
M  V30 20 C -1.381965 1.622822 -2.442678 0
M  V30 21 O -0.004960 -0.496787 0.723425 0
M  V30 22 H 3.486192 -6.040103 4.403823 0
M  V30 23 H 2.678685 -4.508500 5.020173 0
M  V30 24 H 1.792952 -5.706090 3.986885 0
M  V30 25 H 0.742106 -3.735826 3.950109 0
M  V30 26 H -0.704832 -2.042920 3.061520 0
M  V30 27 H 3.586158 -2.988395 0.945980 0
M  V30 28 H 1.198711 1.035903 -1.994150 0
M  V30 29 H -0.750176 2.174363 0.886762 0
M  V30 30 H -2.985684 3.347374 0.646377 0
M  V30 31 H -5.223961 3.450840 -1.027134 0
M  V30 32 H -4.032141 1.603715 -3.808729 0
M  V30 33 H -1.034909 1.185957 -3.361354 0
M  V30 END ATOM
M  V30 BEGIN BOND
M  V30 1 1 1 2
M  V30 2 1 2 3
M  V30 3 2 3 4
M  V30 4 1 4 5
M  V30 5 2 5 6
M  V30 6 1 6 7
M  V30 7 2 7 8
M  V30 8 1 7 9
M  V30 9 2 9 10
M  V30 10 1 9 11
M  V30 11 2 11 12
M  V30 12 1 12 13
M  V30 13 2 13 14
M  V30 14 1 14 15
M  V30 15 2 15 16
M  V30 16 1 16 17
M  V30 17 1 16 18
M  V30 18 1 18 19
M  V30 19 2 18 20
M  V30 20 1 11 21
M  V30 21 1 8 3
M  V30 22 1 20 13
M  V30 23 1 21 6
M  V30 24 1 1 22
M  V30 25 1 1 23
M  V30 26 1 1 24
M  V30 27 1 4 25
M  V30 28 1 5 26
M  V30 29 1 8 27
M  V30 30 1 12 28
M  V30 31 1 14 29
M  V30 32 1 15 30
M  V30 33 1 17 31
M  V30 34 1 19 32
M  V30 35 1 20 33
M  V30 END BOND
M  V30 END CTAB
M  END
>  <Dataset>  (306) 
ChEMBL_Kinases

>  <Ligand_Instance>  (306) 
nan

>  <PDB_ID>  (306) 
nan

>  <Standardized_SMILES>  (306) 
COc1ccc2c(c1)C(=O)/C(=C/c1ccc(O)c(O)c1)O2

>  <Name>  (306) 
nan

>  <Pocket>  (306) 
nan

>  <ATP_Site>  (306) 
nan

>  <Peripheral>  (306) 
nan

>  <Num_H_Atoms_ProtBoundConf>  (306) 
nan

>  <Num_Resolved_Atoms>  (306) 
nan

>  <Num_Not_Resolved_Atoms>  (306) 
nan

$$$$
CHEMBL4076448
     RDKit          3D

  0  0  0  0  0  0  0  0  0  0999 V3000
M  V30 BEGIN CTAB
M  V30 COUNTS 26 28 0 0 0
M  V30 BEGIN ATOM
M  V30 1 O -0.606592 -5.554694 2.386330 0
M  V30 2 C -0.917858 -4.736956 1.464175 0
M  V30 3 C -0.163252 -3.482225 1.504035 0
M  V30 4 C 0.780663 -3.233693 2.449908 0
M  V30 5 C 1.535660 -2.084396 2.561758 0
M  V30 6 C 1.282194 -1.104523 1.597866 0
M  V30 7 C 0.329362 -1.324964 0.622405 0
M  V30 8 C 0.160367 -0.212614 -0.331600 0
M  V30 9 C 0.052661 -0.219149 -1.702674 0
M  V30 10 N -0.089973 1.066428 -2.138001 0
M  V30 11 C -0.071140 1.867720 -1.044912 0
M  V30 12 C -0.182163 3.242833 -0.984443 0
M  V30 13 C -0.139178 3.879274 0.238735 0
M  V30 14 C 0.016736 3.057649 1.337122 0
M  V30 15 Cl 0.085986 3.753489 2.956173 0
M  V30 16 N 0.117171 1.732251 1.195562 0
M  V30 17 N 0.080781 1.082460 0.041653 0
M  V30 18 C -0.407029 -2.505961 0.554025 0
M  V30 19 H -1.656834 -4.895685 0.699368 0
M  V30 20 H 0.991164 -3.983104 3.206759 0
M  V30 21 H 2.281521 -1.913044 3.326145 0
M  V30 22 H 1.855419 -0.185884 1.651555 0
M  V30 23 H 0.094338 -1.183227 -2.203080 0
M  V30 24 H -0.303561 3.867470 -1.855679 0
M  V30 25 H -0.214724 4.945777 0.419283 0
M  V30 26 H -1.135759 -2.612160 -0.234324 0
M  V30 END ATOM
M  V30 BEGIN BOND
M  V30 1 2 1 2
M  V30 2 1 2 3
M  V30 3 2 3 4
M  V30 4 1 4 5
M  V30 5 2 5 6
M  V30 6 1 6 7
M  V30 7 1 7 8
M  V30 8 2 8 9
M  V30 9 1 9 10
M  V30 10 2 10 11
M  V30 11 1 11 12
M  V30 12 2 12 13
M  V30 13 1 13 14
M  V30 14 1 14 15
M  V30 15 2 14 16
M  V30 16 1 16 17
M  V30 17 2 7 18
M  V30 18 1 18 3
M  V30 19 1 17 8
M  V30 20 1 17 11
M  V30 21 1 2 19
M  V30 22 1 4 20
M  V30 23 1 5 21
M  V30 24 1 6 22
M  V30 25 1 9 23
M  V30 26 1 12 24
M  V30 27 1 13 25
M  V30 28 1 18 26
M  V30 END BOND
M  V30 END CTAB
M  END
>  <Dataset>  (307) 
ChEMBL_Kinases

>  <Ligand_Instance>  (307) 
nan

>  <PDB_ID>  (307) 
nan

>  <Standardized_SMILES>  (307) 
O=Cc1cccc(-c2cnc3ccc(Cl)nn23)c1

>  <Name>  (307) 
nan

>  <Pocket>  (307) 
nan

>  <ATP_Site>  (307) 
nan

>  <Peripheral>  (307) 
nan

>  <Num_H_Atoms_ProtBoundConf>  (307) 
nan

>  <Num_Resolved_Atoms>  (307) 
nan

>  <Num_Not_Resolved_Atoms>  (307) 
nan

$$$$
CHEMBL408982
     RDKit          3D

  0  0  0  0  0  0  0  0  0  0999 V3000
M  V30 BEGIN CTAB
M  V30 COUNTS 32 33 0 0 0
M  V30 BEGIN ATOM
M  V30 1 C -2.310721 -1.735912 0.928619 0
M  V30 2 C -1.171465 -1.184854 1.785776 0
M  V30 3 N 0.009168 -0.945632 0.965316 0
M  V30 4 C 0.704041 -2.070400 0.446569 0
M  V30 5 C 0.458777 -3.364869 0.558814 0
M  V30 6 C 1.317457 -4.360040 -0.066654 0
M  V30 7 C 0.997951 -5.792667 0.081167 0
M  V30 8 O 2.337392 -4.098689 -0.741041 0
M  V30 9 S 2.106420 -1.451908 -0.479887 0
M  V30 10 C 1.688256 0.276817 -0.177041 0
M  V30 11 C 2.322278 1.393217 -0.611066 0
M  V30 12 C 1.835127 2.609917 -0.260343 0
M  V30 13 C 0.717968 2.675580 0.521041 0
M  V30 14 O 0.221120 3.921207 0.877370 0
M  V30 15 C -0.951609 4.038228 1.695114 0
M  V30 16 C 0.075824 1.545939 0.961227 0
M  V30 17 C 0.560771 0.286434 0.611935 0
M  V30 18 H -1.979437 -2.264212 0.040467 0
M  V30 19 H -2.955257 -2.338370 1.595882 0
M  V30 20 H -2.950332 -0.872136 0.582309 0
M  V30 21 H -1.515289 -0.228030 2.201629 0
M  V30 22 H -0.951669 -1.898130 2.606945 0
M  V30 23 H -0.399176 -3.674872 1.131520 0
M  V30 24 H 0.406253 -5.913291 1.036628 0
M  V30 25 H 0.295126 -6.136791 -0.720481 0
M  V30 26 H 1.869074 -6.457859 0.179214 0
M  V30 27 H 3.208480 1.315691 -1.229981 0
M  V30 28 H 2.301320 3.531968 -0.577014 0
M  V30 29 H -0.767088 3.533956 2.687951 0
M  V30 30 H -1.146347 5.107059 1.914991 0
M  V30 31 H -1.819049 3.514031 1.274488 0
M  V30 32 H -0.817477 1.694318 1.585909 0
M  V30 END ATOM
M  V30 BEGIN BOND
M  V30 1 1 1 2
M  V30 2 1 2 3
M  V30 3 1 3 4
M  V30 4 2 4 5
M  V30 5 1 5 6
M  V30 6 1 6 7
M  V30 7 2 6 8
M  V30 8 1 4 9
M  V30 9 1 9 10
M  V30 10 2 10 11
M  V30 11 1 11 12
M  V30 12 2 12 13
M  V30 13 1 13 14
M  V30 14 1 14 15
M  V30 15 1 13 16
M  V30 16 2 16 17
M  V30 17 1 17 3
M  V30 18 1 17 10
M  V30 19 1 1 18
M  V30 20 1 1 19
M  V30 21 1 1 20
M  V30 22 1 2 21
M  V30 23 1 2 22
M  V30 24 1 5 23
M  V30 25 1 7 24
M  V30 26 1 7 25
M  V30 27 1 7 26
M  V30 28 1 11 27
M  V30 29 1 12 28
M  V30 30 1 15 29
M  V30 31 1 15 30
M  V30 32 1 15 31
M  V30 33 1 16 32
M  V30 END BOND
M  V30 END CTAB
M  END
>  <Dataset>  (308) 
ChEMBL_Kinases

>  <Ligand_Instance>  (308) 
nan

>  <PDB_ID>  (308) 
nan

>  <Standardized_SMILES>  (308) 
CCN1/C(=C/C(C)=O)Sc2ccc(OC)cc21

>  <Name>  (308) 
nan

>  <Pocket>  (308) 
nan

>  <ATP_Site>  (308) 
nan

>  <Peripheral>  (308) 
nan

>  <Num_H_Atoms_ProtBoundConf>  (308) 
nan

>  <Num_Resolved_Atoms>  (308) 
nan

>  <Num_Not_Resolved_Atoms>  (308) 
nan

$$$$
CHEMBL3361128
     RDKit          3D

  0  0  0  0  0  0  0  0  0  0999 V3000
M  V30 BEGIN CTAB
M  V30 COUNTS 29 31 0 0 0
M  V30 BEGIN ATOM
M  V30 1 O 1.480011 -0.849153 0.880596 0
M  V30 2 C 0.457319 -1.512642 1.263055 0
M  V30 3 C -0.936423 -1.113521 1.223068 0
M  V30 4 C -1.398091 0.018700 0.771954 0
M  V30 5 C -0.613588 1.097880 0.215093 0
M  V30 6 C -0.802990 2.337253 0.783167 0
M  V30 7 C -0.086414 3.407731 0.230980 0
M  V30 8 C 0.785072 3.271324 -0.838937 0
M  V30 9 O 1.464181 4.391130 -1.333046 0
M  V30 10 C 0.932826 2.006964 -1.365137 0
M  V30 11 O 1.820035 1.930906 -2.436840 0
M  V30 12 C 0.242115 0.912097 -0.851314 0
M  V30 13 O -1.561828 -2.214859 1.761595 0
M  V30 14 C -0.667631 -3.215670 2.109470 0
M  V30 15 C -0.911859 -4.470221 2.676951 0
M  V30 16 C 0.183164 -5.271301 2.918916 0
M  V30 17 C 1.480395 -4.897106 2.631404 0
M  V30 18 C 1.729555 -3.652403 2.067681 0
M  V30 19 C 0.639579 -2.842808 1.821838 0
M  V30 20 H -2.481537 0.143940 0.826845 0
M  V30 21 H -1.449911 2.558192 1.610797 0
M  V30 22 H -0.221455 4.399146 0.666268 0
M  V30 23 H 2.457513 4.254207 -1.472262 0
M  V30 24 H 1.651705 1.208002 -3.104577 0
M  V30 25 H 0.413373 -0.019382 -1.351544 0
M  V30 26 H -1.915424 -4.801585 2.917000 0
M  V30 27 H -0.009041 -6.252728 3.363491 0
M  V30 28 H 2.320625 -5.570063 2.840795 0
M  V30 29 H 2.721619 -3.306430 1.821387 0
M  V30 END ATOM
M  V30 BEGIN BOND
M  V30 1 2 1 2
M  V30 2 1 2 3
M  V30 3 2 3 4
M  V30 4 1 4 5
M  V30 5 2 5 6
M  V30 6 1 6 7
M  V30 7 2 7 8
M  V30 8 1 8 9
M  V30 9 1 8 10
M  V30 10 1 10 11
M  V30 11 2 10 12
M  V30 12 1 3 13
M  V30 13 1 13 14
M  V30 14 2 14 15
M  V30 15 1 15 16
M  V30 16 2 16 17
M  V30 17 1 17 18
M  V30 18 2 18 19
M  V30 19 1 19 2
M  V30 20 1 12 5
M  V30 21 1 19 14
M  V30 22 1 4 20
M  V30 23 1 6 21
M  V30 24 1 7 22
M  V30 25 1 9 23
M  V30 26 1 11 24
M  V30 27 1 12 25
M  V30 28 1 15 26
M  V30 29 1 16 27
M  V30 30 1 17 28
M  V30 31 1 18 29
M  V30 END BOND
M  V30 END CTAB
M  END
>  <Dataset>  (309) 
ChEMBL_Kinases

>  <Ligand_Instance>  (309) 
nan

>  <PDB_ID>  (309) 
nan

>  <Standardized_SMILES>  (309) 
O=C1/C(=C\c2ccc(O)c(O)c2)Oc2ccccc21

>  <Name>  (309) 
nan

>  <Pocket>  (309) 
nan

>  <ATP_Site>  (309) 
nan

>  <Peripheral>  (309) 
nan

>  <Num_H_Atoms_ProtBoundConf>  (309) 
nan

>  <Num_Resolved_Atoms>  (309) 
nan

>  <Num_Not_Resolved_Atoms>  (309) 
nan

$$$$
CHEMBL4104296
     RDKit          3D

  0  0  0  0  0  0  0  0  0  0999 V3000
M  V30 BEGIN CTAB
M  V30 COUNTS 42 44 0 0 0
M  V30 BEGIN ATOM
M  V30 1 C -0.606416 -4.120812 1.326219 0
M  V30 2 C -1.243138 -2.991774 0.552757 0
M  V30 3 C -0.614290 -2.873578 -0.849290 0 CFG=1
M  V30 4 C -1.261555 -1.755015 -1.583428 0
M  V30 5 O -1.042480 -0.548114 -0.893336 0
M  V30 6 N 0.809454 -2.756909 -0.676930 0
M  V30 7 C 1.729047 -1.761167 -1.187237 0
M  V30 8 C 2.616333 -1.663332 -2.233790 0
M  V30 9 C 3.292908 -0.466491 -2.306782 0
M  V30 10 C 3.086832 0.545106 -1.400408 0
M  V30 11 N 3.618607 1.769874 -1.284210 0
M  V30 12 C 3.088160 2.395238 -0.227407 0
M  V30 13 C 2.181083 1.560214 0.372210 0
M  V30 14 C 1.248989 1.571245 1.524070 0
M  V30 15 C 0.403134 2.604438 1.875879 0
M  V30 16 C -0.425476 2.448781 2.968794 0
M  V30 17 C -0.425880 1.280261 3.718089 0
M  V30 18 C -1.318539 1.075913 4.900799 0
M  V30 19 F -0.603679 0.491736 5.899765 0
M  V30 20 F -1.815744 2.292166 5.250942 0
M  V30 21 F -2.384309 0.276806 4.534895 0
M  V30 22 C 0.393037 0.226870 3.412610 0
M  V30 23 C 1.205938 0.415894 2.318249 0
M  V30 24 N 2.213863 0.420447 -0.392031 0
M  V30 25 N 1.571473 -0.736566 -0.332175 0
M  V30 26 H 0.316616 -3.735258 1.845715 0
M  V30 27 H -0.270083 -4.914236 0.639139 0
M  V30 28 H -1.289303 -4.569048 2.071819 0
M  V30 29 H -2.312657 -3.173995 0.456570 0
M  V30 30 H -1.022749 -2.017942 1.070127 0
M  V30 31 H -0.854403 -3.850481 -1.338524 0
M  V30 32 H -2.375449 -1.885629 -1.577651 0
M  V30 33 H -0.888833 -1.649164 -2.608124 0
M  V30 34 H -1.854355 -0.153545 -0.532137 0
M  V30 35 H 1.210178 -3.517744 -0.092823 0
M  V30 36 H 2.604254 -2.572991 -2.800040 0
M  V30 37 H 3.977475 -0.421592 -3.129218 0
M  V30 38 H 3.224890 3.366202 0.223241 0
M  V30 39 H 0.444151 3.482897 1.264918 0
M  V30 40 H -1.085438 3.240457 3.251101 0
M  V30 41 H 0.446139 -0.714566 3.955659 0
M  V30 42 H 1.877110 -0.407141 2.043687 0
M  V30 END ATOM
M  V30 BEGIN BOND
M  V30 1 1 1 2
M  V30 2 1 2 3
M  V30 3 1 3 4
M  V30 4 1 4 5
M  V30 5 1 3 6
M  V30 6 1 6 7
M  V30 7 1 7 8
M  V30 8 2 8 9
M  V30 9 1 9 10
M  V30 10 2 10 11
M  V30 11 1 11 12
M  V30 12 2 12 13
M  V30 13 1 13 14
M  V30 14 2 14 15
M  V30 15 1 15 16
M  V30 16 2 16 17
M  V30 17 1 17 18
M  V30 18 1 18 19
M  V30 19 1 18 20
M  V30 20 1 18 21
M  V30 21 1 17 22
M  V30 22 2 22 23
M  V30 23 1 13 24
M  V30 24 1 24 25
M  V30 25 2 25 7
M  V30 26 1 24 10
M  V30 27 1 23 14
M  V30 28 1 1 26
M  V30 29 1 1 27
M  V30 30 1 1 28
M  V30 31 1 2 29
M  V30 32 1 2 30
M  V30 33 1 3 31 CFG=3
M  V30 34 1 4 32
M  V30 35 1 4 33
M  V30 36 1 5 34
M  V30 37 1 6 35
M  V30 38 1 8 36
M  V30 39 1 9 37
M  V30 40 1 12 38
M  V30 41 1 15 39
M  V30 42 1 16 40
M  V30 43 1 22 41
M  V30 44 1 23 42
M  V30 END BOND
M  V30 END CTAB
M  END
>  <Dataset>  (310) 
ChEMBL_Kinases

>  <Ligand_Instance>  (310) 
nan

>  <PDB_ID>  (310) 
nan

>  <Standardized_SMILES>  (310) 
CC[C@@H](CO)Nc1ccc2ncc(-c3ccc(C(F)(F)F)cc3)n2n1

>  <Name>  (310) 
nan

>  <Pocket>  (310) 
nan

>  <ATP_Site>  (310) 
nan

>  <Peripheral>  (310) 
nan

>  <Num_H_Atoms_ProtBoundConf>  (310) 
nan

>  <Num_Resolved_Atoms>  (310) 
nan

>  <Num_Not_Resolved_Atoms>  (310) 
nan

$$$$
CHEMBL2381116
     RDKit          3D

  0  0  0  0  0  0  0  0  0  0999 V3000
M  V30 BEGIN CTAB
M  V30 COUNTS 54 58 0 0 0
M  V30 BEGIN ATOM
M  V30 1 C 8.812503 0.186153 0.265092 0
M  V30 2 O 7.733451 1.100861 0.421935 0
M  V30 3 C 6.493701 0.695463 -0.077938 0
M  V30 4 C 6.316733 -0.526710 -0.692451 0
M  V30 5 C 5.081084 -0.897464 -1.175343 0
M  V30 6 C 3.971526 -0.073254 -1.069154 0
M  V30 7 C 4.158546 1.165298 -0.444495 0
M  V30 8 C 5.423939 1.524157 0.040286 0
M  V30 9 C 2.914160 1.928064 -0.401565 0
M  V30 10 O 2.656127 3.048655 0.056039 0
M  V30 11 N 1.983383 1.090840 -1.025963 0
M  V30 12 C 0.538788 1.337597 -1.274417 0
M  V30 13 N -0.396910 1.132549 -0.689974 0
M  V30 14 C -1.667630 1.344358 -0.896209 0
M  V30 15 C -2.823113 1.038210 -0.065919 0
M  V30 16 O -4.018283 1.278185 -0.342212 0
M  V30 17 N -2.648440 0.406523 1.191093 0
M  V30 18 C -3.324593 -0.086743 2.314299 0
M  V30 19 C -3.537467 0.848974 3.334697 0
M  V30 20 N -4.185100 0.438524 4.465119 0
M  V30 21 C -4.597346 -0.857984 4.557195 0
M  V30 22 C -4.416971 -1.822893 3.588335 0
M  V30 23 C -3.759605 -1.389658 2.451064 0
M  V30 24 N -3.534827 -2.330628 1.403305 0
M  V30 25 C -4.053460 -2.256739 0.056611 0
M  V30 26 C -4.831282 -3.488176 -0.248783 0
M  V30 27 N -4.740350 -4.412917 0.851730 0
M  V30 28 C -3.365301 -4.711976 1.196179 0
M  V30 29 C -2.699556 -3.471267 1.722200 0
M  V30 30 C -1.883982 1.967888 -2.129505 0
M  V30 31 S -0.122511 2.150120 -2.814287 0
M  V30 32 C 2.526018 -0.178903 -1.480389 0
M  V30 33 H 9.728204 0.547698 0.757098 0
M  V30 34 H 8.546698 -0.798314 0.722079 0
M  V30 35 H 9.074754 0.044578 -0.813161 0
M  V30 36 H 7.173938 -1.183299 -0.783450 0
M  V30 37 H 4.904821 -1.844348 -1.660968 0
M  V30 38 H 5.564912 2.467535 0.515621 0
M  V30 39 H -1.656051 0.171317 1.496929 0
M  V30 40 H -3.222591 1.882687 3.290504 0
M  V30 41 H -5.110206 -1.104484 5.499301 0
M  V30 42 H -4.777892 -2.827217 3.747754 0
M  V30 43 H -4.708326 -1.352101 -0.060665 0
M  V30 44 H -3.188202 -2.098655 -0.627459 0
M  V30 45 H -5.915118 -3.216351 -0.353839 0
M  V30 46 H -4.452331 -3.946919 -1.197499 0
M  V30 47 H -5.223562 -3.978480 1.668743 0
M  V30 48 H -3.335073 -5.478744 1.975714 0
M  V30 49 H -2.834200 -5.090272 0.291307 0
M  V30 50 H -1.750103 -3.304850 1.151622 0
M  V30 51 H -2.446732 -3.518800 2.780306 0
M  V30 52 H -3.000672 2.292132 -2.592540 0
M  V30 53 H 2.085129 -1.022684 -0.920069 0
M  V30 54 H 2.430332 -0.340988 -2.565206 0
M  V30 END ATOM
M  V30 BEGIN BOND
M  V30 1 1 1 2
M  V30 2 1 2 3
M  V30 3 2 3 4
M  V30 4 1 4 5
M  V30 5 2 5 6
M  V30 6 1 6 7
M  V30 7 2 7 8
M  V30 8 1 7 9
M  V30 9 2 9 10
M  V30 10 1 9 11
M  V30 11 1 11 12
M  V30 12 2 12 13
M  V30 13 1 13 14
M  V30 14 1 14 15
M  V30 15 2 15 16
M  V30 16 1 15 17
M  V30 17 1 17 18
M  V30 18 2 18 19
M  V30 19 1 19 20
M  V30 20 2 20 21
M  V30 21 1 21 22
M  V30 22 2 22 23
M  V30 23 1 23 24
M  V30 24 1 24 25
M  V30 25 1 25 26
M  V30 26 1 26 27
M  V30 27 1 27 28
M  V30 28 1 28 29
M  V30 29 2 14 30
M  V30 30 1 30 31
M  V30 31 1 11 32
M  V30 32 1 8 3
M  V30 33 1 31 12
M  V30 34 1 32 6
M  V30 35 1 23 18
M  V30 36 1 29 24
M  V30 37 1 1 33
M  V30 38 1 1 34
M  V30 39 1 1 35
M  V30 40 1 4 36
M  V30 41 1 5 37
M  V30 42 1 8 38
M  V30 43 1 17 39
M  V30 44 1 19 40
M  V30 45 1 21 41
M  V30 46 1 22 42
M  V30 47 1 25 43
M  V30 48 1 25 44
M  V30 49 1 26 45
M  V30 50 1 26 46
M  V30 51 1 27 47
M  V30 52 1 28 48
M  V30 53 1 28 49
M  V30 54 1 29 50
M  V30 55 1 29 51
M  V30 56 1 30 52
M  V30 57 1 32 53
M  V30 58 1 32 54
M  V30 END BOND
M  V30 END CTAB
M  END
>  <Dataset>  (311) 
ChEMBL_Kinases

>  <Ligand_Instance>  (311) 
nan

>  <PDB_ID>  (311) 
nan

>  <Standardized_SMILES>  (311) 
COc1ccc2c(c1)C(=O)N(c1nc(C(=O)Nc3cnccc3N3CCNCC3)cs1)C2

>  <Name>  (311) 
nan

>  <Pocket>  (311) 
nan

>  <ATP_Site>  (311) 
nan

>  <Peripheral>  (311) 
nan

>  <Num_H_Atoms_ProtBoundConf>  (311) 
nan

>  <Num_Resolved_Atoms>  (311) 
nan

>  <Num_Not_Resolved_Atoms>  (311) 
nan

$$$$
CHEMBL1162963
     RDKit          3D

  0  0  0  0  0  0  0  0  0  0999 V3000
M  V30 BEGIN CTAB
M  V30 COUNTS 68 74 0 0 0
M  V30 BEGIN ATOM
M  V30 1 C 5.132310 -1.241538 2.339589 0
M  V30 2 N 3.687008 -1.442132 2.180610 0
M  V30 3 C 3.234257 -2.747385 2.681777 0
M  V30 4 C 2.772270 -0.489562 1.599704 0
M  V30 5 N 1.925411 -0.251088 2.611268 0
M  V30 6 C 0.917293 0.614986 2.416537 0
M  V30 7 C 0.795323 1.220392 1.186366 0
M  V30 8 C 1.697502 0.932130 0.190566 0
M  V30 9 C 2.739622 0.070126 0.315701 0
M  V30 10 C 3.770857 -0.299808 -0.634189 0
M  V30 11 C 3.438375 -0.431986 -2.060125 0
M  V30 12 C 2.481891 -1.444842 -2.511460 0
M  V30 13 N 1.137993 -1.420336 -2.101110 0
M  V30 14 C 0.592136 -2.351245 -1.308872 0
M  V30 15 C -0.764441 -2.044890 -1.123046 0
M  V30 16 C -1.007862 -0.889668 -1.837001 0
M  V30 17 C -2.107630 -0.088988 -2.062462 0
M  V30 18 C -2.117275 1.051468 -2.835625 0
M  V30 19 C -0.921690 1.418837 -3.432778 0
M  V30 20 C 0.202320 0.635201 -3.226302 0
M  V30 21 C 0.178848 -0.519072 -2.434147 0
M  V30 22 C -1.616860 -2.894613 -0.310020 0
M  V30 23 C -2.430055 -2.665721 0.704968 0
M  V30 24 C -3.056049 -3.913704 1.157798 0
M  V30 25 O -3.877177 -4.049977 2.098368 0
M  V30 26 N -2.564442 -4.987865 0.328031 0
M  V30 27 C -1.671583 -4.349825 -0.581332 0
M  V30 28 O -1.107630 -5.108948 -1.424050 0
M  V30 29 C -2.642759 -1.343609 1.262367 0
M  V30 30 C -1.636066 -0.797827 2.028665 0
M  V30 31 N -2.050272 0.398133 2.427014 0
M  V30 32 C -3.284843 0.658819 1.954368 0
M  V30 33 C -4.222856 1.672232 2.006657 0
M  V30 34 C -5.447055 1.636293 1.391908 0
M  V30 35 C -5.807831 0.526359 0.658315 0
M  V30 36 C -4.889161 -0.499512 0.590255 0
M  V30 37 C -3.676938 -0.433154 1.214150 0
M  V30 38 C -1.329156 1.332170 3.256957 0
M  V30 39 C 0.039861 0.831063 3.586660 0
M  V30 40 H 5.419550 -1.594830 3.367187 0
M  V30 41 H 5.705412 -1.828844 1.620954 0
M  V30 42 H 5.401062 -0.171961 2.313419 0
M  V30 43 H 3.658427 -3.535360 2.026124 0
M  V30 44 H 3.688780 -2.860280 3.684164 0
M  V30 45 H 2.136495 -2.771653 2.737692 0
M  V30 46 H 0.007530 1.922719 0.970926 0
M  V30 47 H 1.648421 1.374522 -0.782460 0
M  V30 48 H 4.591839 0.483692 -0.509729 0
M  V30 49 H 4.307014 -1.215908 -0.225767 0
M  V30 50 H 4.413951 -0.675970 -2.597300 0
M  V30 51 H 3.162991 0.537961 -2.552710 0
M  V30 52 H 2.966874 -2.467877 -2.371038 0
M  V30 53 H 2.466499 -1.375160 -3.649026 0
M  V30 54 H 1.100434 -3.201313 -0.877453 0
M  V30 55 H -3.032972 -0.363922 -1.609958 0
M  V30 56 H -3.028640 1.628209 -2.963801 0
M  V30 57 H -0.863058 2.302921 -4.050723 0
M  V30 58 H 1.109685 0.963772 -3.714685 0
M  V30 59 H -2.865926 -5.965224 0.458971 0
M  V30 60 H -0.679795 -1.232205 2.279190 0
M  V30 61 H -3.953353 2.563867 2.585545 0
M  V30 62 H -6.123992 2.470803 1.481292 0
M  V30 63 H -6.782860 0.545525 0.192935 0
M  V30 64 H -5.167481 -1.372860 0.015776 0
M  V30 65 H -1.289433 2.326206 2.767729 0
M  V30 66 H -1.911688 1.491179 4.185048 0
M  V30 67 H 0.562995 1.618376 4.202565 0
M  V30 68 H 0.020367 -0.068163 4.243824 0
M  V30 END ATOM
M  V30 BEGIN BOND
M  V30 1 1 1 2
M  V30 2 1 2 3
M  V30 3 1 2 4
M  V30 4 2 4 5
M  V30 5 1 5 6
M  V30 6 2 6 7
M  V30 7 1 7 8
M  V30 8 2 8 9
M  V30 9 1 9 10
M  V30 10 1 10 11
M  V30 11 1 11 12
M  V30 12 1 12 13
M  V30 13 1 13 14
M  V30 14 2 14 15
M  V30 15 1 15 16
M  V30 16 2 16 17
M  V30 17 1 17 18
M  V30 18 2 18 19
M  V30 19 1 19 20
M  V30 20 2 20 21
M  V30 21 1 15 22
M  V30 22 2 22 23
M  V30 23 1 23 24
M  V30 24 2 24 25
M  V30 25 1 24 26
M  V30 26 1 26 27
M  V30 27 2 27 28
M  V30 28 1 23 29
M  V30 29 2 29 30
M  V30 30 1 30 31
M  V30 31 1 31 32
M  V30 32 2 32 33
M  V30 33 1 33 34
M  V30 34 2 34 35
M  V30 35 1 35 36
M  V30 36 2 36 37
M  V30 37 1 31 38
M  V30 38 1 38 39
M  V30 39 1 9 4
M  V30 40 1 21 13
M  V30 41 1 27 22
M  V30 42 1 37 29
M  V30 43 1 39 6
M  V30 44 1 21 16
M  V30 45 1 37 32
M  V30 46 1 1 40
M  V30 47 1 1 41
M  V30 48 1 1 42
M  V30 49 1 3 43
M  V30 50 1 3 44
M  V30 51 1 3 45
M  V30 52 1 7 46
M  V30 53 1 8 47
M  V30 54 1 10 48
M  V30 55 1 10 49
M  V30 56 1 11 50
M  V30 57 1 11 51
M  V30 58 1 12 52
M  V30 59 1 12 53
M  V30 60 1 14 54
M  V30 61 1 17 55
M  V30 62 1 18 56
M  V30 63 1 19 57
M  V30 64 1 20 58
M  V30 65 1 26 59
M  V30 66 1 30 60
M  V30 67 1 33 61
M  V30 68 1 34 62
M  V30 69 1 35 63
M  V30 70 1 36 64
M  V30 71 1 38 65
M  V30 72 1 38 66
M  V30 73 1 39 67
M  V30 74 1 39 68
M  V30 END BOND
M  V30 END CTAB
M  END
>  <Dataset>  (312) 
ChEMBL_Kinases

>  <Ligand_Instance>  (312) 
nan

>  <PDB_ID>  (312) 
nan

>  <Standardized_SMILES>  (312) 
CN(C)c1nc2ccc1CCCn1cc(c3ccccc31)C1=C(C(=O)NC1=O)c1cn(c3ccccc13)CC2

>  <Name>  (312) 
nan

>  <Pocket>  (312) 
nan

>  <ATP_Site>  (312) 
nan

>  <Peripheral>  (312) 
nan

>  <Num_H_Atoms_ProtBoundConf>  (312) 
nan

>  <Num_Resolved_Atoms>  (312) 
nan

>  <Num_Not_Resolved_Atoms>  (312) 
nan

$$$$
CHEMBL55394
     RDKit          3D

  0  0  0  0  0  0  0  0  0  0999 V3000
M  V30 BEGIN CTAB
M  V30 COUNTS 66 72 0 0 0
M  V30 BEGIN ATOM
M  V30 1 C 6.405315 0.185546 2.605403 0
M  V30 2 N 5.070038 -0.344848 2.715994 0
M  V30 3 C 4.697746 -1.616668 2.548488 0
M  V30 4 C 3.317410 -1.790933 2.734998 0
M  V30 5 C 2.650242 -3.082484 2.626388 0
M  V30 6 C 1.526245 -3.466186 2.046230 0
M  V30 7 C 0.525754 -2.731272 1.288012 0
M  V30 8 C 0.811576 -1.797730 0.300460 0
M  V30 9 N -0.281642 -1.222296 -0.296084 0
M  V30 10 C -0.277556 -0.238098 -1.343919 0
M  V30 11 C -0.975246 0.988864 -0.943062 0
M  V30 12 C -2.208772 1.434803 -1.610072 0
M  V30 13 N -2.578773 0.770394 -2.783563 0
M  V30 14 C -3.438878 1.446606 -3.678709 0
M  V30 15 C -4.855845 1.672650 -3.318468 0
M  V30 16 C -5.358123 2.422673 -2.161935 0
M  V30 17 C -5.577756 0.920536 -2.262809 0
M  V30 18 C -1.475815 0.182183 -3.467520 0
M  V30 19 C -0.809162 -0.877502 -2.605548 0
M  V30 20 C -1.285077 -1.829389 0.355615 0
M  V30 21 C -2.641878 -1.720844 0.256689 0
M  V30 22 C -3.548865 -2.412610 1.003432 0
M  V30 23 C -3.076862 -3.309756 1.950548 0
M  V30 24 C -1.718094 -3.459982 2.091651 0
M  V30 25 C -0.848993 -2.732283 1.305847 0
M  V30 26 C 1.368903 -4.913629 2.262907 0
M  V30 27 O 0.517638 -5.802598 1.948957 0
M  V30 28 N 2.472525 -5.424812 3.024007 0
M  V30 29 C 3.291534 -4.261368 3.257705 0
M  V30 30 O 4.391173 -4.298655 3.913921 0
M  V30 31 C 2.903318 -0.509578 3.028114 0
M  V30 32 C 1.638494 -0.078527 3.308108 0
M  V30 33 C 1.417399 1.252762 3.584975 0
M  V30 34 C 2.456198 2.176248 3.587387 0
M  V30 35 C 3.741684 1.708386 3.296893 0
M  V30 36 C 3.970135 0.362830 3.015531 0
M  V30 37 H 7.121917 -0.645128 2.447955 0
M  V30 38 H 6.736307 0.654852 3.576492 0
M  V30 39 H 6.530774 0.861502 1.735180 0
M  V30 40 H 5.396604 -2.403599 2.298520 0
M  V30 41 H 1.845147 -1.549039 0.027367 0
M  V30 42 H 0.823042 -0.000202 -1.512640 0
M  V30 43 H -1.141602 1.043541 0.189369 0
M  V30 44 H -0.232070 1.855848 -1.066831 0
M  V30 45 H -2.229405 2.555216 -1.786520 0
M  V30 46 H -3.051020 1.261810 -0.856077 0
M  V30 47 H -3.315719 0.975333 -4.687073 0
M  V30 48 H -2.971187 2.476361 -3.839601 0
M  V30 49 H -5.515782 1.813826 -4.251996 0
M  V30 50 H -4.769408 2.733951 -1.290295 0
M  V30 51 H -6.301176 3.049468 -2.292270 0
M  V30 52 H -6.616769 0.561874 -2.446249 0
M  V30 53 H -5.011484 0.219130 -1.629287 0
M  V30 54 H -1.828242 -0.284827 -4.401932 0
M  V30 55 H -0.699840 0.944319 -3.766068 0
M  V30 56 H 0.048519 -1.266313 -3.177500 0
M  V30 57 H -1.506509 -1.715999 -2.431469 0
M  V30 58 H -3.048875 -1.051744 -0.461882 0
M  V30 59 H -4.626747 -2.332531 0.933326 0
M  V30 60 H -3.750433 -3.896337 2.583277 0
M  V30 61 H -1.376645 -4.142942 2.828304 0
M  V30 62 H 2.736439 -6.369695 3.381707 0
M  V30 63 H 0.808006 -0.739247 3.321772 0
M  V30 64 H 0.394663 1.590512 3.810550 0
M  V30 65 H 2.297260 3.243733 3.809216 0
M  V30 66 H 4.595028 2.379593 3.285321 0
M  V30 END ATOM
M  V30 BEGIN BOND
M  V30 1 1 1 2
M  V30 2 1 2 3
M  V30 3 2 3 4
M  V30 4 1 4 5
M  V30 5 2 5 6
M  V30 6 1 6 7
M  V30 7 2 7 8
M  V30 8 1 8 9
M  V30 9 1 9 10
M  V30 10 1 10 11
M  V30 11 1 11 12
M  V30 12 1 12 13
M  V30 13 1 13 14
M  V30 14 1 14 15
M  V30 15 1 15 16
M  V30 16 1 16 17
M  V30 17 1 13 18
M  V30 18 1 18 19
M  V30 19 1 9 20
M  V30 20 2 20 21
M  V30 21 1 21 22
M  V30 22 2 22 23
M  V30 23 1 23 24
M  V30 24 2 24 25
M  V30 25 1 6 26
M  V30 26 2 26 27
M  V30 27 1 26 28
M  V30 28 1 28 29
M  V30 29 2 29 30
M  V30 30 1 4 31
M  V30 31 2 31 32
M  V30 32 1 32 33
M  V30 33 2 33 34
M  V30 34 1 34 35
M  V30 35 2 35 36
M  V30 36 1 36 2
M  V30 37 1 29 5
M  V30 38 1 36 31
M  V30 39 1 25 7
M  V30 40 1 19 10
M  V30 41 1 25 20
M  V30 42 1 17 15
M  V30 43 1 1 37
M  V30 44 1 1 38
M  V30 45 1 1 39
M  V30 46 1 3 40
M  V30 47 1 8 41
M  V30 48 1 10 42
M  V30 49 1 11 43
M  V30 50 1 11 44
M  V30 51 1 12 45
M  V30 52 1 12 46
M  V30 53 1 14 47
M  V30 54 1 14 48
M  V30 55 1 15 49
M  V30 56 1 16 50
M  V30 57 1 16 51
M  V30 58 1 17 52
M  V30 59 1 17 53
M  V30 60 1 18 54
M  V30 61 1 18 55
M  V30 62 1 19 56
M  V30 63 1 19 57
M  V30 64 1 21 58
M  V30 65 1 22 59
M  V30 66 1 23 60
M  V30 67 1 24 61
M  V30 68 1 28 62
M  V30 69 1 32 63
M  V30 70 1 33 64
M  V30 71 1 34 65
M  V30 72 1 35 66
M  V30 END BOND
M  V30 END CTAB
M  END
>  <Dataset>  (313) 
ChEMBL_Kinases

>  <Ligand_Instance>  (313) 
nan

>  <PDB_ID>  (313) 
nan

>  <Standardized_SMILES>  (313) 
Cn1cc(C2=C(c3cn(C4CCN(CC5CC5)CC4)c4ccccc34)C(=O)NC2=O)c2ccccc21

>  <Name>  (313) 
nan

>  <Pocket>  (313) 
nan

>  <ATP_Site>  (313) 
nan

>  <Peripheral>  (313) 
nan

>  <Num_H_Atoms_ProtBoundConf>  (313) 
nan

>  <Num_Resolved_Atoms>  (313) 
nan

>  <Num_Not_Resolved_Atoms>  (313) 
nan

$$$$
CHEMBL2148120
     RDKit          3D

  0  0  0  0  0  0  0  0  0  0999 V3000
M  V30 BEGIN CTAB
M  V30 COUNTS 67 72 0 0 0
M  V30 BEGIN ATOM
M  V30 1 C 3.247597 3.374951 6.401462 0
M  V30 2 C 3.764596 2.535319 5.310156 0
M  V30 3 N 4.052834 3.011037 4.072913 0
M  V30 4 C 4.533645 2.196753 3.099200 0
M  V30 5 N 4.782044 2.729588 1.826972 0
M  V30 6 C 3.593472 2.274088 1.037347 0
M  V30 7 N 2.647648 1.638795 1.178940 0
M  V30 8 C 1.683012 1.337987 0.343882 0
M  V30 9 C 0.547278 0.551109 0.563291 0
M  V30 10 C -0.317277 0.390434 -0.507964 0
M  V30 11 C -0.161955 0.932525 -1.763554 0
M  V30 12 C -1.070971 0.769135 -2.885386 0
M  V30 13 C -0.799343 1.378367 -4.094557 0
M  V30 14 C -1.624834 1.256755 -5.187196 0
M  V30 15 C -2.774910 0.503554 -5.101547 0
M  V30 16 C -3.088848 -0.124232 -3.915687 0
M  V30 17 C -4.277185 -0.968142 -3.644619 0
M  V30 18 O -4.515100 -1.533623 -2.522977 0
M  V30 19 N -5.290961 -1.247131 -4.602441 0
M  V30 20 C -6.175220 -2.091983 -3.832338 0
M  V30 21 C -7.235249 -1.729395 -3.057271 0
M  V30 22 C -7.948803 -2.722221 -2.390686 0
M  V30 23 C -7.539935 -4.025001 -2.553243 0
M  V30 24 C -6.484676 -4.455791 -3.316635 0
M  V30 25 C -6.096136 -5.863766 -3.449878 0
M  V30 26 F -5.323577 -5.996621 -4.587797 0
M  V30 27 F -5.359566 -6.255549 -2.343881 0
M  V30 28 F -7.193396 -6.694704 -3.606657 0
M  V30 29 C -5.795370 -3.434255 -3.968143 0
M  V30 30 C -2.226061 0.023657 -2.830964 0
M  V30 31 N 0.943413 1.681733 -1.931353 0
M  V30 32 C 1.829366 1.873290 -0.910896 0
M  V30 33 S 3.359048 2.775220 -0.783942 0
M  V30 34 C 4.731566 0.865249 3.375153 0
M  V30 35 C 4.436680 0.395969 4.626235 0
M  V30 36 N 4.614649 -0.970311 4.962986 0
M  V30 37 C 4.062560 -1.542501 6.186934 0
M  V30 38 C 2.877524 -2.375272 5.748690 0
M  V30 39 N 3.144839 -3.117272 4.543990 0
M  V30 40 C 4.529890 -3.255552 4.217035 0
M  V30 41 C 5.324540 -1.990870 4.221014 0
M  V30 42 N 3.957883 1.212815 5.592309 0
M  V30 43 H 3.738506 3.094887 7.381062 0
M  V30 44 H 3.482857 4.448837 6.279574 0
M  V30 45 H 2.164251 3.266842 6.600709 0
M  V30 46 H 5.477560 3.291490 1.315340 0
M  V30 47 H 0.310858 0.065509 1.511639 0
M  V30 48 H -1.189751 -0.219117 -0.325326 0
M  V30 49 H 0.096170 1.998863 -4.253094 0
M  V30 50 H -1.421897 1.727005 -6.139031 0
M  V30 51 H -3.510201 0.330456 -5.902217 0
M  V30 52 H -5.186971 -0.823108 -5.556235 0
M  V30 53 H -7.429385 -0.672595 -3.031669 0
M  V30 54 H -8.782295 -2.404245 -1.785086 0
M  V30 55 H -8.116138 -4.778920 -2.021171 0
M  V30 56 H -4.952735 -3.794375 -4.576257 0
M  V30 57 H -2.462089 -0.472768 -1.875752 0
M  V30 58 H 5.110482 0.247095 2.588343 0
M  V30 59 H 3.727689 -0.675124 6.809598 0
M  V30 60 H 4.810118 -2.093679 6.761964 0
M  V30 61 H 2.521264 -3.010690 6.575197 0
M  V30 62 H 2.046060 -1.676359 5.512757 0
M  V30 63 H 2.770310 -4.087525 4.688869 0
M  V30 64 H 4.578614 -3.673900 3.179078 0
M  V30 65 H 4.972102 -4.075053 4.850117 0
M  V30 66 H 6.265217 -2.201734 4.783691 0
M  V30 67 H 5.625451 -1.626145 3.213776 0
M  V30 END ATOM
M  V30 BEGIN BOND
M  V30 1 1 1 2
M  V30 2 2 2 3
M  V30 3 1 3 4
M  V30 4 1 4 5
M  V30 5 1 5 6
M  V30 6 2 6 7
M  V30 7 1 7 8
M  V30 8 2 8 9
M  V30 9 1 9 10
M  V30 10 2 10 11
M  V30 11 1 11 12
M  V30 12 2 12 13
M  V30 13 1 13 14
M  V30 14 2 14 15
M  V30 15 1 15 16
M  V30 16 1 16 17
M  V30 17 2 17 18
M  V30 18 1 17 19
M  V30 19 1 19 20
M  V30 20 2 20 21
M  V30 21 1 21 22
M  V30 22 2 22 23
M  V30 23 1 23 24
M  V30 24 1 24 25
M  V30 25 1 25 26
M  V30 26 1 25 27
M  V30 27 1 25 28
M  V30 28 2 24 29
M  V30 29 2 16 30
M  V30 30 1 11 31
M  V30 31 2 31 32
M  V30 32 1 32 33
M  V30 33 2 4 34
M  V30 34 1 34 35
M  V30 35 1 35 36
M  V30 36 1 36 37
M  V30 37 1 37 38
M  V30 38 1 38 39
M  V30 39 1 39 40
M  V30 40 1 40 41
M  V30 41 2 35 42
M  V30 42 1 42 2
M  V30 43 1 33 6
M  V30 44 1 41 36
M  V30 45 1 32 8
M  V30 46 1 30 12
M  V30 47 1 29 20
M  V30 48 1 1 43
M  V30 49 1 1 44
M  V30 50 1 1 45
M  V30 51 1 5 46
M  V30 52 1 9 47
M  V30 53 1 10 48
M  V30 54 1 13 49
M  V30 55 1 14 50
M  V30 56 1 15 51
M  V30 57 1 19 52
M  V30 58 1 21 53
M  V30 59 1 22 54
M  V30 60 1 23 55
M  V30 61 1 29 56
M  V30 62 1 30 57
M  V30 63 1 34 58
M  V30 64 1 37 59
M  V30 65 1 37 60
M  V30 66 1 38 61
M  V30 67 1 38 62
M  V30 68 1 39 63
M  V30 69 1 40 64
M  V30 70 1 40 65
M  V30 71 1 41 66
M  V30 72 1 41 67
M  V30 END BOND
M  V30 END CTAB
M  END
>  <Dataset>  (314) 
ChEMBL_Kinases

>  <Ligand_Instance>  (314) 
nan

>  <PDB_ID>  (314) 
nan

>  <Standardized_SMILES>  (314) 
Cc1nc(Nc2nc3ccc(-c4cccc(C(=O)Nc5cccc(C(F)(F)F)c5)c4)nc3s2)cc(N2CCNCC2)n1

>  <Name>  (314) 
nan

>  <Pocket>  (314) 
nan

>  <ATP_Site>  (314) 
nan

>  <Peripheral>  (314) 
nan

>  <Num_H_Atoms_ProtBoundConf>  (314) 
nan

>  <Num_Resolved_Atoms>  (314) 
nan

>  <Num_Not_Resolved_Atoms>  (314) 
nan

$$$$
CHEMBL140
     RDKit          3D

  0  0  0  0  0  0  0  0  0  0999 V3000
M  V30 BEGIN CTAB
M  V30 COUNTS 47 48 0 0 0
M  V30 BEGIN ATOM
M  V30 1 C 1.113610 -6.774757 1.576134 0
M  V30 2 O 1.350704 -7.205337 0.253298 0
M  V30 3 C 1.320603 -6.304411 -0.791520 0
M  V30 4 C 1.058369 -4.969348 -0.558849 0
M  V30 5 C 1.034180 -4.082182 -1.631001 0
M  V30 6 C 0.762028 -2.663717 -1.433378 0
M  V30 7 C 0.708061 -1.726145 -2.336075 0
M  V30 8 C 0.426107 -0.332259 -2.022936 0
M  V30 9 O 0.392063 0.518540 -2.964817 0
M  V30 10 C 0.188011 0.040280 -0.603246 0
M  V30 11 C -0.070115 1.521206 -0.612609 0
M  V30 12 O -0.068637 2.228538 -1.633824 0
M  V30 13 C -0.343197 2.167527 0.690268 0
M  V30 14 C -0.578810 3.446697 0.785770 0
M  V30 15 C -0.861291 4.215311 1.990367 0
M  V30 16 C -1.092200 5.579448 1.934675 0
M  V30 17 C -1.359796 6.303257 3.076154 0
M  V30 18 C -1.397108 5.654852 4.289581 0
M  V30 19 O -1.675583 6.477256 5.379905 0
M  V30 20 C -1.170079 4.295487 4.369810 0
M  V30 21 O -1.245554 3.806302 5.665026 0
M  V30 22 C -1.028734 2.422302 5.856745 0
M  V30 23 C -0.907955 3.604959 3.226080 0
M  V30 24 C 1.277697 -4.597886 -2.883220 0
M  V30 25 C 1.541350 -5.945479 -3.109279 0
M  V30 26 C 1.564915 -6.820056 -2.050524 0
M  V30 27 O 1.824429 -8.168928 -2.241271 0
M  V30 28 H 0.910053 -7.656012 2.219775 0
M  V30 29 H 0.294162 -6.056846 1.680006 0
M  V30 30 H 2.042051 -6.275122 1.931231 0
M  V30 31 H 0.870326 -4.569436 0.406737 0
M  V30 32 H 0.576938 -2.318759 -0.412939 0
M  V30 33 H 0.889134 -2.042419 -3.366414 0
M  V30 34 H -0.726845 -0.449984 -0.205398 0
M  V30 35 H 1.057713 -0.212666 0.034390 0
M  V30 36 H -0.356933 1.601727 1.610786 0
M  V30 37 H -0.556125 3.984025 -0.164420 0
M  V30 38 H -1.050309 6.045823 0.944465 0
M  V30 39 H -1.530131 7.364924 2.957327 0
M  V30 40 H -2.363322 6.189292 6.078556 0
M  V30 41 H -1.522229 1.797484 5.089244 0
M  V30 42 H 0.069442 2.217515 5.772173 0
M  V30 43 H -1.412395 2.061002 6.832689 0
M  V30 44 H -0.740252 2.546645 3.364230 0
M  V30 45 H 1.280584 -3.998127 -3.763023 0
M  V30 46 H 1.731314 -6.332274 -4.106574 0
M  V30 47 H 2.363844 -8.532518 -3.002510 0
M  V30 END ATOM
M  V30 BEGIN BOND
M  V30 1 1 1 2
M  V30 2 1 2 3
M  V30 3 2 3 4
M  V30 4 1 4 5
M  V30 5 1 5 6
M  V30 6 2 6 7
M  V30 7 1 7 8
M  V30 8 2 8 9
M  V30 9 1 8 10
M  V30 10 1 10 11
M  V30 11 2 11 12
M  V30 12 1 11 13
M  V30 13 2 13 14
M  V30 14 1 14 15
M  V30 15 2 15 16
M  V30 16 1 16 17
M  V30 17 2 17 18
M  V30 18 1 18 19
M  V30 19 1 18 20
M  V30 20 1 20 21
M  V30 21 1 21 22
M  V30 22 2 20 23
M  V30 23 2 5 24
M  V30 24 1 24 25
M  V30 25 2 25 26
M  V30 26 1 26 27
M  V30 27 1 26 3
M  V30 28 1 23 15
M  V30 29 1 1 28
M  V30 30 1 1 29
M  V30 31 1 1 30
M  V30 32 1 4 31
M  V30 33 1 6 32
M  V30 34 1 7 33
M  V30 35 1 10 34
M  V30 36 1 10 35
M  V30 37 1 13 36
M  V30 38 1 14 37
M  V30 39 1 16 38
M  V30 40 1 17 39
M  V30 41 1 19 40
M  V30 42 1 22 41
M  V30 43 1 22 42
M  V30 44 1 22 43
M  V30 45 1 23 44
M  V30 46 1 24 45
M  V30 47 1 25 46
M  V30 48 1 27 47
M  V30 END BOND
M  V30 END CTAB
M  END
>  <Dataset>  (315) 
ChEMBL_Kinases

>  <Ligand_Instance>  (315) 
nan

>  <PDB_ID>  (315) 
nan

>  <Standardized_SMILES>  (315) 
COc1cc(/C=C/C(=O)CC(=O)/C=C/c2ccc(O)c(OC)c2)ccc1O

>  <Name>  (315) 
nan

>  <Pocket>  (315) 
nan

>  <ATP_Site>  (315) 
nan

>  <Peripheral>  (315) 
nan

>  <Num_H_Atoms_ProtBoundConf>  (315) 
nan

>  <Num_Resolved_Atoms>  (315) 
nan

>  <Num_Not_Resolved_Atoms>  (315) 
nan

$$$$
CHEMBL4105084
     RDKit          3D

  0  0  0  0  0  0  0  0  0  0999 V3000
M  V30 BEGIN CTAB
M  V30 COUNTS 39 41 0 0 0
M  V30 BEGIN ATOM
M  V30 1 C -1.939309 -4.522200 0.092375 0
M  V30 2 C -0.498453 -4.179271 0.334527 0
M  V30 3 C -0.256856 -2.675440 0.372909 0 CFG=1
M  V30 4 C 1.222709 -2.466331 0.621899 0
M  V30 5 O 1.549268 -3.084381 1.849501 0
M  V30 6 N -0.674986 -2.066942 -0.875967 0
M  V30 7 C -0.562408 -0.667355 -1.113951 0
M  V30 8 C -0.942024 -0.032915 -2.278313 0
M  V30 9 C -0.798654 1.341599 -2.431315 0
M  V30 10 C -0.268691 2.115695 -1.415320 0
M  V30 11 N 0.010028 3.414988 -1.208549 0
M  V30 12 C 0.537702 3.580271 0.025412 0
M  V30 13 C 0.589963 2.333688 0.611360 0
M  V30 14 C 1.086291 1.981716 1.958379 0
M  V30 15 C 2.253942 2.446471 2.527059 0
M  V30 16 C 2.524765 1.982296 3.809218 0
M  V30 17 C 1.700724 1.118284 4.485853 0
M  V30 18 C 0.559754 0.684462 3.889315 0
M  V30 19 Cl -0.478981 -0.419972 4.772938 0
M  V30 20 C 0.237099 1.110949 2.616218 0
M  V30 21 N 0.085291 1.455508 -0.304416 0
M  V30 22 N -0.056702 0.152574 -0.174335 0
M  V30 23 H -2.342364 -3.887636 -0.709830 0
M  V30 24 H -2.479284 -4.359991 1.062236 0
M  V30 25 H -1.965695 -5.607607 -0.173712 0
M  V30 26 H 0.180588 -4.647525 -0.413536 0
M  V30 27 H -0.243294 -4.573734 1.338788 0
M  V30 28 H -0.837589 -2.282877 1.231039 0
M  V30 29 H 1.491705 -1.403539 0.744636 0
M  V30 30 H 1.829335 -2.988682 -0.145655 0
M  V30 31 H 2.193671 -2.531268 2.369199 0
M  V30 32 H -1.088716 -2.612054 -1.690472 0
M  V30 33 H -1.361940 -0.655105 -3.080106 0
M  V30 34 H -1.096896 1.836086 -3.344695 0
M  V30 35 H 0.868186 4.499012 0.498934 0
M  V30 36 H 2.839808 3.113093 1.940772 0
M  V30 37 H 3.435798 2.339454 4.263909 0
M  V30 38 H 1.973880 0.800763 5.476084 0
M  V30 39 H -0.690703 0.717116 2.213722 0
M  V30 END ATOM
M  V30 BEGIN BOND
M  V30 1 1 1 2
M  V30 2 1 2 3
M  V30 3 1 3 4
M  V30 4 1 4 5
M  V30 5 1 3 6
M  V30 6 1 6 7
M  V30 7 1 7 8
M  V30 8 2 8 9
M  V30 9 1 9 10
M  V30 10 2 10 11
M  V30 11 1 11 12
M  V30 12 2 12 13
M  V30 13 1 13 14
M  V30 14 2 14 15
M  V30 15 1 15 16
M  V30 16 2 16 17
M  V30 17 1 17 18
M  V30 18 1 18 19
M  V30 19 2 18 20
M  V30 20 1 13 21
M  V30 21 1 21 22
M  V30 22 2 22 7
M  V30 23 1 21 10
M  V30 24 1 20 14
M  V30 25 1 1 23
M  V30 26 1 1 24
M  V30 27 1 1 25
M  V30 28 1 2 26
M  V30 29 1 2 27
M  V30 30 1 3 28 CFG=1
M  V30 31 1 4 29
M  V30 32 1 4 30
M  V30 33 1 5 31
M  V30 34 1 6 32
M  V30 35 1 8 33
M  V30 36 1 9 34
M  V30 37 1 12 35
M  V30 38 1 15 36
M  V30 39 1 16 37
M  V30 40 1 17 38
M  V30 41 1 20 39
M  V30 END BOND
M  V30 END CTAB
M  END
>  <Dataset>  (316) 
ChEMBL_Kinases

>  <Ligand_Instance>  (316) 
nan

>  <PDB_ID>  (316) 
nan

>  <Standardized_SMILES>  (316) 
CC[C@@H](CO)Nc1ccc2ncc(-c3cccc(Cl)c3)n2n1

>  <Name>  (316) 
nan

>  <Pocket>  (316) 
nan

>  <ATP_Site>  (316) 
nan

>  <Peripheral>  (316) 
nan

>  <Num_H_Atoms_ProtBoundConf>  (316) 
nan

>  <Num_Resolved_Atoms>  (316) 
nan

>  <Num_Not_Resolved_Atoms>  (316) 
nan

$$$$
CHEMBL4579344
     RDKit          3D

  0  0  0  0  0  0  0  0  0  0999 V3000
M  V30 BEGIN CTAB
M  V30 COUNTS 57 59 0 0 0
M  V30 BEGIN ATOM
M  V30 1 C 2.600473 -3.286659 6.352771 0
M  V30 2 C 2.707405 -3.045224 4.891985 0
M  V30 3 C 3.096457 -1.855202 4.314408 0
M  V30 4 C 3.194286 -1.627407 2.937972 0
M  V30 5 C 3.631640 -0.312753 2.472147 0
M  V30 6 C 2.868483 -2.697097 2.130113 0
M  V30 7 C 2.933203 -2.556336 0.654584 0
M  V30 8 N 1.905853 -1.873725 0.009842 0
M  V30 9 C 0.878882 -1.125472 -0.609793 0
M  V30 10 N 0.466281 0.151200 -0.509593 0
M  V30 11 C -0.531858 0.690071 -1.193888 0
M  V30 12 N -0.621727 2.046102 -0.789499 0
M  V30 13 C -1.240396 2.212238 0.507638 0 CFG=1
M  V30 14 C -1.307458 3.670423 0.885259 0
M  V30 15 C -2.586223 1.542406 0.630069 0 CFG=1
M  V30 16 C -3.130788 1.768515 2.021966 0
M  V30 17 O -3.516125 2.029941 -0.282965 0
M  V30 18 N -1.145568 -0.140743 -2.037096 0
M  V30 19 C -0.831550 -1.426197 -2.227336 0
M  V30 20 C 0.226908 -1.979586 -1.494264 0
M  V30 21 N 0.244102 -3.241285 -1.942152 0
M  V30 22 C -0.719689 -3.419151 -2.860318 0
M  V30 23 N -1.416320 -2.293525 -3.063133 0
M  V30 24 C -2.510068 -2.138941 -3.984323 0
M  V30 25 C -3.849024 -2.119071 -3.322107 0
M  V30 26 C -2.371925 -0.858768 -4.800807 0
M  V30 27 C 2.478647 -3.889432 2.700630 0
M  V30 28 N 2.399155 -4.062329 4.032237 0
M  V30 29 H 3.316339 -2.675652 6.948940 0
M  V30 30 H 2.788384 -4.389515 6.510056 0
M  V30 31 H 1.544454 -3.133082 6.726000 0
M  V30 32 H 3.341156 -1.038638 4.982810 0
M  V30 33 H 4.311759 0.106393 3.275244 0
M  V30 34 H 2.838234 0.445066 2.365565 0
M  V30 35 H 4.271083 -0.346310 1.574754 0
M  V30 36 H 2.971904 -3.622233 0.221670 0
M  V30 37 H 3.999246 -2.221648 0.427638 0
M  V30 38 H 2.229129 -1.048352 0.606311 0
M  V30 39 H -0.222535 2.684069 -1.506410 0
M  V30 40 H -0.588006 1.721702 1.293150 0
M  V30 41 H -0.675079 3.920721 1.780296 0
M  V30 42 H -0.895846 4.281247 0.055987 0
M  V30 43 H -2.340331 3.970023 1.140304 0
M  V30 44 H -2.467710 0.436427 0.455771 0
M  V30 45 H -3.982215 2.488317 2.046538 0
M  V30 46 H -3.439616 0.771220 2.433227 0
M  V30 47 H -2.277648 2.098153 2.667436 0
M  V30 48 H -3.647104 2.988491 -0.076633 0
M  V30 49 H -0.920791 -4.366034 -3.386630 0
M  V30 50 H -2.478353 -2.986558 -4.716135 0
M  V30 51 H -3.845140 -2.573341 -2.308553 0
M  V30 52 H -4.567849 -2.751063 -3.926732 0
M  V30 53 H -4.315049 -1.109493 -3.308868 0
M  V30 54 H -1.308058 -0.567513 -4.823834 0
M  V30 55 H -2.976378 -0.046247 -4.359633 0
M  V30 56 H -2.689518 -1.011832 -5.840580 0
M  V30 57 H 2.234493 -4.700067 2.009060 0
M  V30 END ATOM
M  V30 BEGIN BOND
M  V30 1 1 1 2
M  V30 2 2 2 3
M  V30 3 1 3 4
M  V30 4 1 4 5
M  V30 5 2 4 6
M  V30 6 1 6 7
M  V30 7 1 7 8
M  V30 8 1 8 9
M  V30 9 2 9 10
M  V30 10 1 10 11
M  V30 11 1 11 12
M  V30 12 1 12 13
M  V30 13 1 13 14
M  V30 14 1 13 15
M  V30 15 1 15 16
M  V30 16 1 15 17
M  V30 17 2 11 18
M  V30 18 1 18 19
M  V30 19 2 19 20
M  V30 20 1 20 21
M  V30 21 2 21 22
M  V30 22 1 22 23
M  V30 23 1 23 24
M  V30 24 1 24 25
M  V30 25 1 24 26
M  V30 26 1 6 27
M  V30 27 2 27 28
M  V30 28 1 28 2
M  V30 29 1 20 9
M  V30 30 1 23 19
M  V30 31 1 1 29
M  V30 32 1 1 30
M  V30 33 1 1 31
M  V30 34 1 3 32
M  V30 35 1 5 33
M  V30 36 1 5 34
M  V30 37 1 5 35
M  V30 38 1 7 36
M  V30 39 1 7 37
M  V30 40 1 8 38
M  V30 41 1 12 39
M  V30 42 1 13 40 CFG=1
M  V30 43 1 14 41
M  V30 44 1 14 42
M  V30 45 1 14 43
M  V30 46 1 15 44 CFG=3
M  V30 47 1 16 45
M  V30 48 1 16 46
M  V30 49 1 16 47
M  V30 50 1 17 48
M  V30 51 1 22 49
M  V30 52 1 24 50
M  V30 53 1 25 51
M  V30 54 1 25 52
M  V30 55 1 25 53
M  V30 56 1 26 54
M  V30 57 1 26 55
M  V30 58 1 26 56
M  V30 59 1 27 57
M  V30 END BOND
M  V30 END CTAB
M  END
>  <Dataset>  (317) 
ChEMBL_Kinases

>  <Ligand_Instance>  (317) 
nan

>  <PDB_ID>  (317) 
nan

>  <Standardized_SMILES>  (317) 
Cc1cc(C)c(CNc2nc(N[C@@H](C)[C@@H](C)O)nc3c2ncn3C(C)C)cn1

>  <Name>  (317) 
nan

>  <Pocket>  (317) 
nan

>  <ATP_Site>  (317) 
nan

>  <Peripheral>  (317) 
nan

>  <Num_H_Atoms_ProtBoundConf>  (317) 
nan

>  <Num_Resolved_Atoms>  (317) 
nan

>  <Num_Not_Resolved_Atoms>  (317) 
nan

$$$$
CHEMBL340935
     RDKit          3D

  0  0  0  0  0  0  0  0  0  0999 V3000
M  V30 BEGIN CTAB
M  V30 COUNTS 62 67 0 0 0
M  V30 BEGIN ATOM
M  V30 1 O 2.923043 -0.184002 4.441006 0
M  V30 2 C 2.830664 -0.816330 3.326483 0
M  V30 3 N 3.817684 -1.808398 3.063316 0
M  V30 4 C 3.376169 -2.266515 1.763995 0
M  V30 5 O 4.081524 -3.197997 1.223776 0
M  V30 6 C 2.161058 -1.547218 1.300753 0
M  V30 7 C 1.836355 -0.680668 2.234635 0
M  V30 8 C 0.786033 0.309880 2.381244 0
M  V30 9 C -0.567451 0.211153 2.607732 0
M  V30 10 N -1.115070 1.436201 2.671311 0
M  V30 11 C -0.190422 2.378277 2.497666 0
M  V30 12 C -0.377368 3.737903 2.500382 0
M  V30 13 C 0.770673 4.509670 2.295327 0
M  V30 14 C 2.005774 3.880069 2.104873 0
M  V30 15 C 2.114372 2.484569 2.115730 0
M  V30 16 C 0.972338 1.700298 2.319976 0
M  V30 17 C -2.577231 1.296175 2.900383 0
M  V30 18 C -3.043015 0.688254 1.575282 0
M  V30 19 O -4.388665 0.391217 1.533374 0
M  V30 20 C -4.679490 -0.114087 0.231647 0
M  V30 21 C -3.714928 -1.277894 -0.035926 0
M  V30 22 O -3.842986 -2.296269 0.863990 0
M  V30 23 C -2.832885 -3.210253 0.866837 0
M  V30 24 C -2.501004 -3.815290 -0.468310 0
M  V30 25 O -2.133563 -2.814832 -1.328942 0
M  V30 26 C -1.653519 -3.129498 -2.551345 0
M  V30 27 C -0.317613 -3.824584 -2.392547 0
M  V30 28 N 0.632032 -2.960627 -1.693287 0
M  V30 29 C 0.705505 -2.864312 -0.361211 0
M  V30 30 C 1.691300 -1.979462 -0.006585 0
M  V30 31 C 2.224468 -1.534186 -1.221471 0
M  V30 32 C 3.259312 -0.629440 -1.489509 0
M  V30 33 C 3.637328 -0.332061 -2.804118 0
M  V30 34 C 2.907719 -1.001781 -3.789858 0
M  V30 35 N 1.914863 -1.869826 -3.523943 0
M  V30 36 C 1.544823 -2.162388 -2.273735 0
M  V30 37 H 4.612592 -2.113123 3.627938 0
M  V30 38 H -0.879057 -0.817767 2.683325 0
M  V30 39 H -1.350426 4.182039 2.651410 0
M  V30 40 H 0.675819 5.587503 2.288695 0
M  V30 41 H 2.845928 4.530443 1.953103 0
M  V30 42 H 3.089673 2.044014 1.964169 0
M  V30 43 H -3.028874 2.287632 3.047512 0
M  V30 44 H -2.791186 0.651344 3.767946 0
M  V30 45 H -2.516232 -0.328089 1.590614 0
M  V30 46 H -2.673849 1.332485 0.764712 0
M  V30 47 H -4.508955 0.637819 -0.543885 0
M  V30 48 H -5.699469 -0.478175 0.249530 0
M  V30 49 H -4.118386 -1.679100 -1.036493 0
M  V30 50 H -2.688302 -0.948345 -0.154213 0
M  V30 51 H -1.937507 -2.686835 1.292128 0
M  V30 52 H -3.152202 -4.040543 1.548086 0
M  V30 53 H -1.678240 -4.533715 -0.329468 0
M  V30 54 H -3.419894 -4.297813 -0.872803 0
M  V30 55 H -1.626032 -2.279075 -3.261046 0
M  V30 56 H -2.391179 -3.843713 -3.023285 0
M  V30 57 H 0.049692 -4.096820 -3.400654 0
M  V30 58 H -0.470499 -4.764592 -1.856791 0
M  V30 59 H 0.198308 -3.301433 0.479079 0
M  V30 60 H 3.824628 -0.110735 -0.737891 0
M  V30 61 H 4.432174 0.361968 -3.038874 0
M  V30 62 H 3.142470 -0.823363 -4.848069 0
M  V30 END ATOM
M  V30 BEGIN BOND
M  V30 1 2 1 2
M  V30 2 1 2 3
M  V30 3 1 3 4
M  V30 4 2 4 5
M  V30 5 1 4 6
M  V30 6 2 6 7
M  V30 7 1 7 8
M  V30 8 2 8 9
M  V30 9 1 9 10
M  V30 10 1 10 11
M  V30 11 2 11 12
M  V30 12 1 12 13
M  V30 13 2 13 14
M  V30 14 1 14 15
M  V30 15 2 15 16
M  V30 16 1 10 17
M  V30 17 1 17 18
M  V30 18 1 18 19
M  V30 19 1 19 20
M  V30 20 1 20 21
M  V30 21 1 21 22
M  V30 22 1 22 23
M  V30 23 1 23 24
M  V30 24 1 24 25
M  V30 25 1 25 26
M  V30 26 1 26 27
M  V30 27 1 27 28
M  V30 28 1 28 29
M  V30 29 2 29 30
M  V30 30 1 30 31
M  V30 31 2 31 32
M  V30 32 1 32 33
M  V30 33 2 33 34
M  V30 34 1 34 35
M  V30 35 2 35 36
M  V30 36 1 7 2
M  V30 37 1 16 8
M  V30 38 1 36 28
M  V30 39 1 30 6
M  V30 40 1 36 31
M  V30 41 1 16 11
M  V30 42 1 3 37
M  V30 43 1 9 38
M  V30 44 1 12 39
M  V30 45 1 13 40
M  V30 46 1 14 41
M  V30 47 1 15 42
M  V30 48 1 17 43
M  V30 49 1 17 44
M  V30 50 1 18 45
M  V30 51 1 18 46
M  V30 52 1 20 47
M  V30 53 1 20 48
M  V30 54 1 21 49
M  V30 55 1 21 50
M  V30 56 1 23 51
M  V30 57 1 23 52
M  V30 58 1 24 53
M  V30 59 1 24 54
M  V30 60 1 26 55
M  V30 61 1 26 56
M  V30 62 1 27 57
M  V30 63 1 27 58
M  V30 64 1 29 59
M  V30 65 1 32 60
M  V30 66 1 33 61
M  V30 67 1 34 62
M  V30 END BOND
M  V30 END CTAB
M  END
>  <Dataset>  (318) 
ChEMBL_Kinases

>  <Ligand_Instance>  (318) 
nan

>  <PDB_ID>  (318) 
nan

>  <Standardized_SMILES>  (318) 
O=C1NC(=O)C2=C1c1cn(c3ccccc13)CCOCCOCCOCCn1cc2c2cccnc21

>  <Name>  (318) 
INDOLYLYLMALEIMIDE 1

>  <Pocket>  (318) 
nan

>  <ATP_Site>  (318) 
nan

>  <Peripheral>  (318) 
nan

>  <Num_H_Atoms_ProtBoundConf>  (318) 
nan

>  <Num_Resolved_Atoms>  (318) 
nan

>  <Num_Not_Resolved_Atoms>  (318) 
nan

$$$$
CHEMBL3416026
     RDKit          3D

  0  0  0  0  0  0  0  0  0  0999 V3000
M  V30 BEGIN CTAB
M  V30 COUNTS 49 52 0 0 0
M  V30 BEGIN ATOM
M  V30 1 N 2.997476 -5.773450 0.884929 0
M  V30 2 C 1.944018 -4.826145 0.833383 0
M  V30 3 O 1.207821 -5.797573 1.097206 0
M  V30 4 C 2.063750 -3.408895 0.559316 0
M  V30 5 N 3.316511 -3.017210 0.341718 0
M  V30 6 N 3.561629 -1.746934 0.080007 0
M  V30 7 C 2.524400 -0.907779 0.046611 0
M  V30 8 N 2.636687 0.498878 -0.227576 0
M  V30 9 C 1.526361 1.437257 -0.264042 0 CFG=2
M  V30 10 C 2.098423 2.796169 -0.614686 0
M  V30 11 C 1.135133 3.912645 -0.413820 0
M  V30 12 C -0.144604 3.588882 0.253942 0
M  V30 13 C -0.138177 2.461783 1.231166 0
M  V30 14 C 1.056580 1.581549 1.175136 0 CFG=2
M  V30 15 N 2.142559 2.277702 1.867424 0
M  V30 16 N 1.269815 -1.316516 0.267531 0
M  V30 17 C 0.956368 -2.592412 0.538176 0
M  V30 18 N -0.338395 -3.071122 0.777287 0
M  V30 19 C -1.550852 -2.370641 0.779573 0
M  V30 20 C -1.720871 -1.040239 0.538948 0
M  V30 21 C -2.925426 -0.369041 0.547045 0
M  V30 22 C -4.064647 -1.081570 0.818284 0
M  V30 23 C -3.962970 -2.430830 1.070476 0
M  V30 24 C -4.934858 -3.361573 1.364998 0
M  V30 25 C -4.302029 -4.572452 1.528622 0
M  V30 26 N -2.993649 -4.340847 1.331927 0
M  V30 27 C -2.736654 -3.035411 1.046838 0
M  V30 28 H 3.738803 -5.320855 1.492016 0
M  V30 29 H 3.746049 -5.331208 1.490414 0
M  V30 30 H 3.634094 0.816731 -0.409583 0
M  V30 31 H 0.740839 1.174968 -0.970133 0
M  V30 32 H 2.958535 2.939742 0.075279 0
M  V30 33 H 2.562903 2.786032 -1.639849 0
M  V30 34 H 0.893929 4.291877 -1.451106 0
M  V30 35 H 1.645328 4.805233 0.054231 0
M  V30 36 H -0.454628 4.515836 0.821347 0
M  V30 37 H -0.975333 3.471021 -0.496204 0
M  V30 38 H -0.249699 2.822926 2.294965 0
M  V30 39 H -1.048393 1.848469 1.067218 0
M  V30 40 H 0.860019 0.599117 1.611216 0
M  V30 41 H 1.995520 3.311318 1.900280 0
M  V30 42 H 2.265571 1.916728 2.837751 0
M  V30 43 H -0.393671 -4.113115 0.984624 0
M  V30 44 H -0.879493 -0.424992 0.320390 0
M  V30 45 H -3.021821 0.684890 0.351999 0
M  V30 46 H -5.026166 -0.593943 0.834171 0
M  V30 47 H -6.005641 -3.209604 1.459165 0
M  V30 48 H -4.759694 -5.517462 1.766430 0
M  V30 49 H -2.258549 -5.075383 1.390558 0
M  V30 END ATOM
M  V30 BEGIN BOND
M  V30 1 1 1 2
M  V30 2 2 2 3
M  V30 3 1 2 4
M  V30 4 2 4 5
M  V30 5 1 5 6
M  V30 6 2 6 7
M  V30 7 1 7 8
M  V30 8 1 8 9
M  V30 9 1 9 10
M  V30 10 1 10 11
M  V30 11 1 11 12
M  V30 12 1 12 13
M  V30 13 1 13 14
M  V30 14 1 14 15
M  V30 15 1 7 16
M  V30 16 2 16 17
M  V30 17 1 17 18
M  V30 18 1 18 19
M  V30 19 2 19 20
M  V30 20 1 20 21
M  V30 21 2 21 22
M  V30 22 1 22 23
M  V30 23 1 23 24
M  V30 24 2 24 25
M  V30 25 1 25 26
M  V30 26 1 26 27
M  V30 27 1 17 4
M  V30 28 1 27 19
M  V30 29 1 14 9
M  V30 30 2 27 23
M  V30 31 1 1 28
M  V30 32 1 1 29
M  V30 33 1 8 30
M  V30 34 1 9 31 CFG=3
M  V30 35 1 10 32
M  V30 36 1 10 33
M  V30 37 1 11 34
M  V30 38 1 11 35
M  V30 39 1 12 36
M  V30 40 1 12 37
M  V30 41 1 13 38
M  V30 42 1 13 39
M  V30 43 1 14 40 CFG=1
M  V30 44 1 15 41
M  V30 45 1 15 42
M  V30 46 1 18 43
M  V30 47 1 20 44
M  V30 48 1 21 45
M  V30 49 1 22 46
M  V30 50 1 24 47
M  V30 51 1 25 48
M  V30 52 1 26 49
M  V30 END BOND
M  V30 END CTAB
M  END
>  <Dataset>  (319) 
ChEMBL_Kinases

>  <Ligand_Instance>  (319) 
nan

>  <PDB_ID>  (319) 
nan

>  <Standardized_SMILES>  (319) 
NC(=O)c1nnc(N[C@@H]2CCCC[C@@H]2N)nc1Nc1cccc2cc[nH]c12

>  <Name>  (319) 
nan

>  <Pocket>  (319) 
nan

>  <ATP_Site>  (319) 
nan

>  <Peripheral>  (319) 
nan

>  <Num_H_Atoms_ProtBoundConf>  (319) 
nan

>  <Num_Resolved_Atoms>  (319) 
nan

>  <Num_Not_Resolved_Atoms>  (319) 
nan

$$$$
CHEMBL4093231
     RDKit          3D

  0  0  0  0  0  0  0  0  0  0999 V3000
M  V30 BEGIN CTAB
M  V30 COUNTS 41 43 0 0 0
M  V30 BEGIN ATOM
M  V30 1 C -0.117222 -5.784083 1.045139 0
M  V30 2 C 0.329488 -4.350197 1.214746 0
M  V30 3 C 0.640870 -3.656279 -0.085125 0 CFG=1
M  V30 4 C -0.655067 -3.687648 -0.903061 0
M  V30 5 O -0.439943 -2.980824 -2.100917 0
M  V30 6 N 1.027161 -2.307417 0.225332 0
M  V30 7 C 2.252832 -1.627316 -0.021643 0
M  V30 8 O 3.200528 -2.186169 -0.583848 0
M  V30 9 C 2.416048 -0.235588 0.390795 0
M  V30 10 C 3.645265 0.363486 0.114701 0
M  V30 11 C 3.889961 1.690773 0.473195 0
M  V30 12 C 2.926994 2.451712 1.110547 0
M  V30 13 C 1.697420 1.842168 1.383198 0
M  V30 14 C 0.592149 2.558415 2.060960 0
M  V30 15 C 0.558276 3.391175 3.182215 0
M  V30 16 N -0.724343 3.765448 3.348592 0
M  V30 17 C -1.480903 3.203023 2.383730 0
M  V30 18 C -2.860392 3.335100 2.195587 0
M  V30 19 C -3.418086 2.646275 1.112141 0
M  V30 20 C -2.548479 1.904904 0.337512 0
M  V30 21 Cl -3.213597 1.023017 -1.036555 0
M  V30 22 N -1.231045 1.825611 0.580766 0
M  V30 23 N -0.674457 2.473106 1.607826 0
M  V30 24 C 1.476031 0.529383 1.020544 0
M  V30 25 H -0.195634 -6.197069 2.074417 0
M  V30 26 H -1.136003 -5.875310 0.612662 0
M  V30 27 H 0.606070 -6.392989 0.449462 0
M  V30 28 H 1.238499 -4.395030 1.875118 0
M  V30 29 H -0.452717 -3.840715 1.797749 0
M  V30 30 H 1.427653 -4.250718 -0.596497 0
M  V30 31 H -0.932702 -4.732864 -1.071833 0
M  V30 32 H -1.390859 -3.095787 -0.320643 0
M  V30 33 H 0.432794 -2.480855 -2.057491 0
M  V30 34 H 0.210130 -1.860978 0.697931 0
M  V30 35 H 4.453386 -0.151896 -0.378009 0
M  V30 36 H 4.864729 2.148047 0.248163 0
M  V30 37 H 3.068573 3.481112 1.407449 0
M  V30 38 H 1.482808 3.610366 3.725967 0
M  V30 39 H -3.458201 3.949151 2.869775 0
M  V30 40 H -4.489225 2.721603 0.929106 0
M  V30 41 H 0.534045 0.079807 1.235379 0
M  V30 END ATOM
M  V30 BEGIN BOND
M  V30 1 1 1 2
M  V30 2 1 2 3
M  V30 3 1 3 4
M  V30 4 1 4 5
M  V30 5 1 3 6
M  V30 6 1 6 7
M  V30 7 2 7 8
M  V30 8 1 7 9
M  V30 9 2 9 10
M  V30 10 1 10 11
M  V30 11 2 11 12
M  V30 12 1 12 13
M  V30 13 1 13 14
M  V30 14 2 14 15
M  V30 15 1 15 16
M  V30 16 2 16 17
M  V30 17 1 17 18
M  V30 18 2 18 19
M  V30 19 1 19 20
M  V30 20 1 20 21
M  V30 21 2 20 22
M  V30 22 1 22 23
M  V30 23 2 13 24
M  V30 24 1 24 9
M  V30 25 1 23 14
M  V30 26 1 23 17
M  V30 27 1 1 25
M  V30 28 1 1 26
M  V30 29 1 1 27
M  V30 30 1 2 28
M  V30 31 1 2 29
M  V30 32 1 3 30 CFG=3
M  V30 33 1 4 31
M  V30 34 1 4 32
M  V30 35 1 5 33
M  V30 36 1 6 34
M  V30 37 1 10 35
M  V30 38 1 11 36
M  V30 39 1 12 37
M  V30 40 1 15 38
M  V30 41 1 18 39
M  V30 42 1 19 40
M  V30 43 1 24 41
M  V30 END BOND
M  V30 END CTAB
M  END
>  <Dataset>  (320) 
ChEMBL_Kinases

>  <Ligand_Instance>  (320) 
nan

>  <PDB_ID>  (320) 
nan

>  <Standardized_SMILES>  (320) 
CC[C@@H](CO)NC(=O)c1cccc(-c2cnc3ccc(Cl)nn23)c1

>  <Name>  (320) 
nan

>  <Pocket>  (320) 
nan

>  <ATP_Site>  (320) 
nan

>  <Peripheral>  (320) 
nan

>  <Num_H_Atoms_ProtBoundConf>  (320) 
nan

>  <Num_Resolved_Atoms>  (320) 
nan

>  <Num_Not_Resolved_Atoms>  (320) 
nan

$$$$
CHEMBL4077125
     RDKit          3D

  0  0  0  0  0  0  0  0  0  0999 V3000
M  V30 BEGIN CTAB
M  V30 COUNTS 28 30 0 0 0
M  V30 BEGIN ATOM
M  V30 1 C -2.914866 -2.855943 1.021071 0
M  V30 2 O -1.891359 -3.762043 1.379738 0
M  V30 3 C -0.549575 -3.401519 1.423528 0
M  V30 4 C 0.476744 -4.254585 1.767900 0
M  V30 5 C 1.785665 -3.781754 1.777259 0
M  V30 6 C 1.999270 -2.458120 1.435512 0
M  V30 7 N 3.178198 -1.791230 1.377568 0
M  V30 8 C 2.914590 -0.508009 0.996063 0
M  V30 9 C 1.545198 -0.462958 0.837630 0
M  V30 10 C 0.855998 0.756062 0.428411 0
M  V30 11 C -0.509238 0.850363 0.256801 0
M  V30 12 C -1.142943 2.012597 -0.130890 0
M  V30 13 N -0.354323 3.091280 -0.343843 0
M  V30 14 C 0.974016 3.030772 -0.185475 0
M  V30 15 N 1.806368 4.183332 -0.414105 0
M  V30 16 N 1.565507 1.874194 0.196153 0
M  V30 17 N 0.982833 -1.656224 1.106285 0
M  V30 18 N -0.236722 -2.125179 1.105389 0
M  V30 19 H -2.879238 -2.619455 -0.081625 0
M  V30 20 H -3.878890 -3.328218 1.232848 0
M  V30 21 H -2.788182 -1.848379 1.509266 0
M  V30 22 H 0.194776 -5.269036 2.017202 0
M  V30 23 H 2.568930 -4.494249 2.056998 0
M  V30 24 H 3.674584 0.250716 0.868151 0
M  V30 25 H -1.118237 -0.021033 0.431831 0
M  V30 26 H -2.226599 2.047819 -0.256198 0
M  V30 27 H 2.350888 4.588231 -1.215987 0
M  V30 28 H 1.822212 4.699579 0.505133 0
M  V30 END ATOM
M  V30 BEGIN BOND
M  V30 1 1 1 2
M  V30 2 1 2 3
M  V30 3 1 3 4
M  V30 4 2 4 5
M  V30 5 1 5 6
M  V30 6 2 6 7
M  V30 7 1 7 8
M  V30 8 2 8 9
M  V30 9 1 9 10
M  V30 10 2 10 11
M  V30 11 1 11 12
M  V30 12 2 12 13
M  V30 13 1 13 14
M  V30 14 1 14 15
M  V30 15 2 14 16
M  V30 16 1 9 17
M  V30 17 1 17 18
M  V30 18 2 18 3
M  V30 19 1 17 6
M  V30 20 1 16 10
M  V30 21 1 1 19
M  V30 22 1 1 20
M  V30 23 1 1 21
M  V30 24 1 4 22
M  V30 25 1 5 23
M  V30 26 1 8 24
M  V30 27 1 11 25
M  V30 28 1 12 26
M  V30 29 1 15 27
M  V30 30 1 15 28
M  V30 END BOND
M  V30 END CTAB
M  END
>  <Dataset>  (321) 
ChEMBL_Kinases

>  <Ligand_Instance>  (321) 
nan

>  <PDB_ID>  (321) 
nan

>  <Standardized_SMILES>  (321) 
COc1ccc2ncc(-c3ccnc(N)n3)n2n1

>  <Name>  (321) 
nan

>  <Pocket>  (321) 
nan

>  <ATP_Site>  (321) 
nan

>  <Peripheral>  (321) 
nan

>  <Num_H_Atoms_ProtBoundConf>  (321) 
nan

>  <Num_Resolved_Atoms>  (321) 
nan

>  <Num_Not_Resolved_Atoms>  (321) 
nan

$$$$
CHEMBL187139
     RDKit          3D

  0  0  0  0  0  0  0  0  0  0999 V3000
M  V30 BEGIN CTAB
M  V30 COUNTS 45 48 0 0 0
M  V30 BEGIN ATOM
M  V30 1 C -3.603308 -1.799897 0.547121 0
M  V30 2 O -2.935607 -3.018730 0.389474 0
M  V30 3 C -1.669247 -3.193659 -0.133944 0
M  V30 4 C -0.860594 -2.152821 -0.594078 0
M  V30 5 C 0.370355 -2.522982 -1.080312 0
M  V30 6 N 1.275181 -1.552391 -1.565307 0
M  V30 7 C 1.351344 -0.176521 -1.875120 0
M  V30 8 N 1.443553 0.450609 -3.064351 0
M  V30 9 C 1.495472 1.794816 -3.125407 0
M  V30 10 C 1.455670 2.560065 -1.987118 0
M  V30 11 C 1.358182 1.924215 -0.745782 0
M  V30 12 C 1.287103 2.686608 0.516875 0
M  V30 13 C 1.367094 4.047100 0.709745 0
M  V30 14 N 1.224290 4.230081 2.033240 0
M  V30 15 N 1.064348 3.068866 2.643458 0
M  V30 16 N 0.890899 2.852855 3.936727 0
M  V30 17 C 0.734796 1.616854 4.429397 0
M  V30 18 O 0.542404 1.135512 5.711878 0
M  V30 19 C 0.476527 2.028868 6.812710 0
M  V30 20 C 0.754783 0.516649 3.560496 0
M  V30 21 C 0.939550 0.755203 2.190343 0
M  V30 22 C 1.095024 2.045191 1.735519 0
M  V30 23 N 1.314125 0.582209 -0.797546 0
M  V30 24 C 0.840320 -3.814483 -1.140368 0
M  V30 25 C 0.026925 -4.844525 -0.679551 0
M  V30 26 C 0.521640 -6.240432 -0.736683 0
M  V30 27 F 1.460346 -6.301741 -1.764232 0
M  V30 28 F 1.185234 -6.606173 0.401872 0
M  V30 29 F -0.552095 -7.079410 -1.007687 0
M  V30 30 C -1.201952 -4.473830 -0.194493 0
M  V30 31 H -3.526835 -1.233506 -0.397931 0
M  V30 32 H -4.665478 -2.020126 0.840580 0
M  V30 33 H -3.177041 -1.178975 1.365989 0
M  V30 34 H -1.218475 -1.137953 -0.551872 0
M  V30 35 H 2.276157 -1.755481 -1.833704 0
M  V30 36 H 1.568814 2.285203 -4.081219 0
M  V30 37 H 1.491998 3.641598 -1.954029 0
M  V30 38 H 1.518276 4.720626 -0.119924 0
M  V30 39 H -0.180481 1.598729 7.624491 0
M  V30 40 H 1.444884 2.198516 7.311964 0
M  V30 41 H 0.010137 2.980762 6.547196 0
M  V30 42 H 0.645549 -0.540786 3.769310 0
M  V30 43 H 0.967302 -0.035873 1.449174 0
M  V30 44 H 1.819553 -4.080919 -1.531471 0
M  V30 45 H -1.797892 -5.332924 0.154715 0
M  V30 END ATOM
M  V30 BEGIN BOND
M  V30 1 1 1 2
M  V30 2 1 2 3
M  V30 3 2 3 4
M  V30 4 1 4 5
M  V30 5 1 5 6
M  V30 6 1 6 7
M  V30 7 2 7 8
M  V30 8 1 8 9
M  V30 9 2 9 10
M  V30 10 1 10 11
M  V30 11 1 11 12
M  V30 12 1 12 13
M  V30 13 2 13 14
M  V30 14 1 14 15
M  V30 15 1 15 16
M  V30 16 2 16 17
M  V30 17 1 17 18
M  V30 18 1 18 19
M  V30 19 1 17 20
M  V30 20 2 20 21
M  V30 21 1 21 22
M  V30 22 2 11 23
M  V30 23 2 5 24
M  V30 24 1 24 25
M  V30 25 1 25 26
M  V30 26 1 26 27
M  V30 27 1 26 28
M  V30 28 1 26 29
M  V30 29 2 25 30
M  V30 30 1 30 3
M  V30 31 1 23 7
M  V30 32 2 22 12
M  V30 33 1 22 15
M  V30 34 1 1 31
M  V30 35 1 1 32
M  V30 36 1 1 33
M  V30 37 1 4 34
M  V30 38 1 6 35
M  V30 39 1 9 36
M  V30 40 1 10 37
M  V30 41 1 13 38
M  V30 42 1 19 39
M  V30 43 1 19 40
M  V30 44 1 19 41
M  V30 45 1 20 42
M  V30 46 1 21 43
M  V30 47 1 24 44
M  V30 48 1 30 45
M  V30 END BOND
M  V30 END CTAB
M  END
>  <Dataset>  (322) 
ChEMBL_Kinases

>  <Ligand_Instance>  (322) 
nan

>  <PDB_ID>  (322) 
nan

>  <Standardized_SMILES>  (322) 
COc1cc(Nc2nccc(-c3cnn4nc(OC)ccc34)n2)cc(C(F)(F)F)c1

>  <Name>  (322) 
nan

>  <Pocket>  (322) 
nan

>  <ATP_Site>  (322) 
nan

>  <Peripheral>  (322) 
nan

>  <Num_H_Atoms_ProtBoundConf>  (322) 
nan

>  <Num_Resolved_Atoms>  (322) 
nan

>  <Num_Not_Resolved_Atoms>  (322) 
nan

$$$$
CHEMBL2420909
     RDKit          3D

  0  0  0  0  0  0  0  0  0  0999 V3000
M  V30 BEGIN CTAB
M  V30 COUNTS 40 43 0 0 0
M  V30 BEGIN ATOM
M  V30 1 C -2.715928 -0.625640 3.554892 0
M  V30 2 N -1.458921 -0.888481 3.140213 0
M  V30 3 C -0.664813 0.078753 2.621407 0
M  V30 4 N 0.632346 -0.338056 2.226466 0
M  V30 5 C 1.126217 -1.713901 2.351935 0
M  V30 6 C 1.212716 -2.373957 0.990881 0
M  V30 7 C 1.473852 -1.317379 -0.081299 0
M  V30 8 C 2.132931 -1.981430 -1.240591 0
M  V30 9 C 1.061291 -2.697817 -2.070045 0
M  V30 10 C 0.064452 -1.725217 -2.645034 0
M  V30 11 C 0.308734 -0.400391 -1.973496 0
M  V30 12 N 0.284842 -0.658985 -0.526925 0
M  V30 13 C 2.434642 -0.326987 0.577087 0
M  V30 14 C 1.668923 0.448537 1.657125 0
M  V30 15 C -1.189860 1.350715 2.531235 0
M  V30 16 N -0.608921 2.449181 2.063114 0
M  V30 17 C -1.507595 3.470043 2.170811 0
M  V30 18 N -2.630994 2.938660 2.715075 0
M  V30 19 C -2.474191 1.620878 2.954565 0
M  V30 20 N -3.232140 0.632955 3.464417 0
M  V30 21 H -3.307552 -1.449787 3.964870 0
M  V30 22 H 2.071952 -1.758495 2.905022 0
M  V30 23 H 0.369993 -2.294749 2.933067 0
M  V30 24 H 2.094958 -3.041811 1.003690 0
M  V30 25 H 0.307350 -2.981978 0.753542 0
M  V30 26 H 2.732256 -1.293465 -1.868785 0
M  V30 27 H 2.789648 -2.816848 -0.860000 0
M  V30 28 H 1.528447 -3.351770 -2.839256 0
M  V30 29 H 0.507344 -3.332351 -1.339239 0
M  V30 30 H -0.982332 -2.012544 -2.413025 0
M  V30 31 H 0.182513 -1.552301 -3.732019 0
M  V30 32 H 1.251860 0.061620 -2.293594 0
M  V30 33 H -0.517529 0.318385 -2.151403 0
M  V30 34 H 0.282535 0.309419 -0.110692 0
M  V30 35 H 2.809234 0.328434 -0.217783 0
M  V30 36 H 3.235221 -0.938510 1.012847 0
M  V30 37 H 1.395743 1.397989 1.207792 0
M  V30 38 H 2.435521 0.681491 2.441762 0
M  V30 39 H -1.362731 4.505901 1.881405 0
M  V30 40 H -3.538532 3.431446 2.945795 0
M  V30 END ATOM
M  V30 BEGIN BOND
M  V30 1 2 1 2
M  V30 2 1 2 3
M  V30 3 1 3 4
M  V30 4 1 4 5
M  V30 5 1 5 6
M  V30 6 1 6 7
M  V30 7 1 7 8
M  V30 8 1 8 9
M  V30 9 1 9 10
M  V30 10 1 10 11
M  V30 11 1 11 12
M  V30 12 1 7 13
M  V30 13 1 13 14
M  V30 14 2 3 15
M  V30 15 1 15 16
M  V30 16 2 16 17
M  V30 17 1 17 18
M  V30 18 1 18 19
M  V30 19 2 19 20
M  V30 20 1 20 1
M  V30 21 1 14 4
M  V30 22 1 19 15
M  V30 23 1 12 7
M  V30 24 1 1 21
M  V30 25 1 5 22
M  V30 26 1 5 23
M  V30 27 1 6 24
M  V30 28 1 6 25
M  V30 29 1 8 26
M  V30 30 1 8 27
M  V30 31 1 9 28
M  V30 32 1 9 29
M  V30 33 1 10 30
M  V30 34 1 10 31
M  V30 35 1 11 32
M  V30 36 1 11 33
M  V30 37 1 12 34
M  V30 38 1 13 35
M  V30 39 1 13 36
M  V30 40 1 14 37
M  V30 41 1 14 38
M  V30 42 1 17 39
M  V30 43 1 18 40
M  V30 END BOND
M  V30 END CTAB
M  END
>  <Dataset>  (323) 
ChEMBL_Kinases

>  <Ligand_Instance>  (323) 
nan

>  <PDB_ID>  (323) 
nan

>  <Standardized_SMILES>  (323) 
c1nc(N2CCC3(CCCCN3)CC2)c2nc[nH]c2n1

>  <Name>  (323) 
nan

>  <Pocket>  (323) 
nan

>  <ATP_Site>  (323) 
nan

>  <Peripheral>  (323) 
nan

>  <Num_H_Atoms_ProtBoundConf>  (323) 
nan

>  <Num_Resolved_Atoms>  (323) 
nan

>  <Num_Not_Resolved_Atoms>  (323) 
nan

$$$$
CHEMBL1933288
     RDKit          3D

  0  0  0  0  0  0  0  0  0  0999 V3000
M  V30 BEGIN CTAB
M  V30 COUNTS 64 68 0 0 0
M  V30 BEGIN ATOM
M  V30 1 C 4.095696 1.404849 2.321571 0
M  V30 2 C 3.449116 1.911495 1.076358 0 CFG=2
M  V30 3 C 4.464374 2.474682 0.104398 0
M  V30 4 C 5.533799 3.265433 0.821559 0
M  V30 5 N 4.994582 4.591924 1.068529 0
M  V30 6 C 3.693321 4.980152 1.496508 0
M  V30 7 O 3.531635 6.176968 1.911083 0
M  V30 8 C 2.458274 4.205087 1.542877 0
M  V30 9 C 1.192528 4.693482 1.779244 0
M  V30 10 C 0.345508 3.605578 1.729282 0
M  V30 11 C -1.015999 3.440369 1.882063 0
M  V30 12 C -1.646311 2.215808 1.783896 0
M  V30 13 C -0.896528 1.072370 1.518180 0
M  V30 14 C -1.414513 -0.288616 1.385622 0
M  V30 15 O -0.646239 -1.280773 1.140459 0
M  V30 16 N -2.795761 -0.602820 1.518677 0
M  V30 17 C -3.166045 -1.964435 1.365365 0
M  V30 18 N -3.181285 -2.812878 2.414219 0
M  V30 19 C -3.567899 -4.029475 1.997877 0
M  V30 20 C -3.760076 -5.248821 2.611986 0
M  V30 21 C -4.173644 -6.344152 1.896333 0
M  V30 22 C -4.397602 -6.212469 0.542970 0
M  V30 23 C -4.203104 -4.985272 -0.069548 0
M  V30 24 C -3.782175 -3.862204 0.647689 0
M  V30 25 N -3.537678 -2.586642 0.237699 0
M  V30 26 C -3.659511 -2.062501 -1.081921 0
M  V30 27 C -2.382243 -2.171602 -1.898175 0
M  V30 28 C -1.911309 -3.575335 -2.072615 0
M  V30 29 N -0.690654 -3.618138 -2.859418 0
M  V30 30 C -0.305563 -5.012673 -2.978266 0
M  V30 31 C 0.400971 -2.938663 -2.180958 0
M  V30 32 C 0.461620 1.252984 1.368127 0
M  V30 33 C 1.103043 2.470615 1.463799 0
M  V30 34 N 2.382592 2.874825 1.356965 0
M  V30 35 H 4.326347 2.174834 3.078976 0
M  V30 36 H 3.381994 0.705192 2.847494 0
M  V30 37 H 4.982430 0.812782 2.015639 0
M  V30 38 H 3.025098 1.010565 0.555178 0
M  V30 39 H 4.881719 1.718924 -0.573372 0
M  V30 40 H 3.869946 3.183708 -0.543067 0
M  V30 41 H 5.772066 2.820460 1.793863 0
M  V30 42 H 6.467239 3.339581 0.240221 0
M  V30 43 H 5.640117 5.403954 0.916163 0
M  V30 44 H 0.930264 5.723952 1.964930 0
M  V30 45 H -1.611872 4.318682 2.088930 0
M  V30 46 H -2.708093 2.059662 1.898992 0
M  V30 47 H -3.485668 0.162465 1.721597 0
M  V30 48 H -3.570179 -5.304139 3.685078 0
M  V30 49 H -4.293906 -7.248914 2.469913 0
M  V30 50 H -4.721712 -7.098591 0.019026 0
M  V30 51 H -4.401436 -4.968696 -1.133892 0
M  V30 52 H -4.386832 -2.736004 -1.626919 0
M  V30 53 H -4.113299 -1.070585 -1.146607 0
M  V30 54 H -2.513426 -1.739175 -2.911362 0
M  V30 55 H -1.617654 -1.547420 -1.405130 0
M  V30 56 H -2.673594 -4.178977 -2.600666 0
M  V30 57 H -1.661956 -4.083085 -1.120126 0
M  V30 58 H 0.756759 -5.075783 -3.308437 0
M  V30 59 H -0.877055 -5.509742 -3.803888 0
M  V30 60 H -0.392947 -5.566747 -2.031168 0
M  V30 61 H 0.522292 -3.314873 -1.133473 0
M  V30 62 H 0.271119 -1.848761 -2.111260 0
M  V30 63 H 1.337528 -3.162870 -2.713974 0
M  V30 64 H 1.102255 0.395070 1.158622 0
M  V30 END ATOM
M  V30 BEGIN BOND
M  V30 1 1 1 2
M  V30 2 1 2 3
M  V30 3 1 3 4
M  V30 4 1 4 5
M  V30 5 1 5 6
M  V30 6 2 6 7
M  V30 7 1 6 8
M  V30 8 2 8 9
M  V30 9 1 9 10
M  V30 10 2 10 11
M  V30 11 1 11 12
M  V30 12 2 12 13
M  V30 13 1 13 14
M  V30 14 2 14 15
M  V30 15 1 14 16
M  V30 16 1 16 17
M  V30 17 2 17 18
M  V30 18 1 18 19
M  V30 19 2 19 20
M  V30 20 1 20 21
M  V30 21 2 21 22
M  V30 22 1 22 23
M  V30 23 2 23 24
M  V30 24 1 24 25
M  V30 25 1 25 26
M  V30 26 1 26 27
M  V30 27 1 27 28
M  V30 28 1 28 29
M  V30 29 1 29 30
M  V30 30 1 29 31
M  V30 31 1 13 32
M  V30 32 2 32 33
M  V30 33 1 33 34
M  V30 34 1 34 2
M  V30 35 1 34 8
M  V30 36 1 33 10
M  V30 37 1 25 17
M  V30 38 1 24 19
M  V30 39 1 1 35
M  V30 40 1 1 36
M  V30 41 1 1 37
M  V30 42 1 2 38 CFG=3
M  V30 43 1 3 39
M  V30 44 1 3 40
M  V30 45 1 4 41
M  V30 46 1 4 42
M  V30 47 1 5 43
M  V30 48 1 9 44
M  V30 49 1 11 45
M  V30 50 1 12 46
M  V30 51 1 16 47
M  V30 52 1 20 48
M  V30 53 1 21 49
M  V30 54 1 22 50
M  V30 55 1 23 51
M  V30 56 1 26 52
M  V30 57 1 26 53
M  V30 58 1 27 54
M  V30 59 1 27 55
M  V30 60 1 28 56
M  V30 61 1 28 57
M  V30 62 1 30 58
M  V30 63 1 30 59
M  V30 64 1 30 60
M  V30 65 1 31 61
M  V30 66 1 31 62
M  V30 67 1 31 63
M  V30 68 1 32 64
M  V30 END BOND
M  V30 END CTAB
M  END
>  <Dataset>  (324) 
ChEMBL_Kinases

>  <Ligand_Instance>  (324) 
nan

>  <PDB_ID>  (324) 
nan

>  <Standardized_SMILES>  (324) 
C[C@@H]1CCNC(=O)c2cc3ccc(C(=O)Nc4nc5ccccc5n4CCCN(C)C)cc3n21

>  <Name>  (324) 
nan

>  <Pocket>  (324) 
nan

>  <ATP_Site>  (324) 
nan

>  <Peripheral>  (324) 
nan

>  <Num_H_Atoms_ProtBoundConf>  (324) 
nan

>  <Num_Resolved_Atoms>  (324) 
nan

>  <Num_Not_Resolved_Atoms>  (324) 
nan

$$$$
CHEMBL4090770
     RDKit          3D

  0  0  0  0  0  0  0  0  0  0999 V3000
M  V30 BEGIN CTAB
M  V30 COUNTS 43 46 0 0 0
M  V30 BEGIN ATOM
M  V30 1 C -0.324532 -5.473592 0.238857 0
M  V30 2 C 0.718236 -4.467590 0.631171 0
M  V30 3 C 0.865274 -3.343459 -0.345752 0 CFG=1
M  V30 4 C -0.391558 -2.543909 -0.532729 0
M  V30 5 O -0.098519 -1.585987 -1.523990 0
M  V30 6 N 1.939910 -2.457352 0.083902 0
M  V30 7 C 2.233504 -1.240974 -0.592423 0
M  V30 8 C 2.966720 -0.932034 -1.718702 0
M  V30 9 C 3.057634 0.386720 -2.098086 0
M  V30 10 C 2.441770 1.384570 -1.386569 0
M  V30 11 N 2.385200 2.704249 -1.549932 0
M  V30 12 C 1.646680 3.260903 -0.574344 0
M  V30 13 C 1.227551 2.218329 0.231171 0
M  V30 14 C 0.409109 2.117642 1.464946 0
M  V30 15 C 0.680937 3.031548 2.481565 0
M  V30 16 C -0.030536 2.986304 3.668100 0
M  V30 17 C -0.997273 2.009055 3.776834 0
M  V30 18 N -1.849397 1.688354 4.767763 0
M  V30 19 C -2.652560 0.646934 4.484224 0
M  V30 20 C -2.292213 0.254730 3.197699 0
M  V30 21 C -1.273311 1.100740 2.775429 0
M  V30 22 C -0.562981 1.131645 1.567898 0
M  V30 23 N 1.724804 1.047861 -0.278435 0
M  V30 24 N 1.643191 -0.222470 0.077737 0
M  V30 25 H -0.809603 -5.881790 1.175446 0
M  V30 26 H -1.139275 -5.099654 -0.380022 0
M  V30 27 H 0.136055 -6.369173 -0.270490 0
M  V30 28 H 1.685272 -5.029059 0.655747 0
M  V30 29 H 0.425793 -4.063847 1.630856 0
M  V30 30 H 1.105854 -3.770609 -1.354753 0
M  V30 31 H -1.278080 -3.129054 -0.795617 0
M  V30 32 H -0.572049 -1.977948 0.424225 0
M  V30 33 H -0.823350 -0.908783 -1.558669 0
M  V30 34 H 2.566445 -2.636162 0.903199 0
M  V30 35 H 3.382792 -1.836253 -2.153365 0
M  V30 36 H 3.635038 0.555893 -2.972854 0
M  V30 37 H 1.347757 4.267959 -0.324579 0
M  V30 38 H 1.455285 3.777706 2.334482 0
M  V30 39 H 0.140743 3.667108 4.483498 0
M  V30 40 H -1.860392 2.231336 5.677206 0
M  V30 41 H -3.400162 0.243247 5.150209 0
M  V30 42 H -2.745545 -0.572757 2.643766 0
M  V30 43 H -0.745250 0.450243 0.774172 0
M  V30 END ATOM
M  V30 BEGIN BOND
M  V30 1 1 1 2
M  V30 2 1 2 3
M  V30 3 1 3 4
M  V30 4 1 4 5
M  V30 5 1 3 6
M  V30 6 1 6 7
M  V30 7 1 7 8
M  V30 8 2 8 9
M  V30 9 1 9 10
M  V30 10 2 10 11
M  V30 11 1 11 12
M  V30 12 2 12 13
M  V30 13 1 13 14
M  V30 14 2 14 15
M  V30 15 1 15 16
M  V30 16 2 16 17
M  V30 17 1 17 18
M  V30 18 1 18 19
M  V30 19 2 19 20
M  V30 20 1 20 21
M  V30 21 2 21 22
M  V30 22 1 13 23
M  V30 23 1 23 24
M  V30 24 2 24 7
M  V30 25 1 23 10
M  V30 26 1 22 14
M  V30 27 1 21 17
M  V30 28 1 1 25
M  V30 29 1 1 26
M  V30 30 1 1 27
M  V30 31 1 2 28
M  V30 32 1 2 29
M  V30 33 1 3 30 CFG=3
M  V30 34 1 4 31
M  V30 35 1 4 32
M  V30 36 1 5 33
M  V30 37 1 6 34
M  V30 38 1 8 35
M  V30 39 1 9 36
M  V30 40 1 12 37
M  V30 41 1 15 38
M  V30 42 1 16 39
M  V30 43 1 18 40
M  V30 44 1 19 41
M  V30 45 1 20 42
M  V30 46 1 22 43
M  V30 END BOND
M  V30 END CTAB
M  END
>  <Dataset>  (325) 
ChEMBL_Kinases

>  <Ligand_Instance>  (325) 
nan

>  <PDB_ID>  (325) 
nan

>  <Standardized_SMILES>  (325) 
CC[C@@H](CO)Nc1ccc2ncc(-c3ccc4[nH]ccc4c3)n2n1

>  <Name>  (325) 
nan

>  <Pocket>  (325) 
nan

>  <ATP_Site>  (325) 
nan

>  <Peripheral>  (325) 
nan

>  <Num_H_Atoms_ProtBoundConf>  (325) 
nan

>  <Num_Resolved_Atoms>  (325) 
nan

>  <Num_Not_Resolved_Atoms>  (325) 
nan

$$$$
CHEMBL55788
     RDKit          3D

  0  0  0  0  0  0  0  0  0  0999 V3000
M  V30 BEGIN CTAB
M  V30 COUNTS 56 61 0 0 0
M  V30 BEGIN ATOM
M  V30 1 C 3.069242 -1.680333 -0.596562 0
M  V30 2 N 1.840847 -2.444009 -0.491273 0
M  V30 3 C 0.847893 -2.383594 0.409160 0
M  V30 4 C -0.142668 -3.325583 0.111374 0
M  V30 5 C -1.307481 -3.394467 0.979822 0
M  V30 6 C -1.983549 -2.330639 1.459060 0
M  V30 7 C -1.567078 -0.986542 1.109402 0
M  V30 8 C -1.261133 0.051368 1.944399 0
M  V30 9 N -0.937622 1.154669 1.249332 0
M  V30 10 C -0.529334 2.502256 1.636883 0
M  V30 11 C 0.960656 2.688269 1.474797 0
M  V30 12 C 1.676822 2.813202 2.779912 0
M  V30 13 N 1.197676 3.874840 3.606512 0
M  V30 14 C -0.182018 4.169311 3.331277 0
M  V30 15 C -0.873797 2.821710 3.076179 0
M  V30 16 C -1.018211 0.891162 -0.076943 0
M  V30 17 C -0.821393 1.602487 -1.256483 0
M  V30 18 C -0.989764 1.081663 -2.513542 0
M  V30 19 C -1.383775 -0.246957 -2.583537 0
M  V30 20 C -1.583177 -0.968868 -1.433977 0
M  V30 21 C -1.413309 -0.449722 -0.157544 0
M  V30 22 C -3.069982 -2.818079 2.286999 0
M  V30 23 O -3.899185 -2.059125 2.888783 0
M  V30 24 N -3.040832 -4.260460 2.303596 0
M  V30 25 C -1.937030 -4.606826 1.485036 0
M  V30 26 O -1.646436 -5.801581 1.299228 0
M  V30 27 C 0.304547 -3.959860 -1.019949 0
M  V30 28 C -0.351056 -4.978396 -1.694722 0
M  V30 29 C 0.304406 -5.454826 -2.816548 0
M  V30 30 C 1.525782 -4.968018 -3.254844 0
M  V30 31 C 2.106389 -3.953777 -2.522504 0
M  V30 32 C 1.536548 -3.406555 -1.387685 0
M  V30 33 H 2.973700 -0.844293 -1.343014 0
M  V30 34 H 3.311412 -1.239228 0.399715 0
M  V30 35 H 3.917762 -2.319256 -0.933138 0
M  V30 36 H 0.947536 -1.649784 1.202039 0
M  V30 37 H -1.257975 0.062254 3.019830 0
M  V30 38 H -1.021740 3.280671 1.015167 0
M  V30 39 H 1.356833 1.785022 0.974275 0
M  V30 40 H 1.218864 3.564643 0.847704 0
M  V30 41 H 1.712389 1.836971 3.317139 0
M  V30 42 H 2.745810 3.026050 2.531287 0
M  V30 43 H 1.369581 3.749102 4.612834 0
M  V30 44 H -0.192129 4.789471 2.409674 0
M  V30 45 H -0.678262 4.722449 4.149796 0
M  V30 46 H -1.960646 2.900405 3.233388 0
M  V30 47 H -0.469793 2.053060 3.763674 0
M  V30 48 H -0.518705 2.629914 -1.194111 0
M  V30 49 H -0.832030 1.648557 -3.404778 0
M  V30 50 H -1.513065 -0.648093 -3.585798 0
M  V30 51 H -1.894161 -1.967143 -1.609335 0
M  V30 52 H -3.711479 -4.879693 2.823467 0
M  V30 53 H -1.289288 -5.358918 -1.371113 0
M  V30 54 H -0.128404 -6.261396 -3.422495 0
M  V30 55 H 2.038914 -5.335545 -4.127237 0
M  V30 56 H 3.066403 -3.523807 -2.811763 0
M  V30 END ATOM
M  V30 BEGIN BOND
M  V30 1 1 1 2
M  V30 2 1 2 3
M  V30 3 2 3 4
M  V30 4 1 4 5
M  V30 5 2 5 6
M  V30 6 1 6 7
M  V30 7 2 7 8
M  V30 8 1 8 9
M  V30 9 1 9 10
M  V30 10 1 10 11
M  V30 11 1 11 12
M  V30 12 1 12 13
M  V30 13 1 13 14
M  V30 14 1 14 15
M  V30 15 1 9 16
M  V30 16 2 16 17
M  V30 17 1 17 18
M  V30 18 2 18 19
M  V30 19 1 19 20
M  V30 20 2 20 21
M  V30 21 1 6 22
M  V30 22 2 22 23
M  V30 23 1 22 24
M  V30 24 1 24 25
M  V30 25 2 25 26
M  V30 26 1 4 27
M  V30 27 2 27 28
M  V30 28 1 28 29
M  V30 29 2 29 30
M  V30 30 1 30 31
M  V30 31 2 31 32
M  V30 32 1 32 2
M  V30 33 1 25 5
M  V30 34 1 32 27
M  V30 35 1 21 7
M  V30 36 1 15 10
M  V30 37 1 21 16
M  V30 38 1 1 33
M  V30 39 1 1 34
M  V30 40 1 1 35
M  V30 41 1 3 36
M  V30 42 1 8 37
M  V30 43 1 10 38
M  V30 44 1 11 39
M  V30 45 1 11 40
M  V30 46 1 12 41
M  V30 47 1 12 42
M  V30 48 1 13 43
M  V30 49 1 14 44
M  V30 50 1 14 45
M  V30 51 1 15 46
M  V30 52 1 15 47
M  V30 53 1 17 48
M  V30 54 1 18 49
M  V30 55 1 19 50
M  V30 56 1 20 51
M  V30 57 1 24 52
M  V30 58 1 28 53
M  V30 59 1 29 54
M  V30 60 1 30 55
M  V30 61 1 31 56
M  V30 END BOND
M  V30 END CTAB
M  END
>  <Dataset>  (326) 
ChEMBL_Kinases

>  <Ligand_Instance>  (326) 
nan

>  <PDB_ID>  (326) 
nan

>  <Standardized_SMILES>  (326) 
Cn1cc(C2=C(c3cn(C4CCNCC4)c4ccccc34)C(=O)NC2=O)c2ccccc21

>  <Name>  (326) 
nan

>  <Pocket>  (326) 
nan

>  <ATP_Site>  (326) 
nan

>  <Peripheral>  (326) 
nan

>  <Num_H_Atoms_ProtBoundConf>  (326) 
nan

>  <Num_Resolved_Atoms>  (326) 
nan

>  <Num_Not_Resolved_Atoms>  (326) 
nan

$$$$
CHEMBL4786783
     RDKit          3D

  0  0  0  0  0  0  0  0  0  0999 V3000
M  V30 BEGIN CTAB
M  V30 COUNTS 34 36 0 0 0
M  V30 BEGIN ATOM
M  V30 1 C -2.581426 -5.667888 3.809519 0
M  V30 2 C -2.171626 -4.640106 3.328683 0
M  V30 3 C -1.686950 -3.410751 2.766056 0
M  V30 4 N -0.752929 -3.438898 1.824678 0
M  V30 5 C -0.236171 -2.346277 1.237820 0
M  V30 6 N 0.761863 -2.479358 0.238076 0
M  V30 7 C 1.428370 -1.464249 -0.495243 0
M  V30 8 C 2.380291 -1.783516 -1.437269 0
M  V30 9 C 3.050434 -0.832461 -2.170423 0
M  V30 10 C 2.788822 0.507781 -1.986072 0
M  V30 11 C 1.844094 0.881777 -1.054566 0
M  V30 12 C 1.553201 2.325143 -0.846773 0
M  V30 13 C 0.444980 2.672612 -1.804540 0
M  V30 14 N -0.038732 4.016352 -1.817747 0
M  V30 15 O -0.105083 1.869876 -2.611106 0
M  V30 16 C 1.208460 -0.117880 -0.353356 0
M  V30 17 N -0.749020 -1.196447 1.687117 0
M  V30 18 C -1.690649 -1.064523 2.629994 0
M  V30 19 N -2.307785 -0.000859 3.189706 0
M  V30 20 C -3.192012 -0.464805 4.110121 0
M  V30 21 N -3.109046 -1.825929 4.107465 0
M  V30 22 C -2.182168 -2.201227 3.193997 0
M  V30 23 H -2.954121 -6.573590 4.235171 0
M  V30 24 H 1.051930 -3.470918 0.004186 0
M  V30 25 H 2.626851 -2.824914 -1.624212 0
M  V30 26 H 3.789994 -1.141126 -2.898693 0
M  V30 27 H 3.313733 1.258595 -2.560675 0
M  V30 28 H 2.409516 2.948418 -1.113049 0
M  V30 29 H 1.145298 2.512957 0.169081 0
M  V30 30 H -0.069758 4.815074 -2.479176 0
M  V30 31 H -0.467854 4.175937 -0.872203 0
M  V30 32 H 0.489501 0.245139 0.350878 0
M  V30 33 H -2.142923 1.023286 2.962223 0
M  V30 34 H -3.850692 0.149291 4.738571 0
M  V30 END ATOM
M  V30 BEGIN BOND
M  V30 1 3 1 2
M  V30 2 1 2 3
M  V30 3 2 3 4
M  V30 4 1 4 5
M  V30 5 1 5 6
M  V30 6 1 6 7
M  V30 7 2 7 8
M  V30 8 1 8 9
M  V30 9 2 9 10
M  V30 10 1 10 11
M  V30 11 1 11 12
M  V30 12 1 12 13
M  V30 13 1 13 14
M  V30 14 2 13 15
M  V30 15 2 11 16
M  V30 16 2 5 17
M  V30 17 1 17 18
M  V30 18 1 18 19
M  V30 19 1 19 20
M  V30 20 2 20 21
M  V30 21 1 21 22
M  V30 22 1 22 3
M  V30 23 1 16 7
M  V30 24 2 22 18
M  V30 25 1 1 23
M  V30 26 1 6 24
M  V30 27 1 8 25
M  V30 28 1 9 26
M  V30 29 1 10 27
M  V30 30 1 12 28
M  V30 31 1 12 29
M  V30 32 1 14 30
M  V30 33 1 14 31
M  V30 34 1 16 32
M  V30 35 1 19 33
M  V30 36 1 20 34
M  V30 END BOND
M  V30 END CTAB
M  END
>  <Dataset>  (327) 
ChEMBL_Kinases

>  <Ligand_Instance>  (327) 
nan

>  <PDB_ID>  (327) 
nan

>  <Standardized_SMILES>  (327) 
C#Cc1nc(Nc2cccc(CC(N)=O)c2)nc2[nH]cnc12

>  <Name>  (327) 
nan

>  <Pocket>  (327) 
nan

>  <ATP_Site>  (327) 
nan

>  <Peripheral>  (327) 
nan

>  <Num_H_Atoms_ProtBoundConf>  (327) 
nan

>  <Num_Resolved_Atoms>  (327) 
nan

>  <Num_Not_Resolved_Atoms>  (327) 
nan

$$$$
CHEMBL4092824
     RDKit          3D

  0  0  0  0  0  0  0  0  0  0999 V3000
M  V30 BEGIN CTAB
M  V30 COUNTS 50 51 0 0 0
M  V30 BEGIN ATOM
M  V30 1 C 3.089837 -7.177345 -0.290075 0
M  V30 2 C 3.120972 -5.987827 -1.165683 0
M  V30 3 C 2.442364 -4.818744 -0.874936 0
M  V30 4 C 2.466221 -3.704122 -1.686786 0
M  V30 5 C 1.709106 -2.534499 -1.268938 0
M  V30 6 C 1.640118 -1.355954 -1.974408 0
M  V30 7 C 0.889105 -0.260542 -1.514336 0
M  V30 8 C 0.880209 0.965548 -2.350408 0
M  V30 9 F -0.394300 1.221344 -2.789269 0
M  V30 10 F 1.361269 2.060541 -1.671163 0
M  V30 11 C 0.182835 -0.362955 -0.295974 0
M  V30 12 O -0.462124 0.747682 -0.021951 0
M  V30 13 C -1.261585 1.365412 0.867978 0
M  V30 14 C -0.758000 1.627801 2.262892 0 CFG=1
M  V30 15 C -0.265043 0.453326 3.015861 0
M  V30 16 N 0.461121 2.460101 2.029358 0
M  V30 17 C -1.662126 2.532004 2.999808 0
M  V30 18 C -3.048614 2.242722 3.279594 0
M  V30 19 C -4.047582 2.020611 2.227732 0
M  V30 20 C -3.574655 3.410049 4.145604 0
M  V30 21 C 0.299957 -1.569120 0.349222 0
M  V30 22 N 1.025958 -2.605074 -0.110918 0
M  V30 23 C 3.205897 -3.798568 -2.822054 0
M  V30 24 C 3.885302 -4.956788 -3.121626 0
M  V30 25 N 3.831560 -6.029944 -2.290025 0
M  V30 26 H 2.190076 -7.791206 -0.522528 0
M  V30 27 H 4.027149 -7.769862 -0.349937 0
M  V30 28 H 2.988876 -6.832824 0.762642 0
M  V30 29 H 1.879100 -4.858757 0.067209 0
M  V30 30 H 2.198024 -1.314890 -2.909152 0
M  V30 31 H 1.506794 0.780507 -3.239934 0
M  V30 32 H -2.262440 0.844340 1.009540 0
M  V30 33 H -1.612162 2.344173 0.399811 0
M  V30 34 H -0.089476 0.677473 4.104438 0
M  V30 35 H 0.730275 0.103104 2.671527 0
M  V30 36 H -1.024530 -0.382479 3.073207 0
M  V30 37 H 1.018264 2.461298 2.920088 0
M  V30 38 H 1.038861 1.976520 1.303559 0
M  V30 39 H -1.607791 3.532986 2.469984 0
M  V30 40 H -1.152870 2.766680 3.983487 0
M  V30 41 H -3.118578 1.364236 4.001525 0
M  V30 42 H -3.832819 2.596277 1.283651 0
M  V30 43 H -4.367479 0.976583 2.037326 0
M  V30 44 H -5.021676 2.505344 2.557085 0
M  V30 45 H -4.364812 3.072598 4.815125 0
M  V30 46 H -2.742294 3.943296 4.643156 0
M  V30 47 H -4.020271 4.125761 3.423272 0
M  V30 48 H -0.217524 -1.710628 1.258858 0
M  V30 49 H 3.254462 -2.952256 -3.487907 0
M  V30 50 H 4.486565 -5.045371 -4.036266 0
M  V30 END ATOM
M  V30 BEGIN BOND
M  V30 1 1 1 2
M  V30 2 2 2 3
M  V30 3 1 3 4
M  V30 4 1 4 5
M  V30 5 2 5 6
M  V30 6 1 6 7
M  V30 7 1 7 8
M  V30 8 1 8 9
M  V30 9 1 8 10
M  V30 10 2 7 11
M  V30 11 1 11 12
M  V30 12 1 12 13
M  V30 13 1 13 14
M  V30 14 1 14 15
M  V30 15 1 14 16 CFG=3
M  V30 16 1 14 17
M  V30 17 1 17 18
M  V30 18 1 18 19
M  V30 19 1 18 20
M  V30 20 1 11 21
M  V30 21 2 21 22
M  V30 22 2 4 23
M  V30 23 1 23 24
M  V30 24 2 24 25
M  V30 25 1 25 2
M  V30 26 1 22 5
M  V30 27 1 1 26
M  V30 28 1 1 27
M  V30 29 1 1 28
M  V30 30 1 3 29
M  V30 31 1 6 30
M  V30 32 1 8 31
M  V30 33 1 13 32
M  V30 34 1 13 33
M  V30 35 1 15 34
M  V30 36 1 15 35
M  V30 37 1 15 36
M  V30 38 1 16 37
M  V30 39 1 16 38
M  V30 40 1 17 39
M  V30 41 1 17 40
M  V30 42 1 18 41
M  V30 43 1 19 42
M  V30 44 1 19 43
M  V30 45 1 19 44
M  V30 46 1 20 45
M  V30 47 1 20 46
M  V30 48 1 20 47
M  V30 49 1 21 48
M  V30 50 1 23 49
M  V30 51 1 24 50
M  V30 END BOND
M  V30 END CTAB
M  END
>  <Dataset>  (328) 
ChEMBL_Kinases

>  <Ligand_Instance>  (328) 
nan

>  <PDB_ID>  (328) 
nan

>  <Standardized_SMILES>  (328) 
Cc1cc(-c2cc(C(F)F)c(OC[C@@](C)(N)CC(C)C)cn2)ccn1

>  <Name>  (328) 
nan

>  <Pocket>  (328) 
nan

>  <ATP_Site>  (328) 
nan

>  <Peripheral>  (328) 
nan

>  <Num_H_Atoms_ProtBoundConf>  (328) 
nan

>  <Num_Resolved_Atoms>  (328) 
nan

>  <Num_Not_Resolved_Atoms>  (328) 
nan

$$$$
CHEMBL4517408
     RDKit          3D

  0  0  0  0  0  0  0  0  0  0999 V3000
M  V30 BEGIN CTAB
M  V30 COUNTS 60 63 0 0 0
M  V30 BEGIN ATOM
M  V30 1 C 0.737740 -4.832575 4.254133 0
M  V30 2 O 0.854487 -5.825350 3.254324 0
M  V30 3 C 1.155099 -5.450155 1.955131 0
M  V30 4 C 1.325542 -4.103997 1.711430 0
M  V30 5 C 1.626345 -3.657373 0.441542 0
M  V30 6 C 1.841458 -2.297059 -0.030992 0
M  V30 7 C 2.961231 -2.080139 -0.844427 0
M  V30 8 N 3.282556 -0.857144 -1.353450 0
M  V30 9 C 2.490091 0.193767 -1.063819 0
M  V30 10 C 1.362095 0.024423 -0.256193 0
M  V30 11 C 0.573287 1.223724 -0.003894 0
M  V30 12 C 0.309768 1.995040 -1.142454 0
M  V30 13 C -0.418965 3.164664 -1.097271 0
M  V30 14 C -0.931158 3.637909 0.091167 0
M  V30 15 N -1.694949 4.825684 0.255004 0
M  V30 16 C -2.223862 5.388711 1.484669 0
M  V30 17 C -3.710080 5.135295 1.425447 0
M  V30 18 N -4.308288 5.255865 0.150671 0
M  V30 19 C -3.561660 5.888905 -0.886904 0
M  V30 20 C -2.083480 5.698980 -0.848939 0
M  V30 21 C -0.671710 2.878903 1.210979 0
M  V30 22 C 0.055911 1.706268 1.182012 0
M  V30 23 C 1.059991 -1.223868 0.245788 0
M  V30 24 C -0.123913 -1.401308 1.087710 0
M  V30 25 C 1.742720 -4.614901 -0.541041 0
M  V30 26 C 1.573153 -5.976093 -0.307850 0
M  V30 27 O 1.687123 -6.951295 -1.286650 0
M  V30 28 C 1.983216 -6.732808 -2.633707 0
M  V30 29 C 1.272325 -6.406952 0.968503 0
M  V30 30 O 1.086759 -7.720309 1.300101 0
M  V30 31 C -0.100730 -8.448399 1.288374 0
M  V30 32 H 0.006338 -4.082215 3.878658 0
M  V30 33 H 0.353513 -5.349262 5.158731 0
M  V30 34 H 1.692848 -4.293838 4.420850 0
M  V30 35 H 1.246464 -3.321705 2.446939 0
M  V30 36 H 3.669881 -2.852819 -1.143440 0
M  V30 37 H 2.735114 1.183863 -1.465919 0
M  V30 38 H 0.675490 1.697629 -2.125317 0
M  V30 39 H -0.595408 3.719141 -1.983810 0
M  V30 40 H -1.833549 4.890344 2.397394 0
M  V30 41 H -2.064156 6.488278 1.521674 0
M  V30 42 H -4.229402 5.883710 2.095443 0
M  V30 43 H -3.899428 4.165518 1.932024 0
M  V30 44 H -4.598450 4.308767 -0.180748 0
M  V30 45 H -3.966655 5.622644 -1.912743 0
M  V30 46 H -3.782830 6.974567 -0.815346 0
M  V30 47 H -1.613529 6.696224 -0.611344 0
M  V30 48 H -1.735062 5.354947 -1.831004 0
M  V30 49 H -0.988933 3.086825 2.221810 0
M  V30 50 H 0.287126 1.080187 2.026670 0
M  V30 51 H -0.615897 -2.400237 0.966300 0
M  V30 52 H -0.901518 -0.689897 0.680759 0
M  V30 53 H 0.043283 -1.286709 2.154155 0
M  V30 54 H 1.976298 -4.408115 -1.586434 0
M  V30 55 H 1.439239 -5.858485 -3.048287 0
M  V30 56 H 3.089364 -6.604035 -2.726432 0
M  V30 57 H 1.643144 -7.622361 -3.205108 0
M  V30 58 H -0.331660 -8.915742 0.301699 0
M  V30 59 H 0.064995 -9.333488 1.969673 0
M  V30 60 H -0.962047 -7.917116 1.718627 0
M  V30 END ATOM
M  V30 BEGIN BOND
M  V30 1 1 1 2
M  V30 2 1 2 3
M  V30 3 2 3 4
M  V30 4 1 4 5
M  V30 5 1 5 6
M  V30 6 2 6 7
M  V30 7 1 7 8
M  V30 8 2 8 9
M  V30 9 1 9 10
M  V30 10 1 10 11
M  V30 11 2 11 12
M  V30 12 1 12 13
M  V30 13 2 13 14
M  V30 14 1 14 15
M  V30 15 1 15 16
M  V30 16 1 16 17
M  V30 17 1 17 18
M  V30 18 1 18 19
M  V30 19 1 19 20
M  V30 20 1 14 21
M  V30 21 2 21 22
M  V30 22 2 10 23
M  V30 23 1 23 24
M  V30 24 2 5 25
M  V30 25 1 25 26
M  V30 26 1 26 27
M  V30 27 1 27 28
M  V30 28 2 26 29
M  V30 29 1 29 30
M  V30 30 1 30 31
M  V30 31 1 29 3
M  V30 32 1 23 6
M  V30 33 1 22 11
M  V30 34 1 20 15
M  V30 35 1 1 32
M  V30 36 1 1 33
M  V30 37 1 1 34
M  V30 38 1 4 35
M  V30 39 1 7 36
M  V30 40 1 9 37
M  V30 41 1 12 38
M  V30 42 1 13 39
M  V30 43 1 16 40
M  V30 44 1 16 41
M  V30 45 1 17 42
M  V30 46 1 17 43
M  V30 47 1 18 44
M  V30 48 1 19 45
M  V30 49 1 19 46
M  V30 50 1 20 47
M  V30 51 1 20 48
M  V30 52 1 21 49
M  V30 53 1 22 50
M  V30 54 1 24 51
M  V30 55 1 24 52
M  V30 56 1 24 53
M  V30 57 1 25 54
M  V30 58 1 28 55
M  V30 59 1 28 56
M  V30 60 1 28 57
M  V30 61 1 31 58
M  V30 62 1 31 59
M  V30 63 1 31 60
M  V30 END BOND
M  V30 END CTAB
M  END
>  <Dataset>  (329) 
ChEMBL_Kinases

>  <Ligand_Instance>  (329) 
nan

>  <PDB_ID>  (329) 
nan

>  <Standardized_SMILES>  (329) 
COc1cc(-c2cncc(-c3ccc(N4CCNCC4)cc3)c2C)cc(OC)c1OC

>  <Name>  (329) 
nan

>  <Pocket>  (329) 
nan

>  <ATP_Site>  (329) 
nan

>  <Peripheral>  (329) 
nan

>  <Num_H_Atoms_ProtBoundConf>  (329) 
nan

>  <Num_Resolved_Atoms>  (329) 
nan

>  <Num_Not_Resolved_Atoms>  (329) 
nan

$$$$
CHEMBL2333445
     RDKit          3D

  0  0  0  0  0  0  0  0  0  0999 V3000
M  V30 BEGIN CTAB
M  V30 COUNTS 41 44 0 0 0
M  V30 BEGIN ATOM
M  V30 1 C 2.500715 -6.533513 0.203732 0
M  V30 2 C 2.458513 -5.617910 -0.998044 0
M  V30 3 C 1.870240 -4.299000 -0.659479 0
M  V30 4 C 0.487000 -4.154850 -0.799810 0
M  V30 5 C -0.119013 -2.931526 -0.493901 0
M  V30 6 C 0.724844 -1.929344 -0.063041 0
M  V30 7 C 0.062275 -0.665199 0.247908 0
M  V30 8 C -1.081240 -0.233922 -0.428348 0
M  V30 9 C -1.657701 0.972423 -0.083832 0
M  V30 10 C -1.153817 1.790371 0.912771 0
M  V30 11 C -0.028962 1.387072 1.592510 0
M  V30 12 C 0.531495 0.179102 1.233219 0
M  V30 13 C 0.568106 2.169557 2.643741 0
M  V30 14 N 1.660871 1.906326 3.394234 0
M  V30 15 N 1.880647 2.882468 4.258617 0
M  V30 16 C 0.908962 3.825704 4.082876 0
M  V30 17 C 0.114406 3.368049 3.087222 0
M  V30 18 S -1.289011 4.075662 2.378818 0
M  V30 19 O -0.879686 5.388156 1.739993 0
M  V30 20 O -2.352906 4.349188 3.401388 0
M  V30 21 N -1.837813 2.988437 1.160885 0
M  V30 22 C -3.001960 3.357989 0.428736 0
M  V30 23 C 2.083857 -2.025757 0.089175 0
M  V30 24 C 2.671386 -3.256197 -0.221498 0
M  V30 25 H 3.548141 -6.825492 0.468194 0
M  V30 26 H 1.959567 -6.082531 1.066647 0
M  V30 27 H 1.921502 -7.466057 -0.056823 0
M  V30 28 H 1.870446 -6.072977 -1.830985 0
M  V30 29 H 3.514194 -5.516298 -1.370090 0
M  V30 30 H -0.135204 -4.989079 -1.147638 0
M  V30 31 H -1.187641 -2.794540 -0.594210 0
M  V30 32 H -1.492774 -0.846167 -1.203580 0
M  V30 33 H -2.545868 1.261655 -0.640979 0
M  V30 34 H 1.419240 -0.178628 1.742348 0
M  V30 35 H 2.298034 1.073924 3.361141 0
M  V30 36 H 0.902133 4.716762 4.694907 0
M  V30 37 H -2.776016 3.466067 -0.668145 0
M  V30 38 H -3.732229 2.499104 0.463670 0
M  V30 39 H -3.532631 4.224531 0.845182 0
M  V30 40 H 2.658327 -1.177389 0.435026 0
M  V30 41 H 3.742407 -3.382216 -0.117453 0
M  V30 END ATOM
M  V30 BEGIN BOND
M  V30 1 1 1 2
M  V30 2 1 2 3
M  V30 3 2 3 4
M  V30 4 1 4 5
M  V30 5 2 5 6
M  V30 6 1 6 7
M  V30 7 2 7 8
M  V30 8 1 8 9
M  V30 9 2 9 10
M  V30 10 1 10 11
M  V30 11 2 11 12
M  V30 12 1 11 13
M  V30 13 1 13 14
M  V30 14 1 14 15
M  V30 15 2 15 16
M  V30 16 1 16 17
M  V30 17 1 17 18
M  V30 18 2 18 19
M  V30 19 2 18 20
M  V30 20 1 18 21
M  V30 21 1 21 22
M  V30 22 1 6 23
M  V30 23 2 23 24
M  V30 24 1 24 3
M  V30 25 1 12 7
M  V30 26 2 17 13
M  V30 27 1 21 10
M  V30 28 1 1 25
M  V30 29 1 1 26
M  V30 30 1 1 27
M  V30 31 1 2 28
M  V30 32 1 2 29
M  V30 33 1 4 30
M  V30 34 1 5 31
M  V30 35 1 8 32
M  V30 36 1 9 33
M  V30 37 1 12 34
M  V30 38 1 14 35
M  V30 39 1 16 36
M  V30 40 1 22 37
M  V30 41 1 22 38
M  V30 42 1 22 39
M  V30 43 1 23 40
M  V30 44 1 24 41
M  V30 END BOND
M  V30 END CTAB
M  END
>  <Dataset>  (330) 
ChEMBL_Kinases

>  <Ligand_Instance>  (330) 
nan

>  <PDB_ID>  (330) 
nan

>  <Standardized_SMILES>  (330) 
CCc1ccc(-c2ccc3c(c2)-c2[nH]ncc2S(=O)(=O)N3C)cc1

>  <Name>  (330) 
nan

>  <Pocket>  (330) 
nan

>  <ATP_Site>  (330) 
nan

>  <Peripheral>  (330) 
nan

>  <Num_H_Atoms_ProtBoundConf>  (330) 
nan

>  <Num_Resolved_Atoms>  (330) 
nan

>  <Num_Not_Resolved_Atoms>  (330) 
nan

$$$$
CHEMBL4077159
     RDKit          3D

  0  0  0  0  0  0  0  0  0  0999 V3000
M  V30 BEGIN CTAB
M  V30 COUNTS 28 30 0 0 0
M  V30 BEGIN ATOM
M  V30 1 O -2.178318 -3.735008 4.749333 0
M  V30 2 N -1.380607 -3.107620 3.821880 0
M  V30 3 C -0.102612 -2.997979 3.952763 0
M  V30 4 C 0.667990 -2.313421 2.915117 0
M  V30 5 C 2.035370 -2.185288 3.035608 0
M  V30 6 C 2.823243 -1.550472 2.092220 0
M  V30 7 C 2.181037 -1.019707 0.968728 0
M  V30 8 C 0.804552 -1.155381 0.859508 0
M  V30 9 C 0.053505 -0.630100 -0.282105 0
M  V30 10 C -0.937986 -1.277694 -0.990821 0
M  V30 11 N -1.356216 -0.445431 -1.947891 0
M  V30 12 C -0.662650 0.720813 -1.876761 0
M  V30 13 C -0.772165 1.845787 -2.667382 0
M  V30 14 C 0.061302 2.922811 -2.388729 0
M  V30 15 C 0.933066 2.751448 -1.324583 0
M  V30 16 Cl 1.979611 4.109968 -0.978361 0
M  V30 17 N 0.981287 1.629839 -0.603612 0
M  V30 18 N 0.193637 0.581874 -0.848998 0
M  V30 19 C 0.052175 -1.792443 1.816082 0
M  V30 20 H -2.860998 -3.119304 5.209259 0
M  V30 21 H 0.390965 -3.409367 4.822492 0
M  V30 22 H 2.524072 -2.602366 3.914362 0
M  V30 23 H 3.886641 -1.468321 2.217506 0
M  V30 24 H 2.737275 -0.509919 0.191474 0
M  V30 25 H -1.324904 -2.271718 -0.826048 0
M  V30 26 H -1.489980 1.884537 -3.482669 0
M  V30 27 H -0.022688 3.804760 -3.006485 0
M  V30 28 H -1.011000 -1.913286 1.760722 0
M  V30 END ATOM
M  V30 BEGIN BOND
M  V30 1 1 1 2
M  V30 2 2 2 3
M  V30 3 1 3 4
M  V30 4 2 4 5
M  V30 5 1 5 6
M  V30 6 2 6 7
M  V30 7 1 7 8
M  V30 8 1 8 9
M  V30 9 2 9 10
M  V30 10 1 10 11
M  V30 11 2 11 12
M  V30 12 1 12 13
M  V30 13 2 13 14
M  V30 14 1 14 15
M  V30 15 1 15 16
M  V30 16 2 15 17
M  V30 17 1 17 18
M  V30 18 2 8 19
M  V30 19 1 19 4
M  V30 20 1 18 9
M  V30 21 1 18 12
M  V30 22 1 1 20
M  V30 23 1 3 21
M  V30 24 1 5 22
M  V30 25 1 6 23
M  V30 26 1 7 24
M  V30 27 1 10 25
M  V30 28 1 13 26
M  V30 29 1 14 27
M  V30 30 1 19 28
M  V30 END BOND
M  V30 END CTAB
M  END
>  <Dataset>  (331) 
ChEMBL_Kinases

>  <Ligand_Instance>  (331) 
nan

>  <PDB_ID>  (331) 
nan

>  <Standardized_SMILES>  (331) 
O/N=C/c1cccc(-c2cnc3ccc(Cl)nn23)c1

>  <Name>  (331) 
nan

>  <Pocket>  (331) 
nan

>  <ATP_Site>  (331) 
nan

>  <Peripheral>  (331) 
nan

>  <Num_H_Atoms_ProtBoundConf>  (331) 
nan

>  <Num_Resolved_Atoms>  (331) 
nan

>  <Num_Not_Resolved_Atoms>  (331) 
nan

$$$$
CHEMBL3589664
     RDKit          3D

  0  0  0  0  0  0  0  0  0  0999 V3000
M  V30 BEGIN CTAB
M  V30 COUNTS 34 37 0 0 0
M  V30 BEGIN ATOM
M  V30 1 C 2.554687 -5.755226 1.654946 0
M  V30 2 O 2.773998 -4.691996 0.736481 0
M  V30 3 C 1.905929 -3.594606 0.826250 0
M  V30 4 C 0.876798 -3.527170 1.756994 0
M  V30 5 C 0.061262 -2.406564 1.781435 0
M  V30 6 C 0.276072 -1.377336 0.889980 0
M  V30 7 C 1.306116 -1.492980 -0.009408 0
M  V30 8 C 2.157310 -2.574618 -0.093704 0
M  V30 9 N 1.436144 -0.458377 -0.823943 0
M  V30 10 C 0.691825 0.652744 -0.860584 0
M  V30 11 C 1.042778 1.639062 -1.851923 0
M  V30 12 O 0.843213 2.739675 -2.379759 0
M  V30 13 O 2.067477 1.473252 -2.744916 0
M  V30 14 C -0.315845 0.708171 0.057711 0
M  V30 15 C -1.260052 1.659963 0.316311 0
M  V30 16 C -1.536101 2.874405 -0.234268 0
M  V30 17 C -2.568345 3.661710 0.217372 0
M  V30 18 C -3.364131 3.208046 1.274822 0
M  V30 19 C -3.095492 1.982028 1.840131 0
M  V30 20 F -3.840015 1.504202 2.865144 0
M  V30 21 C -2.050980 1.227434 1.354992 0
M  V30 22 N -1.613727 0.019634 1.747839 0
M  V30 23 C -0.568949 -0.293736 0.967127 0
M  V30 24 H 3.217892 -6.608248 1.452933 0
M  V30 25 H 2.684899 -5.317190 2.665238 0
M  V30 26 H 1.497056 -6.061268 1.587161 0
M  V30 27 H 0.739813 -4.361121 2.444165 0
M  V30 28 H -0.728304 -2.413497 2.534722 0
M  V30 29 H 2.931260 -2.585081 -0.820569 0
M  V30 30 H 1.971364 1.478086 -3.734580 0
M  V30 31 H -1.056824 3.364268 -1.016528 0
M  V30 32 H -2.888307 4.637534 -0.131994 0
M  V30 33 H -4.189936 3.764527 1.685217 0
M  V30 34 H -1.960491 -0.619210 2.503448 0
M  V30 END ATOM
M  V30 BEGIN BOND
M  V30 1 1 1 2
M  V30 2 1 2 3
M  V30 3 2 3 4
M  V30 4 1 4 5
M  V30 5 2 5 6
M  V30 6 1 6 7
M  V30 7 2 7 8
M  V30 8 1 7 9
M  V30 9 2 9 10
M  V30 10 1 10 11
M  V30 11 2 11 12
M  V30 12 1 11 13
M  V30 13 1 10 14
M  V30 14 1 14 15
M  V30 15 2 15 16
M  V30 16 1 16 17
M  V30 17 2 17 18
M  V30 18 1 18 19
M  V30 19 1 19 20
M  V30 20 2 19 21
M  V30 21 1 21 22
M  V30 22 1 22 23
M  V30 23 1 8 3
M  V30 24 2 23 14
M  V30 25 1 23 6
M  V30 26 1 21 15
M  V30 27 1 1 24
M  V30 28 1 1 25
M  V30 29 1 1 26
M  V30 30 1 4 27
M  V30 31 1 5 28
M  V30 32 1 8 29
M  V30 33 1 13 30
M  V30 34 1 16 31
M  V30 35 1 17 32
M  V30 36 1 18 33
M  V30 37 1 22 34
M  V30 END BOND
M  V30 END CTAB
M  END
>  <Dataset>  (332) 
ChEMBL_Kinases

>  <Ligand_Instance>  (332) 
nan

>  <PDB_ID>  (332) 
nan

>  <Standardized_SMILES>  (332) 
COc1ccc2c(c1)nc(C(=O)O)c1c3cccc(F)c3[nH]c21

>  <Name>  (332) 
nan

>  <Pocket>  (332) 
nan

>  <ATP_Site>  (332) 
nan

>  <Peripheral>  (332) 
nan

>  <Num_H_Atoms_ProtBoundConf>  (332) 
nan

>  <Num_Resolved_Atoms>  (332) 
nan

>  <Num_Not_Resolved_Atoms>  (332) 
nan

$$$$
CHEMBL4064988
     RDKit          3D

  0  0  0  0  0  0  0  0  0  0999 V3000
M  V30 BEGIN CTAB
M  V30 COUNTS 54 58 0 0 0
M  V30 BEGIN ATOM
M  V30 1 Cl 4.917794 -6.132691 0.032675 0
M  V30 2 C 4.665354 -4.399971 0.187663 0
M  V30 3 C 5.121486 -3.794544 1.339376 0
M  V30 4 C 4.926382 -2.433129 1.467694 0
M  V30 5 C 4.298977 -1.675858 0.492822 0
M  V30 6 C 3.851953 -2.317595 -0.654425 0
M  V30 7 C 3.181346 -1.573031 -1.721348 0
M  V30 8 C 3.447895 -1.713785 -3.077525 0
M  V30 9 N 2.631263 -0.861742 -3.750452 0
M  V30 10 C 1.869258 -0.199700 -2.852203 0
M  V30 11 C 0.896437 0.750329 -2.908952 0
M  V30 12 C 0.300254 1.230927 -1.778089 0
M  V30 13 C 0.666914 0.766350 -0.535079 0
M  V30 14 N 0.163514 1.143540 0.740392 0
M  V30 15 C 0.618090 0.595741 2.006440 0
M  V30 16 C -0.473889 -0.298361 2.522169 0
M  V30 17 C -1.826971 0.335558 2.484071 0
M  V30 18 N -2.816617 -0.371338 1.767908 0
M  V30 19 C -2.651520 -0.648376 0.406833 0
M  V30 20 C -3.941886 -1.251188 -0.109250 0
M  V30 21 C -5.168531 -0.715250 0.594617 0
M  V30 22 C -5.077928 -0.897160 2.099899 0
M  V30 23 C -3.640471 -1.264769 2.499946 0
M  V30 24 C -1.820233 1.783210 2.062604 0
M  V30 25 C -0.877192 2.128882 0.971347 0
M  V30 26 N 1.640237 -0.182157 -0.501304 0
M  V30 27 N 2.200434 -0.628679 -1.622026 0
M  V30 28 C 4.039486 -3.662753 -0.791746 0
M  V30 29 H 5.619850 -4.346743 2.132606 0
M  V30 30 H 5.258429 -1.891749 2.344610 0
M  V30 31 H 4.164366 -0.606856 0.631088 0
M  V30 32 H 4.189652 -2.398829 -3.486702 0
M  V30 33 H 0.573821 1.146961 -3.863681 0
M  V30 34 H -0.472540 1.980126 -1.758867 0
M  V30 35 H 1.512425 -0.044329 1.862409 0
M  V30 36 H 0.865871 1.409836 2.692154 0
M  V30 37 H -0.465885 -1.243180 1.911290 0
M  V30 38 H -0.147271 -0.625462 3.530822 0
M  V30 39 H -2.180497 0.343730 3.559718 0
M  V30 40 H -1.882614 -1.466078 0.277102 0
M  V30 41 H -2.290875 0.181106 -0.199080 0
M  V30 42 H -4.043808 -0.979298 -1.179961 0
M  V30 43 H -3.969881 -2.347146 0.007414 0
M  V30 44 H -6.014272 -1.349482 0.257103 0
M  V30 45 H -5.397452 0.326106 0.309911 0
M  V30 46 H -5.796930 -1.622397 2.482885 0
M  V30 47 H -5.257800 0.102355 2.548387 0
M  V30 48 H -3.509348 -2.319873 2.182860 0
M  V30 49 H -3.492537 -1.180580 3.573268 0
M  V30 50 H -1.633420 2.440870 2.956445 0
M  V30 51 H -2.857019 2.014676 1.681334 0
M  V30 52 H -1.397516 2.397107 0.008006 0
M  V30 53 H -0.335680 3.059558 1.241531 0
M  V30 54 H 3.710058 -4.216341 -1.668006 0
M  V30 END ATOM
M  V30 BEGIN BOND
M  V30 1 1 1 2
M  V30 2 2 2 3
M  V30 3 1 3 4
M  V30 4 2 4 5
M  V30 5 1 5 6
M  V30 6 1 6 7
M  V30 7 2 7 8
M  V30 8 1 8 9
M  V30 9 2 9 10
M  V30 10 1 10 11
M  V30 11 2 11 12
M  V30 12 1 12 13
M  V30 13 1 13 14
M  V30 14 1 14 15
M  V30 15 1 15 16
M  V30 16 1 16 17
M  V30 17 1 17 18
M  V30 18 1 18 19
M  V30 19 1 19 20
M  V30 20 1 20 21
M  V30 21 1 21 22
M  V30 22 1 22 23
M  V30 23 1 17 24
M  V30 24 1 24 25
M  V30 25 2 13 26
M  V30 26 1 26 27
M  V30 27 2 6 28
M  V30 28 1 28 2
M  V30 29 1 27 7
M  V30 30 1 27 10
M  V30 31 1 25 14
M  V30 32 1 23 18
M  V30 33 1 3 29
M  V30 34 1 4 30
M  V30 35 1 5 31
M  V30 36 1 8 32
M  V30 37 1 11 33
M  V30 38 1 12 34
M  V30 39 1 15 35
M  V30 40 1 15 36
M  V30 41 1 16 37
M  V30 42 1 16 38
M  V30 43 1 17 39
M  V30 44 1 19 40
M  V30 45 1 19 41
M  V30 46 1 20 42
M  V30 47 1 20 43
M  V30 48 1 21 44
M  V30 49 1 21 45
M  V30 50 1 22 46
M  V30 51 1 22 47
M  V30 52 1 23 48
M  V30 53 1 23 49
M  V30 54 1 24 50
M  V30 55 1 24 51
M  V30 56 1 25 52
M  V30 57 1 25 53
M  V30 58 1 28 54
M  V30 END BOND
M  V30 END CTAB
M  END
>  <Dataset>  (333) 
ChEMBL_Kinases

>  <Ligand_Instance>  (333) 
nan

>  <PDB_ID>  (333) 
nan

>  <Standardized_SMILES>  (333) 
Clc1cccc(-c2cnc3ccc(N4CCC(N5CCCCC5)CC4)nn23)c1

>  <Name>  (333) 
nan

>  <Pocket>  (333) 
nan

>  <ATP_Site>  (333) 
nan

>  <Peripheral>  (333) 
nan

>  <Num_H_Atoms_ProtBoundConf>  (333) 
nan

>  <Num_Resolved_Atoms>  (333) 
nan

>  <Num_Not_Resolved_Atoms>  (333) 
nan

$$$$
CHEMBL3905910
     RDKit          3D

  0  0  0  0  0  0  0  0  0  0999 V3000
M  V30 BEGIN CTAB
M  V30 COUNTS 51 54 0 0 0
M  V30 BEGIN ATOM
M  V30 1 C 0.161363 -2.685770 3.681036 0
M  V30 2 N 1.563039 -2.530412 3.374678 0
M  V30 3 C 1.895810 -1.135366 3.566223 0
M  V30 4 C 2.017410 -0.514183 2.169316 0
M  V30 5 C 1.421432 -1.580198 1.230434 0 CFG=1
M  V30 6 C 1.855471 -1.365438 -0.130529 0
M  V30 7 C 2.969516 -1.884944 -0.753952 0
M  V30 8 O 3.844149 -2.718856 -0.099868 0
M  V30 9 C 3.344261 -1.651754 -2.058930 0
M  V30 10 C 2.552930 -0.829989 -2.831776 0
M  V30 11 O 2.801966 -0.504873 -4.156545 0
M  V30 12 C 1.429357 -0.290497 -2.243829 0
M  V30 13 C 0.597621 0.539587 -2.965877 0
M  V30 14 O 0.832336 0.828250 -4.166672 0
M  V30 15 C -0.492807 1.024942 -2.293083 0
M  V30 16 C -0.859706 0.791526 -1.001663 0
M  V30 17 C -1.976067 1.265294 -0.250332 0
M  V30 18 C -2.082572 0.857934 1.071354 0
M  V30 19 C -3.084291 1.215012 1.930425 0
M  V30 20 C -4.084605 2.040721 1.493018 0
M  V30 21 C -5.177362 2.437192 2.411271 0
M  V30 22 F -6.408972 1.911502 2.027922 0
M  V30 23 F -5.238340 3.829120 2.347419 0
M  V30 24 F -4.850853 2.075632 3.689176 0
M  V30 25 C -4.051320 2.491631 0.186385 0
M  V30 26 C -3.006989 2.080527 -0.602584 0
M  V30 27 Cl -3.061616 2.700427 -2.219996 0
M  V30 28 O -0.013733 -0.001311 -0.405430 0
M  V30 29 C 1.057752 -0.526597 -0.936599 0
M  V30 30 C 1.876424 -2.788866 1.959460 0 CFG=2
M  V30 31 C 1.250342 -4.073955 1.589308 0
M  V30 32 O -0.116538 -4.157698 1.710619 0
M  V30 33 H -0.528640 -2.235081 2.960977 0
M  V30 34 H 0.007449 -2.078592 4.625560 0
M  V30 35 H -0.101577 -3.716382 3.996541 0
M  V30 36 H 2.878483 -1.138106 4.102941 0
M  V30 37 H 1.186791 -0.602073 4.212489 0
M  V30 38 H 1.386489 0.380511 2.196175 0
M  V30 39 H 3.079478 -0.375842 1.989846 0
M  V30 40 H 0.302770 -1.505289 1.269699 0
M  V30 41 H 4.745909 -2.502589 0.249990 0
M  V30 42 H 4.210805 -2.057532 -2.539592 0
M  V30 43 H 2.785924 -1.151208 -4.913665 0
M  V30 44 H -1.116183 1.664850 -2.881548 0
M  V30 45 H -1.345341 0.198510 1.536672 0
M  V30 46 H -3.131459 0.881854 2.937853 0
M  V30 47 H -4.837918 3.131463 -0.131180 0
M  V30 48 H 2.967671 -2.908298 1.923850 0
M  V30 49 H 1.645297 -4.829438 2.335670 0
M  V30 50 H 1.615136 -4.481181 0.602103 0
M  V30 51 H -0.468791 -4.650872 0.929899 0
M  V30 END ATOM
M  V30 BEGIN BOND
M  V30 1 1 1 2
M  V30 2 1 2 3
M  V30 3 1 3 4
M  V30 4 1 4 5
M  V30 5 1 5 6
M  V30 6 2 6 7
M  V30 7 1 7 8
M  V30 8 1 7 9
M  V30 9 2 9 10
M  V30 10 1 10 11
M  V30 11 1 10 12
M  V30 12 1 12 13
M  V30 13 2 13 14
M  V30 14 1 13 15
M  V30 15 2 15 16
M  V30 16 1 16 17
M  V30 17 2 17 18
M  V30 18 1 18 19
M  V30 19 2 19 20
M  V30 20 1 20 21
M  V30 21 1 21 22
M  V30 22 1 21 23
M  V30 23 1 21 24
M  V30 24 1 20 25
M  V30 25 2 25 26
M  V30 26 1 26 27
M  V30 27 1 16 28
M  V30 28 1 28 29
M  V30 29 1 5 30
M  V30 30 1 30 31
M  V30 31 1 31 32
M  V30 32 1 30 2
M  V30 33 1 29 6
M  V30 34 2 29 12
M  V30 35 1 26 17
M  V30 36 1 1 33
M  V30 37 1 1 34
M  V30 38 1 1 35
M  V30 39 1 3 36
M  V30 40 1 3 37
M  V30 41 1 4 38
M  V30 42 1 4 39
M  V30 43 1 5 40 CFG=3
M  V30 44 1 8 41
M  V30 45 1 9 42
M  V30 46 1 11 43
M  V30 47 1 15 44
M  V30 48 1 18 45
M  V30 49 1 19 46
M  V30 50 1 25 47
M  V30 51 1 30 48 CFG=1
M  V30 52 1 31 49
M  V30 53 1 31 50
M  V30 54 1 32 51
M  V30 END BOND
M  V30 END CTAB
M  END
>  <Dataset>  (334) 
ChEMBL_Kinases

>  <Ligand_Instance>  (334) 
nan

>  <PDB_ID>  (334) 
nan

>  <Standardized_SMILES>  (334) 
CN1CC[C@@H](c2c(O)cc(O)c3c(=O)cc(-c4ccc(C(F)(F)F)cc4Cl)oc23)[C@@H]1CO

>  <Name>  (334) 
VORUCICLIB

>  <Pocket>  (334) 
nan

>  <ATP_Site>  (334) 
nan

>  <Peripheral>  (334) 
nan

>  <Num_H_Atoms_ProtBoundConf>  (334) 
nan

>  <Num_Resolved_Atoms>  (334) 
nan

>  <Num_Not_Resolved_Atoms>  (334) 
nan

$$$$
CHEMBL4098237
     RDKit          3D

  0  0  0  0  0  0  0  0  0  0999 V3000
M  V30 BEGIN CTAB
M  V30 COUNTS 56 58 0 0 0
M  V30 BEGIN ATOM
M  V30 1 C 0.944738 -3.057500 4.685673 0
M  V30 2 C 1.037624 -2.261416 3.428930 0
M  V30 3 C 2.361634 -1.559807 3.223467 0 CFG=2
M  V30 4 C 2.569980 -0.612210 4.385544 0
M  V30 5 O 2.668687 -1.376061 5.547557 0
M  V30 6 N 2.249275 -0.827238 1.964212 0
M  V30 7 C 3.130306 -0.877235 0.862693 0
M  V30 8 O 4.143417 -1.607560 0.899208 0
M  V30 9 C 2.878149 -0.082849 -0.333469 0
M  V30 10 C 3.795579 -0.118077 -1.364099 0
M  V30 11 C 3.624540 0.607189 -2.542610 0
M  V30 12 C 2.486477 1.401220 -2.695391 0
M  V30 13 C 1.549598 1.450007 -1.667353 0
M  V30 14 C 0.321327 2.263854 -1.764147 0
M  V30 15 C 0.052791 3.550425 -2.182937 0
M  V30 16 N -1.269009 3.780333 -2.060991 0
M  V30 17 C -1.834516 2.649952 -1.569173 0
M  V30 18 C -3.164823 2.424178 -1.283991 0
M  V30 19 C -3.545164 1.190372 -0.784806 0
M  V30 20 C -2.513678 0.282046 -0.618607 0
M  V30 21 N -2.704042 -1.039240 -0.121750 0
M  V30 22 C -2.923596 -2.219944 -0.922816 0 CFG=1
M  V30 23 C -3.094701 -3.444395 -0.055107 0
M  V30 24 C -1.894861 -3.710378 0.801490 0
M  V30 25 C -4.122985 -2.058771 -1.829381 0
M  V30 26 O -3.830347 -0.959158 -2.647449 0
M  V30 27 N -1.224738 0.525472 -0.903612 0
M  V30 28 N -0.869614 1.712513 -1.382701 0
M  V30 29 C 1.766143 0.710615 -0.515737 0
M  V30 30 H 1.878146 -3.507117 5.015483 0
M  V30 31 H 0.555322 -2.366271 5.485750 0
M  V30 32 H 0.120313 -3.807625 4.549662 0
M  V30 33 H 0.240090 -1.501758 3.322381 0
M  V30 34 H 0.866735 -2.994990 2.586200 0
M  V30 35 H 3.227748 -2.235483 3.195965 0
M  V30 36 H 1.687414 0.025091 4.479029 0
M  V30 37 H 3.539514 -0.070601 4.304101 0
M  V30 38 H 3.362926 -1.018421 6.163913 0
M  V30 39 H 1.394910 -0.230410 1.978350 0
M  V30 40 H 4.690624 -0.718517 -1.292525 0
M  V30 41 H 4.336224 0.590909 -3.362562 0
M  V30 42 H 2.257826 2.005222 -3.574447 0
M  V30 43 H 0.902387 4.155894 -2.530586 0
M  V30 44 H -3.940084 3.164223 -1.429554 0
M  V30 45 H -4.555001 0.892870 -0.523603 0
M  V30 46 H -2.667498 -1.072208 0.940304 0
M  V30 47 H -2.043719 -2.338222 -1.624145 0
M  V30 48 H -3.973518 -3.314166 0.580025 0
M  V30 49 H -3.245305 -4.324236 -0.717398 0
M  V30 50 H -0.990744 -3.698966 0.175153 0
M  V30 51 H -1.824893 -3.025016 1.664113 0
M  V30 52 H -1.977267 -4.765213 1.184160 0
M  V30 53 H -5.049770 -1.945860 -1.254456 0
M  V30 54 H -4.202528 -2.981106 -2.453105 0
M  V30 55 H -3.582654 -1.230509 -3.545204 0
M  V30 56 H 1.028115 0.770285 0.253194 0
M  V30 END ATOM
M  V30 BEGIN BOND
M  V30 1 1 1 2
M  V30 2 1 2 3
M  V30 3 1 3 4
M  V30 4 1 4 5
M  V30 5 1 3 6
M  V30 6 1 6 7
M  V30 7 2 7 8
M  V30 8 1 7 9
M  V30 9 2 9 10
M  V30 10 1 10 11
M  V30 11 2 11 12
M  V30 12 1 12 13
M  V30 13 1 13 14
M  V30 14 2 14 15
M  V30 15 1 15 16
M  V30 16 2 16 17
M  V30 17 1 17 18
M  V30 18 2 18 19
M  V30 19 1 19 20
M  V30 20 1 20 21
M  V30 21 1 21 22
M  V30 22 1 22 23
M  V30 23 1 23 24
M  V30 24 1 22 25
M  V30 25 1 25 26
M  V30 26 2 20 27
M  V30 27 1 27 28
M  V30 28 2 13 29
M  V30 29 1 29 9
M  V30 30 1 28 14
M  V30 31 1 28 17
M  V30 32 1 1 30
M  V30 33 1 1 31
M  V30 34 1 1 32
M  V30 35 1 2 33
M  V30 36 1 2 34
M  V30 37 1 3 35 CFG=3
M  V30 38 1 4 36
M  V30 39 1 4 37
M  V30 40 1 5 38
M  V30 41 1 6 39
M  V30 42 1 10 40
M  V30 43 1 11 41
M  V30 44 1 12 42
M  V30 45 1 15 43
M  V30 46 1 18 44
M  V30 47 1 19 45
M  V30 48 1 21 46
M  V30 49 1 22 47 CFG=3
M  V30 50 1 23 48
M  V30 51 1 23 49
M  V30 52 1 24 50
M  V30 53 1 24 51
M  V30 54 1 24 52
M  V30 55 1 25 53
M  V30 56 1 25 54
M  V30 57 1 26 55
M  V30 58 1 29 56
M  V30 END BOND
M  V30 END CTAB
M  END
>  <Dataset>  (335) 
ChEMBL_Kinases

>  <Ligand_Instance>  (335) 
nan

>  <PDB_ID>  (335) 
nan

>  <Standardized_SMILES>  (335) 
CC[C@H](CO)NC(=O)c1cccc(-c2cnc3ccc(N[C@@H](CC)CO)nn23)c1

>  <Name>  (335) 
nan

>  <Pocket>  (335) 
nan

>  <ATP_Site>  (335) 
nan

>  <Peripheral>  (335) 
nan

>  <Num_H_Atoms_ProtBoundConf>  (335) 
nan

>  <Num_Resolved_Atoms>  (335) 
nan

>  <Num_Not_Resolved_Atoms>  (335) 
nan

$$$$
CHEMBL52654
     RDKit          3D

  0  0  0  0  0  0  0  0  0  0999 V3000
M  V30 BEGIN CTAB
M  V30 COUNTS 56 61 0 0 0
M  V30 BEGIN ATOM
M  V30 1 C 1.875702 -0.320851 5.565562 0
M  V30 2 N 1.596023 -1.050384 4.370014 0
M  V30 3 C 2.692775 -1.588030 3.680636 0
M  V30 4 C 2.815253 -1.366551 2.212452 0
M  V30 5 C 1.759011 -0.579910 1.558295 0
M  V30 6 N 1.048948 -1.260523 0.493963 0
M  V30 7 C 0.743910 -0.768628 -0.745561 0
M  V30 8 C 0.056974 -1.680379 -1.526832 0
M  V30 9 C -0.381570 -1.349420 -2.878390 0
M  V30 10 C -0.955460 -0.165267 -3.163335 0
M  V30 11 C -1.309629 1.032471 -2.399896 0
M  V30 12 C -1.047279 2.345649 -2.804686 0
M  V30 13 N -1.515092 3.194626 -1.883561 0
M  V30 14 C -2.082156 2.531928 -0.873696 0
M  V30 15 C -2.710370 2.929566 0.303871 0
M  V30 16 C -3.216719 2.008111 1.170020 0
M  V30 17 C -3.081187 0.681189 0.832205 0
M  V30 18 C -2.461412 0.275482 -0.329635 0
M  V30 19 C -1.948245 1.202090 -1.206426 0
M  V30 20 C -1.257136 -0.183165 -4.599738 0
M  V30 21 O -1.800365 0.708495 -5.326624 0
M  V30 22 N -0.859400 -1.402835 -5.207379 0
M  V30 23 C -0.302123 -2.141773 -4.106539 0
M  V30 24 O 0.181480 -3.299599 -4.191064 0
M  V30 25 C -0.072705 -2.797798 -0.732503 0
M  V30 26 C -0.682097 -3.985064 -1.032470 0
M  V30 27 C -0.700534 -4.971703 -0.075508 0
M  V30 28 C -0.113851 -4.731523 1.129350 0
M  V30 29 C 0.492857 -3.508671 1.385505 0
M  V30 30 C 0.535854 -2.500075 0.467910 0
M  V30 31 C 0.813428 0.137706 2.487728 0
M  V30 32 C 0.420672 -0.694017 3.680156 0
M  V30 33 H 2.159709 -1.050729 6.359019 0
M  V30 34 H 0.964970 0.231961 5.870569 0
M  V30 35 H 2.741790 0.352888 5.360080 0
M  V30 36 H 2.677695 -2.706678 3.870389 0
M  V30 37 H 3.603457 -1.274978 4.253445 0
M  V30 38 H 3.848077 -0.910848 2.069460 0
M  V30 39 H 2.942562 -2.331463 1.668708 0
M  V30 40 H 2.281294 0.289639 1.044444 0
M  V30 41 H 1.033490 0.235232 -1.032827 0
M  V30 42 H -0.543745 2.658103 -3.717655 0
M  V30 43 H -1.453249 4.226880 -1.931442 0
M  V30 44 H -2.815521 3.965698 0.568338 0
M  V30 45 H -3.715411 2.283642 2.100839 0
M  V30 46 H -3.487887 -0.048468 1.526539 0
M  V30 47 H -2.414531 -0.766459 -0.508516 0
M  V30 48 H -0.934743 -1.722769 -6.196165 0
M  V30 49 H -1.139699 -4.164313 -1.971694 0
M  V30 50 H -1.177077 -5.910552 -0.296054 0
M  V30 51 H -0.148092 -5.544435 1.873107 0
M  V30 52 H 0.924804 -3.394643 2.346355 0
M  V30 53 H 1.256701 1.076444 2.888297 0
M  V30 54 H -0.067745 0.446467 1.890355 0
M  V30 55 H -0.319448 -1.479187 3.478588 0
M  V30 56 H -0.129454 0.031559 4.354845 0
M  V30 END ATOM
M  V30 BEGIN BOND
M  V30 1 1 1 2
M  V30 2 1 2 3
M  V30 3 1 3 4
M  V30 4 1 4 5
M  V30 5 1 5 6
M  V30 6 1 6 7
M  V30 7 2 7 8
M  V30 8 1 8 9
M  V30 9 2 9 10
M  V30 10 1 10 11
M  V30 11 2 11 12
M  V30 12 1 12 13
M  V30 13 1 13 14
M  V30 14 2 14 15
M  V30 15 1 15 16
M  V30 16 2 16 17
M  V30 17 1 17 18
M  V30 18 2 18 19
M  V30 19 1 10 20
M  V30 20 2 20 21
M  V30 21 1 20 22
M  V30 22 1 22 23
M  V30 23 2 23 24
M  V30 24 1 8 25
M  V30 25 2 25 26
M  V30 26 1 26 27
M  V30 27 2 27 28
M  V30 28 1 28 29
M  V30 29 2 29 30
M  V30 30 1 5 31
M  V30 31 1 31 32
M  V30 32 1 32 2
M  V30 33 1 30 6
M  V30 34 1 23 9
M  V30 35 1 30 25
M  V30 36 1 19 11
M  V30 37 1 19 14
M  V30 38 1 1 33
M  V30 39 1 1 34
M  V30 40 1 1 35
M  V30 41 1 3 36
M  V30 42 1 3 37
M  V30 43 1 4 38
M  V30 44 1 4 39
M  V30 45 1 5 40
M  V30 46 1 7 41
M  V30 47 1 12 42
M  V30 48 1 13 43
M  V30 49 1 15 44
M  V30 50 1 16 45
M  V30 51 1 17 46
M  V30 52 1 18 47
M  V30 53 1 22 48
M  V30 54 1 26 49
M  V30 55 1 27 50
M  V30 56 1 28 51
M  V30 57 1 29 52
M  V30 58 1 31 53
M  V30 59 1 31 54
M  V30 60 1 32 55
M  V30 61 1 32 56
M  V30 END BOND
M  V30 END CTAB
M  END
>  <Dataset>  (336) 
ChEMBL_Kinases

>  <Ligand_Instance>  (336) 
nan

>  <PDB_ID>  (336) 
nan

>  <Standardized_SMILES>  (336) 
CN1CCC(n2cc(C3=C(c4c[nH]c5ccccc45)C(=O)NC3=O)c3ccccc32)CC1

>  <Name>  (336) 
nan

>  <Pocket>  (336) 
nan

>  <ATP_Site>  (336) 
nan

>  <Peripheral>  (336) 
nan

>  <Num_H_Atoms_ProtBoundConf>  (336) 
nan

>  <Num_Resolved_Atoms>  (336) 
nan

>  <Num_Not_Resolved_Atoms>  (336) 
nan

$$$$
CHEMBL573339
     RDKit          3D

  0  0  0  0  0  0  0  0  0  0999 V3000
M  V30 BEGIN CTAB
M  V30 COUNTS 42 46 0 0 0
M  V30 BEGIN ATOM
M  V30 1 O 2.859218 -5.885134 3.210668 0
M  V30 2 C 3.070579 -4.565751 2.780614 0
M  V30 3 C 4.323079 -3.994306 2.872545 0
M  V30 4 C 4.641465 -2.709869 2.480865 0
M  V30 5 C 3.600997 -1.938902 1.950648 0
M  V30 6 C 2.340566 -2.493873 1.850813 0
M  V30 7 C 1.266458 -1.675003 1.295079 0
M  V30 8 N 1.463881 -0.408028 0.880712 0
M  V30 9 C 0.514260 0.365299 0.371377 0
M  V30 10 N 0.693571 1.705136 -0.073886 0
M  V30 11 C 0.438660 2.133674 -1.435223 0
M  V30 12 C 0.297605 3.659065 -1.350828 0
M  V30 13 O 1.554293 4.189739 -1.094006 0
M  V30 14 C 1.972775 3.808372 0.157309 0
M  V30 15 C 1.149070 2.746980 0.813714 0
M  V30 16 C -0.763571 -0.143338 0.250540 0
M  V30 17 O -1.890165 0.351895 -0.199866 0
M  V30 18 C -2.866380 -0.520583 -0.115864 0
M  V30 19 N -4.184394 -0.481988 -0.445753 0
M  V30 20 C -4.973986 -1.552695 -0.244813 0
M  V30 21 C -4.456317 -2.714529 0.302583 0
M  V30 22 C -3.119557 -2.814513 0.659341 0
M  V30 23 C -2.355717 -1.687359 0.431663 0
M  V30 24 C -1.011582 -1.439730 0.663506 0
M  V30 25 N 0.014541 -2.148669 1.167703 0
M  V30 26 C 2.038855 -3.787437 2.249815 0
M  V30 27 H 2.061148 -6.344367 2.781733 0
M  V30 28 H 5.130974 -4.592859 3.284211 0
M  V30 29 H 5.638374 -2.303071 2.571544 0
M  V30 30 H 3.755079 -0.928361 1.619396 0
M  V30 31 H -0.486419 1.737465 -1.868652 0
M  V30 32 H 1.307160 1.941122 -2.085071 0
M  V30 33 H -0.079968 4.053559 -2.318029 0
M  V30 34 H -0.402808 3.896391 -0.516596 0
M  V30 35 H 1.868516 4.723762 0.808031 0
M  V30 36 H 3.077018 3.580578 0.204648 0
M  V30 37 H 0.249301 3.161041 1.337943 0
M  V30 38 H 1.818355 2.253935 1.572985 0
M  V30 39 H -6.017001 -1.472818 -0.523870 0
M  V30 40 H -5.082572 -3.589244 0.471219 0
M  V30 41 H -2.649147 -3.681718 1.088094 0
M  V30 42 H 1.058677 -4.226412 2.174872 0
M  V30 END ATOM
M  V30 BEGIN BOND
M  V30 1 1 1 2
M  V30 2 2 2 3
M  V30 3 1 3 4
M  V30 4 2 4 5
M  V30 5 1 5 6
M  V30 6 1 6 7
M  V30 7 2 7 8
M  V30 8 1 8 9
M  V30 9 1 9 10
M  V30 10 1 10 11
M  V30 11 1 11 12
M  V30 12 1 12 13
M  V30 13 1 13 14
M  V30 14 1 14 15
M  V30 15 2 9 16
M  V30 16 1 16 17
M  V30 17 1 17 18
M  V30 18 2 18 19
M  V30 19 1 19 20
M  V30 20 2 20 21
M  V30 21 1 21 22
M  V30 22 2 22 23
M  V30 23 1 23 24
M  V30 24 2 24 25
M  V30 25 2 6 26
M  V30 26 1 26 2
M  V30 27 1 25 7
M  V30 28 1 15 10
M  V30 29 1 24 16
M  V30 30 1 23 18
M  V30 31 1 1 27
M  V30 32 1 3 28
M  V30 33 1 4 29
M  V30 34 1 5 30
M  V30 35 1 11 31
M  V30 36 1 11 32
M  V30 37 1 12 33
M  V30 38 1 12 34
M  V30 39 1 14 35
M  V30 40 1 14 36
M  V30 41 1 15 37
M  V30 42 1 15 38
M  V30 43 1 20 39
M  V30 44 1 21 40
M  V30 45 1 22 41
M  V30 46 1 26 42
M  V30 END BOND
M  V30 END CTAB
M  END
>  <Dataset>  (337) 
ChEMBL_Kinases

>  <Ligand_Instance>  (337) 
nan

>  <PDB_ID>  (337) 
nan

>  <Standardized_SMILES>  (337) 
Oc1cccc(-c2nc(N3CCOCC3)c3oc4ncccc4c3n2)c1

>  <Name>  (337) 
PI-103

>  <Pocket>  (337) 
nan

>  <ATP_Site>  (337) 
nan

>  <Peripheral>  (337) 
nan

>  <Num_H_Atoms_ProtBoundConf>  (337) 
nan

>  <Num_Resolved_Atoms>  (337) 
nan

>  <Num_Not_Resolved_Atoms>  (337) 
nan

$$$$
CHEMBL3589672
     RDKit          3D

  0  0  0  0  0  0  0  0  0  0999 V3000
M  V30 BEGIN CTAB
M  V30 COUNTS 30 33 0 0 0
M  V30 BEGIN ATOM
M  V30 1 O -0.063022 -0.789933 4.706269 0
M  V30 2 C 0.688036 -0.915983 3.733862 0
M  V30 3 O 1.680318 -1.162340 4.635800 0
M  V30 4 C 0.894545 -0.908252 2.300732 0
M  V30 5 N 2.131315 -1.182609 1.872809 0
M  V30 6 C 2.562318 -1.235144 0.622731 0
M  V30 7 C 3.876714 -1.533369 0.336777 0
M  V30 8 C 4.217004 -1.560761 -1.011077 0
M  V30 9 C 3.270556 -1.299684 -1.990009 0
M  V30 10 I 3.870159 -1.361576 -4.016641 0
M  V30 11 C 1.947111 -1.001593 -1.646065 0
M  V30 12 C 1.595278 -0.970881 -0.313608 0
M  V30 13 C 0.284735 -0.673916 -0.018602 0
M  V30 14 N -0.798648 -0.389723 -0.755267 0
M  V30 15 C -1.817614 -0.182802 0.094245 0
M  V30 16 C -3.132435 0.137367 -0.160313 0
M  V30 17 Br -3.711422 0.344512 -1.967377 0
M  V30 18 C -4.007951 0.302955 0.889894 0
M  V30 19 C -3.551048 0.143907 2.202938 0
M  V30 20 C -2.228901 -0.175748 2.399616 0
M  V30 21 C -1.347212 -0.343860 1.375905 0
M  V30 22 C -0.019171 -0.654906 1.324025 0
M  V30 23 H 1.990390 -0.518898 5.341268 0
M  V30 24 H 4.570723 -1.728426 1.147017 0
M  V30 25 H 5.245458 -1.792322 -1.280506 0
M  V30 26 H 1.282757 -0.812702 -2.477245 0
M  V30 27 H -0.807192 -0.347194 -1.790392 0
M  V30 28 H -5.029607 0.553342 0.650792 0
M  V30 29 H -4.334299 0.300201 2.933895 0
M  V30 30 H -2.056019 -0.256803 3.441432 0
M  V30 END ATOM
M  V30 BEGIN BOND
M  V30 1 2 1 2
M  V30 2 1 2 3
M  V30 3 1 2 4
M  V30 4 2 4 5
M  V30 5 1 5 6
M  V30 6 2 6 7
M  V30 7 1 7 8
M  V30 8 2 8 9
M  V30 9 1 9 10
M  V30 10 1 9 11
M  V30 11 2 11 12
M  V30 12 1 12 13
M  V30 13 1 13 14
M  V30 14 1 14 15
M  V30 15 2 15 16
M  V30 16 1 16 17
M  V30 17 1 16 18
M  V30 18 2 18 19
M  V30 19 1 19 20
M  V30 20 2 20 21
M  V30 21 1 21 22
M  V30 22 1 22 4
M  V30 23 1 12 6
M  V30 24 2 22 13
M  V30 25 1 21 15
M  V30 26 1 3 23
M  V30 27 1 7 24
M  V30 28 1 8 25
M  V30 29 1 11 26
M  V30 30 1 14 27
M  V30 31 1 18 28
M  V30 32 1 19 29
M  V30 33 1 20 30
M  V30 END BOND
M  V30 END CTAB
M  END
>  <Dataset>  (338) 
ChEMBL_Kinases

>  <Ligand_Instance>  (338) 
nan

>  <PDB_ID>  (338) 
nan

>  <Standardized_SMILES>  (338) 
O=C(O)c1nc2ccc(I)cc2c2[nH]c3c(Br)cccc3c12

>  <Name>  (338) 
nan

>  <Pocket>  (338) 
nan

>  <ATP_Site>  (338) 
nan

>  <Peripheral>  (338) 
nan

>  <Num_H_Atoms_ProtBoundConf>  (338) 
nan

>  <Num_Resolved_Atoms>  (338) 
nan

>  <Num_Not_Resolved_Atoms>  (338) 
nan

$$$$
CHEMBL3589671
     RDKit          3D

  0  0  0  0  0  0  0  0  0  0999 V3000
M  V30 BEGIN CTAB
M  V30 COUNTS 30 33 0 0 0
M  V30 BEGIN ATOM
M  V30 1 O 0.190309 -0.730225 4.719342 0
M  V30 2 C 0.849365 -0.966403 3.696426 0
M  V30 3 O 1.850984 -1.404370 4.531200 0
M  V30 4 C 0.973058 -0.969063 2.249863 0
M  V30 5 N 2.133745 -1.401787 1.749305 0
M  V30 6 C 2.469224 -1.491389 0.474123 0
M  V30 7 C 3.712301 -1.959948 0.102938 0
M  V30 8 C 3.949855 -2.008846 -1.262363 0
M  V30 9 C 3.002885 -1.614030 -2.185587 0
M  V30 10 I 3.430110 -1.714007 -4.257577 0
M  V30 11 C 1.759364 -1.147359 -1.748863 0
M  V30 12 C 1.492768 -1.086765 -0.398806 0
M  V30 13 C 0.254976 -0.620379 -0.023260 0
M  V30 14 N -0.824821 -0.182913 -0.683450 0
M  V30 15 C -1.747458 0.144667 0.225394 0
M  V30 16 C -3.020274 0.641081 0.050297 0
M  V30 17 Cl -3.622484 0.924387 -1.569351 0
M  V30 18 C -3.801962 0.907819 1.152914 0
M  V30 19 C -3.290715 0.670241 2.434762 0
M  V30 20 C -2.014620 0.174412 2.551447 0
M  V30 21 C -1.227200 -0.095332 1.475270 0
M  V30 22 C 0.040293 -0.580080 1.335501 0
M  V30 23 H 1.735779 -2.175872 5.173509 0
M  V30 24 H 4.417902 -2.256036 0.851390 0
M  V30 25 H 4.919323 -2.372764 -1.599808 0
M  V30 26 H 1.068757 -0.855854 -2.535828 0
M  V30 27 H -0.912068 -0.117085 -1.708173 0
M  V30 28 H -4.794558 1.295943 0.984805 0
M  V30 29 H -4.000974 0.919456 3.218646 0
M  V30 30 H -1.790990 0.055360 3.578840 0
M  V30 END ATOM
M  V30 BEGIN BOND
M  V30 1 2 1 2
M  V30 2 1 2 3
M  V30 3 1 2 4
M  V30 4 2 4 5
M  V30 5 1 5 6
M  V30 6 2 6 7
M  V30 7 1 7 8
M  V30 8 2 8 9
M  V30 9 1 9 10
M  V30 10 1 9 11
M  V30 11 2 11 12
M  V30 12 1 12 13
M  V30 13 1 13 14
M  V30 14 1 14 15
M  V30 15 2 15 16
M  V30 16 1 16 17
M  V30 17 1 16 18
M  V30 18 2 18 19
M  V30 19 1 19 20
M  V30 20 2 20 21
M  V30 21 1 21 22
M  V30 22 1 22 4
M  V30 23 1 12 6
M  V30 24 2 22 13
M  V30 25 1 21 15
M  V30 26 1 3 23
M  V30 27 1 7 24
M  V30 28 1 8 25
M  V30 29 1 11 26
M  V30 30 1 14 27
M  V30 31 1 18 28
M  V30 32 1 19 29
M  V30 33 1 20 30
M  V30 END BOND
M  V30 END CTAB
M  END
>  <Dataset>  (339) 
ChEMBL_Kinases

>  <Ligand_Instance>  (339) 
nan

>  <PDB_ID>  (339) 
nan

>  <Standardized_SMILES>  (339) 
O=C(O)c1nc2ccc(I)cc2c2[nH]c3c(Cl)cccc3c12

>  <Name>  (339) 
nan

>  <Pocket>  (339) 
nan

>  <ATP_Site>  (339) 
nan

>  <Peripheral>  (339) 
nan

>  <Num_H_Atoms_ProtBoundConf>  (339) 
nan

>  <Num_Resolved_Atoms>  (339) 
nan

>  <Num_Not_Resolved_Atoms>  (339) 
nan

$$$$
CHEMBL1908394
     RDKit          3D

  0  0  0  0  0  0  0  0  0  0999 V3000
M  V30 BEGIN CTAB
M  V30 COUNTS 66 70 0 0 0
M  V30 BEGIN ATOM
M  V30 1 C 4.584245 -0.381464 3.819148 0
M  V30 2 C 3.172965 -0.081556 3.335213 0 CFG=1
M  V30 3 O 2.541557 -1.333115 3.165115 0
M  V30 4 C 2.064287 -1.790661 1.949231 0
M  V30 5 C 2.037708 -1.284897 0.699066 0
M  V30 6 C 1.506163 -1.947004 -0.315552 0
M  V30 7 N 1.437001 -1.471629 -1.697408 0
M  V30 8 C 2.357477 -1.649192 -2.656524 0
M  V30 9 N 1.916583 -1.058047 -3.789789 0
M  V30 10 C 0.723243 -0.502530 -3.570129 0
M  V30 11 C -0.134954 0.208038 -4.391058 0
M  V30 12 C -1.315163 0.647457 -3.827701 0
M  V30 13 C -1.688478 0.426750 -2.517547 0
M  V30 14 C -2.927668 0.875590 -1.886537 0
M  V30 15 N -4.036859 -0.008859 -1.953798 0
M  V30 16 C -4.481909 -0.348199 -3.254509 0
M  V30 17 C -5.314172 -1.625035 -3.207898 0
M  V30 18 N -4.457973 -2.678656 -2.761409 0
M  V30 19 C -3.443062 -3.020758 -3.725472 0
M  V30 20 C -3.870149 -2.430497 -1.475841 0
M  V30 21 C -4.117239 -1.029851 -0.972120 0
M  V30 22 C -0.780280 -0.293793 -1.747671 0
M  V30 23 C 0.433005 -0.766716 -2.260130 0
M  V30 24 S 0.946265 -3.438621 0.383428 0
M  V30 25 C 1.499729 -3.044819 2.097857 0
M  V30 26 C 1.251130 -4.050047 3.171709 0
M  V30 27 N 1.729495 -3.610855 4.434387 0
M  V30 28 O 0.682123 -5.144906 2.944380 0
M  V30 29 C 2.436704 0.715952 4.356373 0
M  V30 30 C 1.696505 0.106413 5.351900 0
M  V30 31 C 1.007768 0.828889 6.306610 0
M  V30 32 C 1.038423 2.205401 6.295134 0
M  V30 33 C 1.780852 2.799712 5.296233 0
M  V30 34 C 2.488576 2.094762 4.316029 0
M  V30 35 C 3.244955 2.842440 3.301504 0
M  V30 36 F 3.111447 4.220933 3.513901 0
M  V30 37 F 4.623775 2.620907 3.375294 0
M  V30 38 F 2.778239 2.645866 2.007917 0
M  V30 39 H 4.687415 -1.424713 4.208359 0
M  V30 40 H 4.798273 0.270976 4.694967 0
M  V30 41 H 5.291291 -0.302242 2.993567 0
M  V30 42 H 3.201077 0.416854 2.357016 0
M  V30 43 H 2.490822 -0.284332 0.593213 0
M  V30 44 H 3.296515 -2.194195 -2.489951 0
M  V30 45 H 0.088476 0.421507 -5.431342 0
M  V30 46 H -2.001580 1.204988 -4.450289 0
M  V30 47 H -2.729276 1.135987 -0.831820 0
M  V30 48 H -3.224240 1.835569 -2.386877 0
M  V30 49 H -3.726860 -0.415619 -4.042183 0
M  V30 50 H -5.227590 0.445658 -3.554827 0
M  V30 51 H -5.656608 -1.902719 -4.234769 0
M  V30 52 H -6.152180 -1.496422 -2.515575 0
M  V30 53 H -3.844490 -2.914846 -4.765540 0
M  V30 54 H -3.128001 -4.060931 -3.554413 0
M  V30 55 H -2.561168 -2.374608 -3.569939 0
M  V30 56 H -4.350722 -3.133557 -0.750397 0
M  V30 57 H -2.805746 -2.694829 -1.480849 0
M  V30 58 H -3.435574 -0.874024 -0.129077 0
M  V30 59 H -5.152194 -1.016335 -0.558170 0
M  V30 60 H -0.973095 -0.528290 -0.691746 0
M  V30 61 H 0.945537 -3.506541 5.144730 0
M  V30 62 H 2.777241 -3.447049 4.507796 0
M  V30 63 H 1.673446 -0.959858 5.359863 0
M  V30 64 H 0.443061 0.289012 7.064450 0
M  V30 65 H 0.511963 2.804455 7.025899 0
M  V30 66 H 1.798679 3.884394 5.295804 0
M  V30 END ATOM
M  V30 BEGIN BOND
M  V30 1 1 1 2
M  V30 2 1 2 3
M  V30 3 1 3 4
M  V30 4 1 4 5
M  V30 5 2 5 6
M  V30 6 1 6 7
M  V30 7 1 7 8
M  V30 8 2 8 9
M  V30 9 1 9 10
M  V30 10 2 10 11
M  V30 11 1 11 12
M  V30 12 2 12 13
M  V30 13 1 13 14
M  V30 14 1 14 15
M  V30 15 1 15 16
M  V30 16 1 16 17
M  V30 17 1 17 18
M  V30 18 1 18 19
M  V30 19 1 18 20
M  V30 20 1 20 21
M  V30 21 1 13 22
M  V30 22 2 22 23
M  V30 23 1 6 24
M  V30 24 1 24 25
M  V30 25 1 25 26
M  V30 26 1 26 27
M  V30 27 2 26 28
M  V30 28 1 2 29
M  V30 29 2 29 30
M  V30 30 1 30 31
M  V30 31 2 31 32
M  V30 32 1 32 33
M  V30 33 2 33 34
M  V30 34 1 34 35
M  V30 35 1 35 36
M  V30 36 1 35 37
M  V30 37 1 35 38
M  V30 38 2 25 4
M  V30 39 1 34 29
M  V30 40 1 23 7
M  V30 41 1 23 10
M  V30 42 1 21 15
M  V30 43 1 1 39
M  V30 44 1 1 40
M  V30 45 1 1 41
M  V30 46 1 2 42 CFG=3
M  V30 47 1 5 43
M  V30 48 1 8 44
M  V30 49 1 11 45
M  V30 50 1 12 46
M  V30 51 1 14 47
M  V30 52 1 14 48
M  V30 53 1 16 49
M  V30 54 1 16 50
M  V30 55 1 17 51
M  V30 56 1 17 52
M  V30 57 1 19 53
M  V30 58 1 19 54
M  V30 59 1 19 55
M  V30 60 1 20 56
M  V30 61 1 20 57
M  V30 62 1 21 58
M  V30 63 1 21 59
M  V30 64 1 22 60
M  V30 65 1 27 61
M  V30 66 1 27 62
M  V30 67 1 30 63
M  V30 68 1 31 64
M  V30 69 1 32 65
M  V30 70 1 33 66
M  V30 END BOND
M  V30 END CTAB
M  END
>  <Dataset>  (340) 
ChEMBL_Kinases

>  <Ligand_Instance>  (340) 
nan

>  <PDB_ID>  (340) 
nan

>  <Standardized_SMILES>  (340) 
C[C@@H](Oc1cc(-n2cnc3ccc(CN4CCN(C)CC4)cc32)sc1C(N)=O)c1ccccc1C(F)(F)F

>  <Name>  (340) 
GSK-461364

>  <Pocket>  (340) 
nan

>  <ATP_Site>  (340) 
nan

>  <Peripheral>  (340) 
nan

>  <Num_H_Atoms_ProtBoundConf>  (340) 
nan

>  <Num_Resolved_Atoms>  (340) 
nan

>  <Num_Not_Resolved_Atoms>  (340) 
nan

$$$$
CHEMBL4546504
     RDKit          3D

  0  0  0  0  0  0  0  0  0  0999 V3000
M  V30 BEGIN CTAB
M  V30 COUNTS 67 70 0 0 0
M  V30 BEGIN ATOM
M  V30 1 C 5.563814 -0.416014 3.671288 0
M  V30 2 C 4.847871 0.763097 3.078397 0 CFG=1
M  V30 3 O 3.548148 0.398768 2.726823 0
M  V30 4 C 2.893737 0.512647 1.534647 0
M  V30 5 C 3.491417 1.045700 0.408407 0
M  V30 6 C 2.787131 1.144899 -0.794103 0
M  V30 7 C 3.397759 1.695945 -2.004113 0
M  V30 8 O 3.662415 2.914190 -2.239579 0
M  V30 9 N 3.817113 0.968538 -3.163349 0
M  V30 10 C 4.391284 1.734861 -4.231103 0
M  V30 11 C 3.640603 -0.468791 -3.179652 0
M  V30 12 C 1.460521 0.699207 -0.857579 0
M  V30 13 C 0.949610 0.185329 0.309506 0
M  V30 14 C 1.571409 0.054657 1.520877 0
M  V30 15 N 1.012238 -0.494425 2.696264 0
M  V30 16 C -0.295985 -0.994859 2.895147 0
M  V30 17 N -1.299045 -0.919562 2.017009 0
M  V30 18 C -2.485681 -1.469551 2.260209 0
M  V30 19 O -3.508873 -1.397972 1.373688 0
M  V30 20 C -3.607817 -0.655616 0.189212 0 CFG=1
M  V30 21 C -2.732304 -1.233170 -0.916663 0
M  V30 22 C -3.532004 -1.547176 -2.161700 0
M  V30 23 C -4.592996 -2.552127 -1.775925 0 CFG=1
M  V30 24 C -5.413478 -3.003251 -2.947076 0
M  V30 25 O -3.911535 -3.678672 -1.297388 0
M  V30 26 C -5.490635 -1.942973 -0.741185 0
M  V30 27 C -5.017580 -0.567443 -0.297889 0
M  V30 28 C -2.772399 -2.164592 3.452653 0
M  V30 29 C -3.837168 -2.826916 4.020296 0
M  V30 30 Cl -5.340942 -2.932320 3.140086 0
M  V30 31 C -3.385558 -3.276583 5.259945 0
M  V30 32 N -2.107513 -2.903500 5.434948 0
M  V30 33 C -1.705764 -2.221174 4.341263 0
M  V30 34 N -0.536077 -1.657706 4.058616 0
M  V30 35 C 4.814494 1.917868 4.098923 0
M  V30 36 F 4.145027 2.976364 3.491533 0
M  V30 37 F 6.104571 2.325533 4.345837 0
M  V30 38 F 4.171874 1.466168 5.213336 0
M  V30 39 H 6.660286 -0.363796 3.593391 0
M  V30 40 H 5.234755 -1.378483 3.191788 0
M  V30 41 H 5.289144 -0.551998 4.760608 0
M  V30 42 H 5.444090 1.146149 2.205678 0
M  V30 43 H 4.513238 1.398244 0.426400 0
M  V30 44 H 5.014879 2.581754 -3.867921 0
M  V30 45 H 3.571841 2.194858 -4.840191 0
M  V30 46 H 5.020613 1.099957 -4.894613 0
M  V30 47 H 4.538044 -0.968191 -3.580168 0
M  V30 48 H 2.742689 -0.700858 -3.801298 0
M  V30 49 H 3.457062 -0.849372 -2.153921 0
M  V30 50 H 0.917887 0.777950 -1.779085 0
M  V30 51 H -0.066591 -0.141391 0.202297 0
M  V30 52 H 1.647521 -0.535496 3.531847 0
M  V30 53 H -3.218836 0.358779 0.422509 0
M  V30 54 H -2.134138 -2.088746 -0.618601 0
M  V30 55 H -2.013239 -0.440148 -1.230770 0
M  V30 56 H -3.951266 -0.626926 -2.624834 0
M  V30 57 H -2.838974 -2.031398 -2.881629 0
M  V30 58 H -6.441370 -3.335919 -2.658961 0
M  V30 59 H -4.942769 -3.919966 -3.416272 0
M  V30 60 H -5.525719 -2.222228 -3.737671 0
M  V30 61 H -2.992895 -3.735829 -1.714647 0
M  V30 62 H -5.452888 -2.605396 0.147724 0
M  V30 63 H -6.564697 -1.898769 -1.032412 0
M  V30 64 H -5.140184 0.112612 -1.155673 0
M  V30 65 H -5.662574 -0.268986 0.564541 0
M  V30 66 H -4.155602 -3.819995 5.804759 0
M  V30 67 H -1.637232 -3.166009 6.310297 0
M  V30 END ATOM
M  V30 BEGIN BOND
M  V30 1 1 1 2
M  V30 2 1 2 3
M  V30 3 1 3 4
M  V30 4 2 4 5
M  V30 5 1 5 6
M  V30 6 1 6 7
M  V30 7 2 7 8
M  V30 8 1 7 9
M  V30 9 1 9 10
M  V30 10 1 9 11
M  V30 11 2 6 12
M  V30 12 1 12 13
M  V30 13 2 13 14
M  V30 14 1 14 15
M  V30 15 1 15 16
M  V30 16 2 16 17
M  V30 17 1 17 18
M  V30 18 1 18 19
M  V30 19 1 19 20
M  V30 20 1 20 21
M  V30 21 1 21 22
M  V30 22 1 22 23
M  V30 23 1 23 24
M  V30 24 1 23 25 CFG=1
M  V30 25 1 23 26
M  V30 26 1 26 27
M  V30 27 2 18 28
M  V30 28 1 28 29
M  V30 29 1 29 30
M  V30 30 2 29 31
M  V30 31 1 31 32
M  V30 32 1 32 33
M  V30 33 2 33 34
M  V30 34 1 2 35
M  V30 35 1 35 36
M  V30 36 1 35 37
M  V30 37 1 35 38
M  V30 38 1 14 4
M  V30 39 1 34 16
M  V30 40 1 27 20
M  V30 41 1 33 28
M  V30 42 1 1 39
M  V30 43 1 1 40
M  V30 44 1 1 41
M  V30 45 1 2 42 CFG=3
M  V30 46 1 5 43
M  V30 47 1 10 44
M  V30 48 1 10 45
M  V30 49 1 10 46
M  V30 50 1 11 47
M  V30 51 1 11 48
M  V30 52 1 11 49
M  V30 53 1 12 50
M  V30 54 1 13 51
M  V30 55 1 15 52
M  V30 56 1 20 53 CFG=1
M  V30 57 1 21 54
M  V30 58 1 21 55
M  V30 59 1 22 56
M  V30 60 1 22 57
M  V30 61 1 24 58
M  V30 62 1 24 59
M  V30 63 1 24 60
M  V30 64 1 25 61
M  V30 65 1 26 62
M  V30 66 1 26 63
M  V30 67 1 27 64
M  V30 68 1 27 65
M  V30 69 1 31 66
M  V30 70 1 32 67
M  V30 END BOND
M  V30 END CTAB
M  END
>  <Dataset>  (341) 
ChEMBL_Kinases

>  <Ligand_Instance>  (341) 
nan

>  <PDB_ID>  (341) 
nan

>  <Standardized_SMILES>  (341) 
C[C@@H](Oc1cc(C(=O)N(C)C)ccc1Nc1nc(O[C@H]2CC[C@@](C)(O)CC2)c2c(Cl)c[nH]c2n1)C(F)(F)F

>  <Name>  (341) 
nan

>  <Pocket>  (341) 
nan

>  <ATP_Site>  (341) 
nan

>  <Peripheral>  (341) 
nan

>  <Num_H_Atoms_ProtBoundConf>  (341) 
nan

>  <Num_Resolved_Atoms>  (341) 
nan

>  <Num_Not_Resolved_Atoms>  (341) 
nan

$$$$
CHEMBL3589674
     RDKit          3D

  0  0  0  0  0  0  0  0  0  0999 V3000
M  V30 BEGIN CTAB
M  V30 COUNTS 44 48 0 0 0
M  V30 BEGIN ATOM
M  V30 1 C 4.295233 1.942200 5.731797 0
M  V30 2 O 3.394872 1.635439 4.657926 0
M  V30 3 C 3.869967 1.352791 3.385583 0
M  V30 4 C 5.189068 1.324596 2.982999 0
M  V30 5 C 5.521418 1.026628 1.677642 0
M  V30 6 C 4.551099 0.745265 0.723292 0
M  V30 7 C 3.234394 0.770918 1.115062 0
M  V30 8 C 2.236680 0.473340 0.093193 0
M  V30 9 C 2.425413 0.802323 -1.242342 0
M  V30 10 C 1.459107 0.504275 -2.179139 0
M  V30 11 C 0.283807 -0.123460 -1.831826 0
M  V30 12 N -0.725023 -0.459709 -2.668805 0
M  V30 13 C -1.830436 -1.073917 -2.209614 0
M  V30 14 C -2.836143 -1.381478 -3.199764 0
M  V30 15 O -2.584409 -1.038445 -4.408458 0
M  V30 16 O -3.805774 -1.689959 -4.088863 0
M  V30 17 C -2.059792 -1.418512 -0.896829 0
M  V30 18 C -3.056909 -2.028173 -0.168848 0
M  V30 19 C -4.271188 -2.540683 -0.569342 0
M  V30 20 C -5.119112 -3.113544 0.355254 0
M  V30 21 C -4.664518 -3.129537 1.670908 0
M  V30 22 C -3.457046 -2.625863 2.103715 0
M  V30 23 Cl -2.980276 -2.695743 3.781535 0
M  V30 24 C -2.633626 -2.058880 1.145240 0
M  V30 25 N -1.418798 -1.487331 1.218866 0
M  V30 26 C -1.067654 -1.099575 -0.007538 0
M  V30 27 C 0.047601 -0.471367 -0.518656 0
M  V30 28 C 1.039278 -0.155261 0.385683 0
M  V30 29 C 2.905593 1.069558 2.422326 0
M  V30 30 H 3.767374 1.894174 6.705227 0
M  V30 31 H 5.064039 1.119432 5.769266 0
M  V30 32 H 4.766926 2.920670 5.619300 0
M  V30 33 H 5.911092 1.548078 3.751309 0
M  V30 34 H 6.600836 1.037870 1.490844 0
M  V30 35 H 4.925852 0.522577 -0.280791 0
M  V30 36 H 3.327291 1.293070 -1.559406 0
M  V30 37 H 1.558448 0.742275 -3.243208 0
M  V30 38 H -4.449374 -2.491346 -3.967774 0
M  V30 39 H -4.584857 -2.506925 -1.597662 0
M  V30 40 H -6.088419 -3.540615 0.135630 0
M  V30 41 H -5.286987 -3.569341 2.455983 0
M  V30 42 H -0.832782 -1.357430 2.072603 0
M  V30 43 H 0.927501 -0.399127 1.452297 0
M  V30 44 H 1.848118 1.059924 2.612974 0
M  V30 END ATOM
M  V30 BEGIN BOND
M  V30 1 1 1 2
M  V30 2 1 2 3
M  V30 3 2 3 4
M  V30 4 1 4 5
M  V30 5 2 5 6
M  V30 6 1 6 7
M  V30 7 1 7 8
M  V30 8 2 8 9
M  V30 9 1 9 10
M  V30 10 2 10 11
M  V30 11 1 11 12
M  V30 12 2 12 13
M  V30 13 1 13 14
M  V30 14 2 14 15
M  V30 15 1 14 16
M  V30 16 1 13 17
M  V30 17 1 17 18
M  V30 18 2 18 19
M  V30 19 1 19 20
M  V30 20 2 20 21
M  V30 21 1 21 22
M  V30 22 1 22 23
M  V30 23 2 22 24
M  V30 24 1 24 25
M  V30 25 1 25 26
M  V30 26 1 26 27
M  V30 27 2 27 28
M  V30 28 2 7 29
M  V30 29 1 29 3
M  V30 30 1 28 8
M  V30 31 1 27 11
M  V30 32 2 26 17
M  V30 33 1 24 18
M  V30 34 1 1 30
M  V30 35 1 1 31
M  V30 36 1 1 32
M  V30 37 1 4 33
M  V30 38 1 5 34
M  V30 39 1 6 35
M  V30 40 1 9 36
M  V30 41 1 10 37
M  V30 42 1 16 38
M  V30 43 1 19 39
M  V30 44 1 20 40
M  V30 45 1 21 41
M  V30 46 1 25 42
M  V30 47 1 28 43
M  V30 48 1 29 44
M  V30 END BOND
M  V30 END CTAB
M  END
>  <Dataset>  (342) 
ChEMBL_Kinases

>  <Ligand_Instance>  (342) 
nan

>  <PDB_ID>  (342) 
nan

>  <Standardized_SMILES>  (342) 
COc1cccc(-c2ccc3nc(C(=O)O)c4c5cccc(Cl)c5[nH]c4c3c2)c1

>  <Name>  (342) 
nan

>  <Pocket>  (342) 
nan

>  <ATP_Site>  (342) 
nan

>  <Peripheral>  (342) 
nan

>  <Num_H_Atoms_ProtBoundConf>  (342) 
nan

>  <Num_Resolved_Atoms>  (342) 
nan

>  <Num_Not_Resolved_Atoms>  (342) 
nan

$$$$
CHEMBL4743730
     RDKit          3D

  0  0  0  0  0  0  0  0  0  0999 V3000
M  V30 BEGIN CTAB
M  V30 COUNTS 38 41 0 0 0
M  V30 BEGIN ATOM
M  V30 1 C -0.282195 -4.942506 2.885520 0
M  V30 2 C 0.764273 -4.718018 2.104530 0
M  V30 3 C 1.797150 -5.763115 2.334417 0
M  V30 4 C 0.879327 -3.609573 1.162461 0
M  V30 5 C 1.940437 -3.334036 0.332710 0
M  V30 6 C 1.915862 -2.245738 -0.512888 0
M  V30 7 C 0.838022 -1.382878 -0.572845 0
M  V30 8 C 0.762395 -0.217669 -1.449707 0
M  V30 9 C 1.077813 -0.047048 -2.787559 0
M  V30 10 O 0.846519 1.189652 -3.158587 0
M  V30 11 C 0.383586 1.895723 -2.144690 0
M  V30 12 C -0.010418 3.225976 -2.005859 0
M  V30 13 C -0.468589 3.691823 -0.771125 0
M  V30 14 C -0.517785 2.808576 0.288015 0
M  V30 15 C -0.995505 3.282497 1.586706 0
M  V30 16 C -1.429570 4.559300 1.927093 0
M  V30 17 N -1.778011 4.530032 3.246324 0
M  V30 18 N -1.583082 3.321352 3.723817 0
M  V30 19 C -1.102479 2.521540 2.737840 0
M  V30 20 N -0.130575 1.515482 0.137471 0
M  V30 21 C 0.319685 1.040232 -1.058612 0
M  V30 22 C -0.222857 -1.671012 0.266723 0
M  V30 23 C -0.206268 -2.760035 1.117502 0
M  V30 24 H -0.193858 -5.811194 3.520866 0
M  V30 25 H -1.229253 -4.441204 3.035762 0
M  V30 26 H 1.342001 -6.736621 2.040752 0
M  V30 27 H 2.114378 -5.804732 3.396147 0
M  V30 28 H 2.653109 -5.617544 1.647264 0
M  V30 29 H 2.768887 -4.013804 0.391876 0
M  V30 30 H 2.763543 -2.049711 -1.156721 0
M  V30 31 H 1.458185 -0.845567 -3.403832 0
M  V30 32 H 0.035340 3.904688 -2.849211 0
M  V30 33 H -0.769616 4.727446 -0.684173 0
M  V30 34 H -1.479756 5.412127 1.266726 0
M  V30 35 H -1.750058 2.961722 4.698845 0
M  V30 36 H -0.846502 1.464998 2.838342 0
M  V30 37 H -1.085394 -0.989271 0.225665 0
M  V30 38 H -1.104021 -2.873025 1.724614 0
M  V30 END ATOM
M  V30 BEGIN BOND
M  V30 1 2 1 2
M  V30 2 1 2 3
M  V30 3 1 2 4
M  V30 4 2 4 5
M  V30 5 1 5 6
M  V30 6 2 6 7
M  V30 7 1 7 8
M  V30 8 2 8 9
M  V30 9 1 9 10
M  V30 10 1 10 11
M  V30 11 2 11 12
M  V30 12 1 12 13
M  V30 13 2 13 14
M  V30 14 1 14 15
M  V30 15 1 15 16
M  V30 16 2 16 17
M  V30 17 1 17 18
M  V30 18 1 18 19
M  V30 19 1 14 20
M  V30 20 2 20 21
M  V30 21 1 7 22
M  V30 22 2 22 23
M  V30 23 1 23 4
M  V30 24 1 21 8
M  V30 25 1 21 11
M  V30 26 2 19 15
M  V30 27 1 1 24
M  V30 28 1 1 25
M  V30 29 1 3 26
M  V30 30 1 3 27
M  V30 31 1 3 28
M  V30 32 1 5 29
M  V30 33 1 6 30
M  V30 34 1 9 31
M  V30 35 1 12 32
M  V30 36 1 13 33
M  V30 37 1 16 34
M  V30 38 1 18 35
M  V30 39 1 19 36
M  V30 40 1 22 37
M  V30 41 1 23 38
M  V30 END BOND
M  V30 END CTAB
M  END
>  <Dataset>  (343) 
ChEMBL_Kinases

>  <Ligand_Instance>  (343) 
nan

>  <PDB_ID>  (343) 
nan

>  <Standardized_SMILES>  (343) 
C=C(C)c1ccc(-c2coc3ccc(-c4cn[nH]c4)nc23)cc1

>  <Name>  (343) 
nan

>  <Pocket>  (343) 
nan

>  <ATP_Site>  (343) 
nan

>  <Peripheral>  (343) 
nan

>  <Num_H_Atoms_ProtBoundConf>  (343) 
nan

>  <Num_Resolved_Atoms>  (343) 
nan

>  <Num_Not_Resolved_Atoms>  (343) 
nan

$$$$
CHEMBL1229517
     RDKit          3D

  0  0  0  0  0  0  0  0  0  0999 V3000
M  V30 BEGIN CTAB
M  V30 COUNTS 51 54 0 0 0
M  V30 BEGIN ATOM
M  V30 1 C 2.918687 -2.399836 3.539877 0
M  V30 2 C 3.136319 -2.189833 2.065724 0
M  V30 3 C 4.207355 -1.125120 1.870114 0
M  V30 4 S 4.474671 -0.861046 0.111814 0
M  V30 5 O 5.563045 0.167439 -0.032441 0
M  V30 6 O 4.951342 -2.143308 -0.498111 0
M  V30 7 N 3.002879 -0.338075 -0.620573 0
M  V30 8 C 2.346867 0.855013 -0.265119 0
M  V30 9 C 2.970295 1.820108 0.507476 0
M  V30 10 C 2.288303 2.974986 0.824766 0
M  V30 11 C 0.996371 3.191333 0.389636 0
M  V30 12 F 0.435647 4.383867 0.777995 0
M  V30 13 C 0.343752 2.254137 -0.380217 0
M  V30 14 C -0.990280 2.568008 -0.800944 0
M  V30 15 O -1.395418 3.766373 -0.603135 0
M  V30 16 C -2.060310 1.843611 -1.426866 0
M  V30 17 C -2.825157 2.187500 -2.540869 0
M  V30 18 N -3.703010 1.201652 -2.792128 0
M  V30 19 C -3.570828 0.204765 -1.901100 0
M  V30 20 N -4.249192 -0.951731 -1.789798 0
M  V30 21 C -3.966122 -1.841589 -0.795853 0
M  V30 22 C -2.958757 -1.512681 0.091579 0
M  V30 23 C -2.632765 -2.444056 1.169047 0
M  V30 24 C -3.699443 -3.195029 1.660190 0
M  V30 25 C -3.435172 -4.087991 2.679789 0
M  V30 26 C -2.178278 -4.266728 3.226071 0
M  V30 27 Cl -1.847670 -5.399276 4.518406 0
M  V30 28 C -1.113376 -3.509908 2.728178 0
M  V30 29 C -1.368761 -2.608002 1.701615 0
M  V30 30 C -2.280839 -0.319673 -0.048375 0
M  V30 31 C -2.556042 0.591088 -1.049978 0
M  V30 32 C 1.059229 1.124289 -0.670996 0
M  V30 33 F 0.481557 0.183190 -1.434803 0
M  V30 34 H 2.436790 -3.350908 3.790738 0
M  V30 35 H 3.893106 -2.248367 4.048299 0
M  V30 36 H 2.242739 -1.594604 3.905448 0
M  V30 37 H 2.231260 -1.872187 1.520658 0
M  V30 38 H 3.511841 -3.128532 1.580842 0
M  V30 39 H 5.151870 -1.407681 2.360503 0
M  V30 40 H 3.856456 -0.186180 2.317790 0
M  V30 41 H 2.584518 -0.929135 -1.354409 0
M  V30 42 H 3.980316 1.704971 0.873099 0
M  V30 43 H 2.803155 3.719314 1.434355 0
M  V30 44 H -2.730322 3.101189 -3.114858 0
M  V30 45 H -4.397363 1.210831 -3.578752 0
M  V30 46 H -4.525451 -2.768555 -0.722995 0
M  V30 47 H -4.734950 -3.135133 1.303119 0
M  V30 48 H -4.249946 -4.697996 3.092919 0
M  V30 49 H -0.103905 -3.602421 3.113076 0
M  V30 50 H -0.560357 -2.008881 1.296883 0
M  V30 51 H -1.486955 -0.055910 0.646975 0
M  V30 END ATOM
M  V30 BEGIN BOND
M  V30 1 1 1 2
M  V30 2 1 2 3
M  V30 3 1 3 4
M  V30 4 2 4 5
M  V30 5 2 4 6
M  V30 6 1 4 7
M  V30 7 1 7 8
M  V30 8 2 8 9
M  V30 9 1 9 10
M  V30 10 2 10 11
M  V30 11 1 11 12
M  V30 12 1 11 13
M  V30 13 1 13 14
M  V30 14 2 14 15
M  V30 15 1 14 16
M  V30 16 2 16 17
M  V30 17 1 17 18
M  V30 18 1 18 19
M  V30 19 2 19 20
M  V30 20 1 20 21
M  V30 21 2 21 22
M  V30 22 1 22 23
M  V30 23 2 23 24
M  V30 24 1 24 25
M  V30 25 2 25 26
M  V30 26 1 26 27
M  V30 27 1 26 28
M  V30 28 2 28 29
M  V30 29 1 22 30
M  V30 30 2 30 31
M  V30 31 2 13 32
M  V30 32 1 32 33
M  V30 33 1 32 8
M  V30 34 1 31 16
M  V30 35 1 31 19
M  V30 36 1 29 23
M  V30 37 1 1 34
M  V30 38 1 1 35
M  V30 39 1 1 36
M  V30 40 1 2 37
M  V30 41 1 2 38
M  V30 42 1 3 39
M  V30 43 1 3 40
M  V30 44 1 7 41
M  V30 45 1 9 42
M  V30 46 1 10 43
M  V30 47 1 17 44
M  V30 48 1 18 45
M  V30 49 1 21 46
M  V30 50 1 24 47
M  V30 51 1 25 48
M  V30 52 1 28 49
M  V30 53 1 29 50
M  V30 54 1 30 51
M  V30 END BOND
M  V30 END CTAB
M  END
>  <Dataset>  (344) 
ChEMBL_Kinases

>  <Ligand_Instance>  (344) 
nan

>  <PDB_ID>  (344) 
nan

>  <Standardized_SMILES>  (344) 
CCCS(=O)(=O)Nc1ccc(F)c(C(=O)c2c[nH]c3ncc(-c4ccc(Cl)cc4)cc23)c1F

>  <Name>  (344) 
VEMURAFENIB

>  <Pocket>  (344) 
nan

>  <ATP_Site>  (344) 
nan

>  <Peripheral>  (344) 
nan

>  <Num_H_Atoms_ProtBoundConf>  (344) 
nan

>  <Num_Resolved_Atoms>  (344) 
nan

>  <Num_Not_Resolved_Atoms>  (344) 
nan

$$$$
CHEMBL4441825
     RDKit          3D

  0  0  0  0  0  0  0  0  0  0999 V3000
M  V30 BEGIN CTAB
M  V30 COUNTS 55 58 0 0 0
M  V30 BEGIN ATOM
M  V30 1 C 6.833718 -3.060696 -1.091845 0
M  V30 2 N 6.774273 -1.641245 -0.853245 0
M  V30 3 N 7.847725 -0.853743 -1.053146 0
M  V30 4 C 7.497426 0.412368 -0.749861 0
M  V30 5 C 6.176120 0.321435 -0.366552 0
M  V30 6 Cl 5.581218 1.926278 0.063503 0
M  V30 7 C 5.716868 -0.973922 -0.430840 0
M  V30 8 C 4.367069 -1.251060 -0.068237 0
M  V30 9 C 3.445495 -0.318152 0.353947 0
M  V30 10 C 2.214862 -0.863254 0.640145 0
M  V30 11 C 0.983498 -0.247411 1.106585 0
M  V30 12 O 0.933357 0.986445 1.309145 0
M  V30 13 N -0.159644 -1.061792 1.329173 0
M  V30 14 C -1.444821 -0.624477 1.785232 0 CFG=2
M  V30 15 C -1.803387 -1.234326 3.142987 0
M  V30 16 N -3.193584 -0.943359 3.467685 0
M  V30 17 C -3.681353 0.196896 2.708966 0 CFG=2
M  V30 18 C -5.097407 0.464514 3.178379 0
M  V30 19 C -5.732354 1.643853 2.469699 0
M  V30 20 O -5.820046 1.483546 1.094204 0
M  V30 21 C -3.737152 -0.086100 1.236257 0
M  V30 22 C -2.574024 -0.988341 0.886804 0 CFG=1
M  V30 23 C -2.223556 -0.917539 -0.555798 0
M  V30 24 C -1.770463 0.220695 -1.194799 0
M  V30 25 C -1.453079 0.252629 -2.539352 0
M  V30 26 C -1.603476 -0.930890 -3.271720 0
M  V30 27 F -1.310371 -0.977072 -4.604280 0
M  V30 28 C -2.052766 -2.092976 -2.677683 0
M  V30 29 F -2.201732 -3.245232 -3.380926 0
M  V30 30 C -2.356232 -2.071894 -1.331373 0
M  V30 31 O 2.378005 -2.162782 0.389529 0
M  V30 32 C 3.592006 -2.373573 -0.008838 0
M  V30 33 Cl 3.959639 -4.015690 -0.374019 0
M  V30 34 H 6.737943 -3.677529 -0.197042 0
M  V30 35 H 6.223212 -3.423808 -1.917179 0
M  V30 36 H 7.897630 -3.319382 -1.444934 0
M  V30 37 H 8.311140 1.103788 -0.886416 0
M  V30 38 H 3.488042 0.755357 0.507692 0
M  V30 39 H -0.187190 -2.095187 1.180288 0
M  V30 40 H -1.435517 0.468577 1.935316 0
M  V30 41 H -1.103488 -0.918145 3.938923 0
M  V30 42 H -1.742583 -2.336897 3.040719 0
M  V30 43 H -3.188269 -0.641205 4.470941 0
M  V30 44 H -3.066123 1.098629 2.955594 0
M  V30 45 H -5.706520 -0.437353 2.881003 0
M  V30 46 H -5.172641 0.568739 4.273499 0
M  V30 47 H -6.770215 1.794262 2.825868 0
M  V30 48 H -5.112610 2.544327 2.733491 0
M  V30 49 H -6.649069 0.999121 0.889490 0
M  V30 50 H -4.703791 -0.535295 0.923215 0
M  V30 51 H -3.559501 0.879479 0.688828 0
M  V30 52 H -2.920953 -2.029202 1.159133 0
M  V30 53 H -1.663446 1.115053 -0.612027 0
M  V30 54 H -1.100532 1.156706 -3.015672 0
M  V30 55 H -2.716274 -2.984103 -0.833207 0
M  V30 END ATOM
M  V30 BEGIN BOND
M  V30 1 1 1 2
M  V30 2 1 2 3
M  V30 3 2 3 4
M  V30 4 1 4 5
M  V30 5 1 5 6
M  V30 6 2 5 7
M  V30 7 1 7 8
M  V30 8 1 8 9
M  V30 9 2 9 10
M  V30 10 1 10 11
M  V30 11 2 11 12
M  V30 12 1 11 13
M  V30 13 1 13 14
M  V30 14 1 14 15
M  V30 15 1 15 16
M  V30 16 1 16 17
M  V30 17 1 17 18
M  V30 18 1 18 19
M  V30 19 1 19 20
M  V30 20 1 17 21
M  V30 21 1 21 22
M  V30 22 1 22 23
M  V30 23 2 23 24
M  V30 24 1 24 25
M  V30 25 2 25 26
M  V30 26 1 26 27
M  V30 27 1 26 28
M  V30 28 1 28 29
M  V30 29 2 28 30
M  V30 30 1 10 31
M  V30 31 1 31 32
M  V30 32 1 32 33
M  V30 33 1 7 2
M  V30 34 2 32 8
M  V30 35 1 22 14
M  V30 36 1 30 23
M  V30 37 1 1 34
M  V30 38 1 1 35
M  V30 39 1 1 36
M  V30 40 1 4 37
M  V30 41 1 9 38
M  V30 42 1 13 39
M  V30 43 1 14 40 CFG=1
M  V30 44 1 15 41
M  V30 45 1 15 42
M  V30 46 1 16 43
M  V30 47 1 17 44 CFG=3
M  V30 48 1 18 45
M  V30 49 1 18 46
M  V30 50 1 19 47
M  V30 51 1 19 48
M  V30 52 1 20 49
M  V30 53 1 21 50
M  V30 54 1 21 51
M  V30 55 1 22 52 CFG=1
M  V30 56 1 24 53
M  V30 57 1 25 54
M  V30 58 1 30 55
M  V30 END BOND
M  V30 END CTAB
M  END
>  <Dataset>  (345) 
ChEMBL_Kinases

>  <Ligand_Instance>  (345) 
nan

>  <PDB_ID>  (345) 
nan

>  <Standardized_SMILES>  (345) 
Cn1ncc(Cl)c1-c1cc(C(=O)N[C@@H]2CN[C@H](CCO)C[C@H]2c2ccc(F)c(F)c2)oc1Cl

>  <Name>  (345) 
nan

>  <Pocket>  (345) 
nan

>  <ATP_Site>  (345) 
nan

>  <Peripheral>  (345) 
nan

>  <Num_H_Atoms_ProtBoundConf>  (345) 
nan

>  <Num_Resolved_Atoms>  (345) 
nan

>  <Num_Not_Resolved_Atoms>  (345) 
nan

$$$$
CHEMBL4440965
     RDKit          3D

  0  0  0  0  0  0  0  0  0  0999 V3000
M  V30 BEGIN CTAB
M  V30 COUNTS 58 61 0 0 0
M  V30 BEGIN ATOM
M  V30 1 C 4.837261 -1.922651 5.362033 0
M  V30 2 N 4.671536 -1.791991 3.913154 0
M  V30 3 C 3.905304 -0.693628 3.410507 0
M  V30 4 O 3.444837 0.062162 4.312233 0
M  V30 5 C 3.802889 -0.659405 1.943104 0
M  V30 6 C 2.975016 0.526345 1.427425 0 CFG=2
M  V30 7 C 1.603438 0.480019 1.945624 0
M  V30 8 C 0.493594 0.738281 0.971564 0 CFG=1
M  V30 9 C -0.034855 2.145164 1.122695 0
M  V30 10 C 0.834908 3.153664 0.764755 0
M  V30 11 C 0.466439 4.496618 0.858958 0
M  V30 12 C -0.801080 4.835579 1.322065 0
M  V30 13 F -1.179743 6.131140 1.422018 0
M  V30 14 C -1.654977 3.810599 1.674671 0
M  V30 15 F -2.895086 4.125362 2.128753 0
M  V30 16 C -1.309077 2.477601 1.588421 0
M  V30 17 C 0.787354 0.435293 -0.456915 0 CFG=2
M  V30 18 N -0.324823 -0.359268 -0.985368 0
M  V30 19 C -1.204367 -0.055040 -2.035963 0
M  V30 20 O -1.082918 1.032269 -2.656429 0
M  V30 21 C -2.239093 -1.027030 -2.370170 0
M  V30 22 C -2.583100 -2.278318 -1.846156 0
M  V30 23 C -3.651929 -2.846312 -2.490033 0
M  V30 24 C -4.228603 -4.123221 -2.176713 0
M  V30 25 C -5.282535 -4.793019 -2.732056 0
M  V30 26 Cl -6.344959 -4.361947 -4.037593 0
M  V30 27 C -5.542531 -6.006110 -2.161592 0
M  V30 28 N -4.614427 -6.092648 -1.215778 0
M  V30 29 N -3.849604 -4.988153 -1.230406 0
M  V30 30 C -2.753314 -4.886991 -0.253539 0
M  V30 31 C -3.918974 -1.875934 -3.412053 0
M  V30 32 Cl -5.162759 -1.868212 -4.619381 0
M  V30 33 O -3.121517 -0.838014 -3.351907 0
M  V30 34 C 2.111115 -0.204668 -0.711875 0
M  V30 35 N 3.132128 0.496287 0.009903 0
M  V30 36 H 5.631522 -2.655699 5.573311 0
M  V30 37 H 3.897856 -2.300262 5.823444 0
M  V30 38 H 5.087771 -0.907527 5.757403 0
M  V30 39 H 5.125593 -2.516339 3.294250 0
M  V30 40 H 3.373670 -1.629076 1.608689 0
M  V30 41 H 4.839500 -0.620234 1.551407 0
M  V30 42 H 3.500608 1.434185 1.791549 0
M  V30 43 H 1.477397 1.251996 2.763181 0
M  V30 44 H 1.455721 -0.477630 2.504100 0
M  V30 45 H -0.361285 0.121614 1.317452 0
M  V30 46 H 1.846966 3.001547 0.391578 0
M  V30 47 H 1.110954 5.306001 0.591534 0
M  V30 48 H -1.945835 1.645268 1.853198 0
M  V30 49 H 0.760053 1.364095 -1.104036 0
M  V30 50 H -0.344431 -1.247427 -0.401742 0
M  V30 51 H -1.939431 -2.549386 -1.037045 0
M  V30 52 H -6.231132 -6.804255 -2.280905 0
M  V30 53 H -1.786183 -4.827474 -0.770839 0
M  V30 54 H -2.689565 -5.845333 0.335099 0
M  V30 55 H -2.939181 -4.035190 0.422039 0
M  V30 56 H 2.352849 -0.062379 -1.786621 0
M  V30 57 H 2.151466 -1.279751 -0.422848 0
M  V30 58 H 4.084176 0.321580 -0.320891 0
M  V30 END ATOM
M  V30 BEGIN BOND
M  V30 1 1 1 2
M  V30 2 1 2 3
M  V30 3 2 3 4
M  V30 4 1 3 5
M  V30 5 1 5 6
M  V30 6 1 6 7
M  V30 7 1 7 8
M  V30 8 1 8 9
M  V30 9 2 9 10
M  V30 10 1 10 11
M  V30 11 2 11 12
M  V30 12 1 12 13
M  V30 13 1 12 14
M  V30 14 1 14 15
M  V30 15 2 14 16
M  V30 16 1 8 17
M  V30 17 1 17 18
M  V30 18 1 18 19
M  V30 19 2 19 20
M  V30 20 1 19 21
M  V30 21 2 21 22
M  V30 22 1 22 23
M  V30 23 1 23 24
M  V30 24 2 24 25
M  V30 25 1 25 26
M  V30 26 1 25 27
M  V30 27 2 27 28
M  V30 28 1 28 29
M  V30 29 1 29 30
M  V30 30 2 23 31
M  V30 31 1 31 32
M  V30 32 1 31 33
M  V30 33 1 17 34
M  V30 34 1 34 35
M  V30 35 1 35 6
M  V30 36 1 16 9
M  V30 37 1 33 21
M  V30 38 1 29 24
M  V30 39 1 1 36
M  V30 40 1 1 37
M  V30 41 1 1 38
M  V30 42 1 2 39
M  V30 43 1 5 40
M  V30 44 1 5 41
M  V30 45 1 6 42 CFG=1
M  V30 46 1 7 43
M  V30 47 1 7 44
M  V30 48 1 8 45 CFG=1
M  V30 49 1 10 46
M  V30 50 1 11 47
M  V30 51 1 16 48
M  V30 52 1 17 49 CFG=3
M  V30 53 1 18 50
M  V30 54 1 22 51
M  V30 55 1 27 52
M  V30 56 1 30 53
M  V30 57 1 30 54
M  V30 58 1 30 55
M  V30 59 1 34 56
M  V30 60 1 34 57
M  V30 61 1 35 58
M  V30 END BOND
M  V30 END CTAB
M  END
>  <Dataset>  (346) 
ChEMBL_Kinases

>  <Ligand_Instance>  (346) 
nan

>  <PDB_ID>  (346) 
nan

>  <Standardized_SMILES>  (346) 
CNC(=O)C[C@@H]1C[C@@H](c2ccc(F)c(F)c2)[C@H](NC(=O)c2cc(-c3c(Cl)cnn3C)c(Cl)o2)CN1

>  <Name>  (346) 
nan

>  <Pocket>  (346) 
nan

>  <ATP_Site>  (346) 
nan

>  <Peripheral>  (346) 
nan

>  <Num_H_Atoms_ProtBoundConf>  (346) 
nan

>  <Num_Resolved_Atoms>  (346) 
nan

>  <Num_Not_Resolved_Atoms>  (346) 
nan

$$$$
CHEMBL4098877
     RDKit          3D

  0  0  0  0  0  0  0  0  0  0999 V3000
M  V30 BEGIN CTAB
M  V30 COUNTS 53 57 0 0 0
M  V30 BEGIN ATOM
M  V30 1 C -1.085950 -7.008535 1.008983 0
M  V30 2 C -0.109090 -6.497544 -0.039425 0 CFG=2
M  V30 3 C 0.772649 -5.491407 0.596233 0
M  V30 4 N 0.868645 -4.288607 -0.209058 0
M  V30 5 C 0.773524 -2.969760 0.316106 0
M  V30 6 C 0.857688 -1.791991 -0.396873 0
M  V30 7 C 0.748462 -0.573911 0.238542 0
M  V30 8 C 0.842582 0.649523 -0.547146 0
M  V30 9 N 1.027543 0.856856 -1.859770 0
M  V30 10 N 1.049783 2.132260 -2.147672 0
M  V30 11 C 0.874793 2.850429 -1.000944 0
M  V30 12 C 0.823107 4.208975 -0.781629 0
M  V30 13 C 0.629830 4.672829 0.518716 0
M  V30 14 C 0.492361 3.766066 1.572217 0
M  V30 15 O 0.299131 4.191974 2.875972 0
M  V30 16 C -0.950702 4.421661 3.467663 0
M  V30 17 C -0.884852 4.886939 4.918025 0
M  V30 18 C -2.023745 3.435310 3.205653 0
M  V30 19 C -2.136188 4.866566 2.715307 0
M  V30 20 C 0.554139 2.399594 1.283431 0
M  V30 21 C 0.743763 1.921572 0.010161 0
M  V30 22 N 0.557212 -0.571040 1.576002 0
M  V30 23 C 0.473353 -1.709269 2.282778 0
M  V30 24 N 0.582207 -2.883206 1.645243 0
M  V30 25 C 1.068233 -4.684771 -1.567786 0
M  V30 26 C -0.109553 -5.462494 -2.118017 0 CFG=2
M  V30 27 C -0.986550 -4.604947 -3.001813 0
M  V30 28 O -0.825678 -6.112807 -1.134345 0
M  V30 29 H -1.272059 -8.100158 0.918765 0
M  V30 30 H -0.642889 -6.854933 2.018612 0
M  V30 31 H -2.018601 -6.410428 0.986624 0
M  V30 32 H 0.465547 -7.420495 -0.347206 0
M  V30 33 H 1.791892 -5.957387 0.738857 0
M  V30 34 H 0.371967 -5.163667 1.576049 0
M  V30 35 H 1.008861 -1.880773 -1.445016 0
M  V30 36 H 1.179808 2.559384 -3.099742 0
M  V30 37 H 0.927085 4.932009 -1.582302 0
M  V30 38 H 0.580602 5.747524 0.750479 0
M  V30 39 H -0.524068 5.924652 4.982329 0
M  V30 40 H -0.256132 4.161437 5.467723 0
M  V30 41 H -1.888282 4.827615 5.405049 0
M  V30 42 H -1.964552 2.699493 2.385931 0
M  V30 43 H -2.687518 3.095922 4.033961 0
M  V30 44 H -2.086162 5.079192 1.622467 0
M  V30 45 H -2.911206 5.452863 3.226931 0
M  V30 46 H 0.445153 1.745125 2.111526 0
M  V30 47 H 0.319165 -1.587845 3.348883 0
M  V30 48 H 1.142012 -3.771686 -2.192360 0
M  V30 49 H 2.015495 -5.236801 -1.667767 0
M  V30 50 H 0.326057 -6.249957 -2.770645 0
M  V30 51 H -1.393715 -5.182215 -3.880601 0
M  V30 52 H -0.372696 -3.799634 -3.461490 0
M  V30 53 H -1.896394 -4.233488 -2.486007 0
M  V30 END ATOM
M  V30 BEGIN BOND
M  V30 1 1 1 2
M  V30 2 1 2 3
M  V30 3 1 3 4
M  V30 4 1 4 5
M  V30 5 2 5 6
M  V30 6 1 6 7
M  V30 7 1 7 8
M  V30 8 2 8 9
M  V30 9 1 9 10
M  V30 10 1 10 11
M  V30 11 2 11 12
M  V30 12 1 12 13
M  V30 13 2 13 14
M  V30 14 1 14 15
M  V30 15 1 15 16
M  V30 16 1 16 17
M  V30 17 1 16 18
M  V30 18 1 18 19
M  V30 19 1 14 20
M  V30 20 2 20 21
M  V30 21 2 7 22
M  V30 22 1 22 23
M  V30 23 2 23 24
M  V30 24 1 4 25
M  V30 25 1 25 26
M  V30 26 1 26 27
M  V30 27 1 26 28
M  V30 28 1 28 2
M  V30 29 1 24 5
M  V30 30 1 21 8
M  V30 31 1 21 11
M  V30 32 1 19 16
M  V30 33 1 1 29
M  V30 34 1 1 30
M  V30 35 1 1 31
M  V30 36 1 2 32 CFG=3
M  V30 37 1 3 33
M  V30 38 1 3 34
M  V30 39 1 6 35
M  V30 40 1 10 36
M  V30 41 1 12 37
M  V30 42 1 13 38
M  V30 43 1 17 39
M  V30 44 1 17 40
M  V30 45 1 17 41
M  V30 46 1 18 42
M  V30 47 1 18 43
M  V30 48 1 19 44
M  V30 49 1 19 45
M  V30 50 1 20 46
M  V30 51 1 23 47
M  V30 52 1 25 48
M  V30 53 1 25 49
M  V30 54 1 26 50 CFG=3
M  V30 55 1 27 51
M  V30 56 1 27 52
M  V30 57 1 27 53
M  V30 END BOND
M  V30 END CTAB
M  END
>  <Dataset>  (347) 
ChEMBL_Kinases

>  <Ligand_Instance>  (347) 
nan

>  <PDB_ID>  (347) 
nan

>  <Standardized_SMILES>  (347) 
C[C@@H]1CN(c2cc(-c3n[nH]c4ccc(OC5(C)CC5)cc34)ncn2)C[C@H](C)O1

>  <Name>  (347) 
MLi-2

>  <Pocket>  (347) 
nan

>  <ATP_Site>  (347) 
nan

>  <Peripheral>  (347) 
nan

>  <Num_H_Atoms_ProtBoundConf>  (347) 
nan

>  <Num_Resolved_Atoms>  (347) 
nan

>  <Num_Not_Resolved_Atoms>  (347) 
nan

$$$$
CHEMBL53596
     RDKit          3D

  0  0  0  0  0  0  0  0  0  0999 V3000
M  V30 BEGIN CTAB
M  V30 COUNTS 59 64 0 0 0
M  V30 BEGIN ATOM
M  V30 1 C 4.890718 -1.480571 4.377471 0
M  V30 2 N 4.419407 -1.657632 3.041185 0
M  V30 3 C 3.848447 -0.530098 2.428866 0
M  V30 4 C 3.564772 -0.657122 0.983118 0
M  V30 5 C 2.985604 -1.966712 0.604555 0
M  V30 6 N 1.523618 -1.925842 0.622387 0
M  V30 7 C 0.646008 -1.074536 1.188454 0
M  V30 8 C -0.678419 -1.460489 0.939088 0
M  V30 9 C -1.693454 -0.601863 1.528735 0
M  V30 10 C -2.440382 0.440930 1.187021 0
M  V30 11 C -2.561602 1.218117 -0.023823 0
M  V30 12 C -2.452320 2.614717 0.039279 0
M  V30 13 N -2.616710 3.108819 -1.197464 0
M  V30 14 C -2.566321 4.523675 -1.545124 0
M  V30 15 C -2.833856 2.138982 -2.109940 0
M  V30 16 C -3.071158 2.020404 -3.467393 0
M  V30 17 C -3.271939 0.800753 -4.096139 0
M  V30 18 C -3.231368 -0.364545 -3.316770 0
M  V30 19 C -2.993260 -0.211614 -1.975495 0
M  V30 20 C -2.793970 0.992733 -1.354777 0
M  V30 21 C -3.265053 0.760706 2.371776 0
M  V30 22 O -4.128759 1.702854 2.466805 0
M  V30 23 N -3.010254 -0.113522 3.459583 0
M  V30 24 C -2.009350 -0.982811 2.928332 0
M  V30 25 O -1.566450 -1.903539 3.701371 0
M  V30 26 C -0.549779 -2.605027 0.181913 0
M  V30 27 C -1.621734 -3.320044 -0.280988 0
M  V30 28 C -1.344976 -4.444141 -1.025557 0
M  V30 29 C -0.014691 -4.797800 -1.269807 0
M  V30 30 C 1.035411 -4.028687 -0.768014 0
M  V30 31 C 0.786546 -2.881062 -0.006957 0
M  V30 32 C 3.519867 -3.160411 1.320297 0
M  V30 33 C 3.931496 -2.946455 2.726665 0
M  V30 34 H 4.273727 -2.107652 5.060827 0
M  V30 35 H 5.970377 -1.565302 4.530209 0
M  V30 36 H 4.605694 -0.423215 4.663004 0
M  V30 37 H 3.002127 -0.186464 3.068007 0
M  V30 38 H 4.597414 0.316778 2.531887 0
M  V30 39 H 4.550755 -0.538875 0.447697 0
M  V30 40 H 2.880089 0.138508 0.613216 0
M  V30 41 H 3.233809 -2.132090 -0.490785 0
M  V30 42 H 1.074024 -0.260093 1.720693 0
M  V30 43 H -2.266908 3.244167 0.908739 0
M  V30 44 H -2.789496 4.668954 -2.600394 0
M  V30 45 H -3.365036 5.023762 -0.962123 0
M  V30 46 H -1.583994 4.978458 -1.294692 0
M  V30 47 H -3.091320 2.960508 -4.029773 0
M  V30 48 H -3.458419 0.749539 -5.179040 0
M  V30 49 H -3.389077 -1.345971 -3.791793 0
M  V30 50 H -2.979554 -1.123213 -1.410415 0
M  V30 51 H -3.459969 -0.090856 4.393651 0
M  V30 52 H -2.646950 -3.053820 -0.091386 0
M  V30 53 H -2.125863 -5.080733 -1.442731 0
M  V30 54 H 0.293910 -5.660091 -1.845216 0
M  V30 55 H 2.074922 -4.263097 -0.929262 0
M  V30 56 H 2.690506 -3.931602 1.346436 0
M  V30 57 H 4.326790 -3.671595 0.732708 0
M  V30 58 H 4.728948 -3.681568 2.963737 0
M  V30 59 H 3.086274 -3.187542 3.437693 0
M  V30 END ATOM
M  V30 BEGIN BOND
M  V30 1 1 1 2
M  V30 2 1 2 3
M  V30 3 1 3 4
M  V30 4 1 4 5
M  V30 5 1 5 6
M  V30 6 1 6 7
M  V30 7 2 7 8
M  V30 8 1 8 9
M  V30 9 2 9 10
M  V30 10 1 10 11
M  V30 11 2 11 12
M  V30 12 1 12 13
M  V30 13 1 13 14
M  V30 14 1 13 15
M  V30 15 2 15 16
M  V30 16 1 16 17
M  V30 17 2 17 18
M  V30 18 1 18 19
M  V30 19 2 19 20
M  V30 20 1 10 21
M  V30 21 2 21 22
M  V30 22 1 21 23
M  V30 23 1 23 24
M  V30 24 2 24 25
M  V30 25 1 8 26
M  V30 26 2 26 27
M  V30 27 1 27 28
M  V30 28 2 28 29
M  V30 29 1 29 30
M  V30 30 2 30 31
M  V30 31 1 5 32
M  V30 32 1 32 33
M  V30 33 1 33 2
M  V30 34 1 31 6
M  V30 35 1 24 9
M  V30 36 1 31 26
M  V30 37 1 20 11
M  V30 38 1 20 15
M  V30 39 1 1 34
M  V30 40 1 1 35
M  V30 41 1 1 36
M  V30 42 1 3 37
M  V30 43 1 3 38
M  V30 44 1 4 39
M  V30 45 1 4 40
M  V30 46 1 5 41
M  V30 47 1 7 42
M  V30 48 1 12 43
M  V30 49 1 14 44
M  V30 50 1 14 45
M  V30 51 1 14 46
M  V30 52 1 16 47
M  V30 53 1 17 48
M  V30 54 1 18 49
M  V30 55 1 19 50
M  V30 56 1 23 51
M  V30 57 1 27 52
M  V30 58 1 28 53
M  V30 59 1 29 54
M  V30 60 1 30 55
M  V30 61 1 32 56
M  V30 62 1 32 57
M  V30 63 1 33 58
M  V30 64 1 33 59
M  V30 END BOND
M  V30 END CTAB
M  END
>  <Dataset>  (348) 
ChEMBL_Kinases

>  <Ligand_Instance>  (348) 
nan

>  <PDB_ID>  (348) 
nan

>  <Standardized_SMILES>  (348) 
CN1CCC(n2cc(C3=C(c4cn(C)c5ccccc45)C(=O)NC3=O)c3ccccc32)CC1

>  <Name>  (348) 
nan

>  <Pocket>  (348) 
nan

>  <ATP_Site>  (348) 
nan

>  <Peripheral>  (348) 
nan

>  <Num_H_Atoms_ProtBoundConf>  (348) 
nan

>  <Num_Resolved_Atoms>  (348) 
nan

>  <Num_Not_Resolved_Atoms>  (348) 
nan

$$$$
CHEMBL3338837
     RDKit          3D

  0  0  0  0  0  0  0  0  0  0999 V3000
M  V30 BEGIN CTAB
M  V30 COUNTS 40 42 0 0 0
M  V30 BEGIN ATOM
M  V30 1 C -1.499944 -2.588431 -2.192693 0
M  V30 2 C -0.277025 -3.094619 -1.433893 0
M  V30 3 C -0.682066 -4.208706 -0.508347 0
M  V30 4 N 0.740650 -3.528888 -2.363999 0
M  V30 5 C 0.257404 -1.945958 -0.645122 0
M  V30 6 N -0.748957 -1.464784 0.285336 0
M  V30 7 C -0.401944 -0.363097 1.122713 0
M  V30 8 N 0.814859 0.201617 1.045184 0
M  V30 9 C 1.170908 1.240785 1.820982 0
M  V30 10 C 2.525946 1.805365 1.675992 0
M  V30 11 C 2.926328 2.864891 2.448635 0
M  V30 12 C 4.206395 3.328455 2.247931 0
M  V30 13 N 5.050831 2.791701 1.345860 0
M  V30 14 C 4.629195 1.768299 0.616579 0
M  V30 15 C 3.352579 1.203865 0.723454 0
M  V30 16 N 0.334416 1.789378 2.730210 0
M  V30 17 C -0.905830 1.270534 2.861088 0
M  V30 18 C -1.794019 1.800906 3.778917 0
M  V30 19 N -3.019863 1.256612 3.879549 0
M  V30 20 C -3.418711 0.205928 3.114112 0
M  V30 21 C -2.502390 -0.292669 2.211591 0
M  V30 22 C -1.237797 0.205767 2.050159 0
M  V30 23 H -1.726751 -3.318238 -2.998579 0
M  V30 24 H -2.382173 -2.522153 -1.545802 0
M  V30 25 H -1.256607 -1.579929 -2.563515 0
M  V30 26 H -0.850059 -5.134931 -1.117319 0
M  V30 27 H 0.099797 -4.373639 0.259208 0
M  V30 28 H -1.622696 -3.970464 -0.003641 0
M  V30 29 H 1.664388 -3.228389 -2.020735 0
M  V30 30 H 0.535944 -3.071898 -3.285265 0
M  V30 31 H 0.547495 -1.117872 -1.341734 0
M  V30 32 H 1.177446 -2.208895 -0.069563 0
M  V30 33 H -1.667788 -1.952059 0.288216 0
M  V30 34 H 2.203689 3.239673 3.143337 0
M  V30 35 H 4.510392 4.177606 2.875405 0
M  V30 36 H 5.251056 1.284350 -0.128722 0
M  V30 37 H 3.019804 0.365263 0.119667 0
M  V30 38 H -1.536585 2.638407 4.418553 0
M  V30 39 H -4.412747 -0.198258 3.229683 0
M  V30 40 H -2.872089 -1.123967 1.632394 0
M  V30 END ATOM
M  V30 BEGIN BOND
M  V30 1 1 1 2
M  V30 2 1 2 3
M  V30 3 1 2 4
M  V30 4 1 2 5
M  V30 5 1 5 6
M  V30 6 1 6 7
M  V30 7 2 7 8
M  V30 8 1 8 9
M  V30 9 1 9 10
M  V30 10 2 10 11
M  V30 11 1 11 12
M  V30 12 2 12 13
M  V30 13 1 13 14
M  V30 14 2 14 15
M  V30 15 2 9 16
M  V30 16 1 16 17
M  V30 17 2 17 18
M  V30 18 1 18 19
M  V30 19 2 19 20
M  V30 20 1 20 21
M  V30 21 2 21 22
M  V30 22 1 22 7
M  V30 23 1 15 10
M  V30 24 1 22 17
M  V30 25 1 1 23
M  V30 26 1 1 24
M  V30 27 1 1 25
M  V30 28 1 3 26
M  V30 29 1 3 27
M  V30 30 1 3 28
M  V30 31 1 4 29
M  V30 32 1 4 30
M  V30 33 1 5 31
M  V30 34 1 5 32
M  V30 35 1 6 33
M  V30 36 1 11 34
M  V30 37 1 12 35
M  V30 38 1 14 36
M  V30 39 1 15 37
M  V30 40 1 18 38
M  V30 41 1 20 39
M  V30 42 1 21 40
M  V30 END BOND
M  V30 END CTAB
M  END
>  <Dataset>  (349) 
ChEMBL_Kinases

>  <Ligand_Instance>  (349) 
nan

>  <PDB_ID>  (349) 
nan

>  <Standardized_SMILES>  (349) 
CC(C)(N)CNc1nc(-c2ccncc2)nc2cnccc12

>  <Name>  (349) 
nan

>  <Pocket>  (349) 
nan

>  <ATP_Site>  (349) 
nan

>  <Peripheral>  (349) 
nan

>  <Num_H_Atoms_ProtBoundConf>  (349) 
nan

>  <Num_Resolved_Atoms>  (349) 
nan

>  <Num_Not_Resolved_Atoms>  (349) 
nan

$$$$
CHEMBL5083125
     RDKit          3D

  0  0  0  0  0  0  0  0  0  0999 V3000
M  V30 BEGIN CTAB
M  V30 COUNTS 58 61 0 0 0
M  V30 BEGIN ATOM
M  V30 1 N 4.837085 -5.655514 1.753081 0
M  V30 2 S 5.173130 -3.977933 1.459753 0
M  V30 3 O 6.665001 -3.907773 1.159716 0
M  V30 4 O 4.967794 -3.144012 2.689988 0
M  V30 5 C 4.283854 -3.368850 0.079159 0
M  V30 6 C 4.776589 -3.369174 -1.214784 0
M  V30 7 C 3.988981 -2.861975 -2.246055 0
M  V30 8 C 2.710454 -2.346473 -2.038134 0
M  V30 9 C 2.052431 -1.865645 -3.279825 0
M  V30 10 N 2.347294 -0.479464 -3.580300 0
M  V30 11 C 2.046892 0.662205 -2.794949 0
M  V30 12 N 1.427620 0.627703 -1.628798 0
M  V30 13 C 1.113489 1.667528 -0.839779 0
M  V30 14 N 0.440850 1.558265 0.409547 0
M  V30 15 C -0.986552 1.616055 0.443192 0
M  V30 16 C -1.637900 1.777798 -0.762143 0
M  V30 17 C -3.027460 1.830979 -0.700438 0
M  V30 18 C -3.695917 1.728116 0.489191 0
M  V30 19 C -3.036052 1.566041 1.695723 0
M  V30 20 C -3.720279 1.451305 3.003786 0
M  V30 21 N -4.050978 0.106222 3.385682 0
M  V30 22 C -2.921217 -0.760264 3.503260 0
M  V30 23 C -3.389833 -2.177887 3.702243 0
M  V30 24 O -4.672029 -2.246338 4.226365 0
M  V30 25 C -5.622071 -1.680229 3.393618 0
M  V30 26 C -5.094186 -0.489838 2.616729 0
M  V30 27 C -1.641157 1.510694 1.651161 0
M  V30 28 N 1.457457 2.893641 -1.262506 0
M  V30 29 C 2.103501 3.048200 -2.457142 0
M  V30 30 C 2.393357 1.940466 -3.212559 0
M  V30 31 Br 3.295829 2.181788 -4.878751 0
M  V30 32 C 2.245975 -2.357620 -0.750842 0
M  V30 33 C 3.018977 -2.856997 0.272746 0
M  V30 34 H 4.818933 -5.866745 2.777039 0
M  V30 35 H 3.896521 -5.893571 1.365857 0
M  V30 36 H 5.767151 -3.767827 -1.382771 0
M  V30 37 H 4.479048 -2.913262 -3.217210 0
M  V30 38 H 2.284081 -2.538283 -4.107183 0
M  V30 39 H 0.944535 -1.967709 -3.063431 0
M  V30 40 H 2.847039 -0.311005 -4.498932 0
M  V30 41 H 0.985773 1.436922 1.293304 0
M  V30 42 H -1.151121 1.863236 -1.723297 0
M  V30 43 H -3.655883 1.954701 -1.575371 0
M  V30 44 H -4.767812 1.763473 0.584286 0
M  V30 45 H -4.656183 2.037584 2.958823 0
M  V30 46 H -3.063502 1.852079 3.818897 0
M  V30 47 H -2.340263 -0.430388 4.397001 0
M  V30 48 H -2.349918 -0.680283 2.563729 0
M  V30 49 H -2.720819 -2.699879 4.423874 0
M  V30 50 H -3.342440 -2.776818 2.773546 0
M  V30 51 H -6.426453 -1.296361 4.062160 0
M  V30 52 H -6.094545 -2.430183 2.721410 0
M  V30 53 H -5.938537 0.224181 2.462527 0
M  V30 54 H -4.770403 -0.866482 1.622478 0
M  V30 55 H -1.048173 1.384236 2.564541 0
M  V30 56 H 2.398833 4.030683 -2.833401 0
M  V30 57 H 1.252587 -1.954419 -0.636784 0
M  V30 58 H 2.545231 -2.812752 1.248236 0
M  V30 END ATOM
M  V30 BEGIN BOND
M  V30 1 1 1 2
M  V30 2 2 2 3
M  V30 3 2 2 4
M  V30 4 1 2 5
M  V30 5 2 5 6
M  V30 6 1 6 7
M  V30 7 2 7 8
M  V30 8 1 8 9
M  V30 9 1 9 10
M  V30 10 1 10 11
M  V30 11 2 11 12
M  V30 12 1 12 13
M  V30 13 1 13 14
M  V30 14 1 14 15
M  V30 15 2 15 16
M  V30 16 1 16 17
M  V30 17 2 17 18
M  V30 18 1 18 19
M  V30 19 1 19 20
M  V30 20 1 20 21
M  V30 21 1 21 22
M  V30 22 1 22 23
M  V30 23 1 23 24
M  V30 24 1 24 25
M  V30 25 1 25 26
M  V30 26 2 19 27
M  V30 27 2 13 28
M  V30 28 1 28 29
M  V30 29 2 29 30
M  V30 30 1 30 31
M  V30 31 1 8 32
M  V30 32 2 32 33
M  V30 33 1 33 5
M  V30 34 1 30 11
M  V30 35 1 27 15
M  V30 36 1 26 21
M  V30 37 1 1 34
M  V30 38 1 1 35
M  V30 39 1 6 36
M  V30 40 1 7 37
M  V30 41 1 9 38
M  V30 42 1 9 39
M  V30 43 1 10 40
M  V30 44 1 14 41
M  V30 45 1 16 42
M  V30 46 1 17 43
M  V30 47 1 18 44
M  V30 48 1 20 45
M  V30 49 1 20 46
M  V30 50 1 22 47
M  V30 51 1 22 48
M  V30 52 1 23 49
M  V30 53 1 23 50
M  V30 54 1 25 51
M  V30 55 1 25 52
M  V30 56 1 26 53
M  V30 57 1 26 54
M  V30 58 1 27 55
M  V30 59 1 29 56
M  V30 60 1 32 57
M  V30 61 1 33 58
M  V30 END BOND
M  V30 END CTAB
M  END
>  <Dataset>  (350) 
ChEMBL_Kinases

>  <Ligand_Instance>  (350) 
nan

>  <PDB_ID>  (350) 
nan

>  <Standardized_SMILES>  (350) 
NS(=O)(=O)c1ccc(CNc2nc(Nc3cccc(CN4CCOCC4)c3)ncc2Br)cc1

>  <Name>  (350) 
nan

>  <Pocket>  (350) 
nan

>  <ATP_Site>  (350) 
nan

>  <Peripheral>  (350) 
nan

>  <Num_H_Atoms_ProtBoundConf>  (350) 
nan

>  <Num_Resolved_Atoms>  (350) 
nan

>  <Num_Not_Resolved_Atoms>  (350) 
nan

$$$$
CHEMBL3735506
     RDKit          3D

  0  0  0  0  0  0  0  0  0  0999 V3000
M  V30 BEGIN CTAB
M  V30 COUNTS 57 60 0 0 0
M  V30 BEGIN ATOM
M  V30 1 C 1.245595 -4.278886 1.631146 0
M  V30 2 O 2.480261 -3.630622 1.510207 0
M  V30 3 C 3.118141 -3.987224 0.332308 0
M  V30 4 C 4.461840 -3.322855 0.138550 0
M  V30 5 N 4.329310 -1.932002 0.105816 0
M  V30 6 C 3.973484 -1.212895 1.263853 0
M  V30 7 C 2.755396 -0.366648 0.938730 0
M  V30 8 C 2.809563 0.083617 -0.482611 0
M  V30 9 C 2.002660 1.329958 -0.742698 0
M  V30 10 N 0.626778 1.049672 -0.411594 0
M  V30 11 C -0.143078 2.192841 -0.642380 0
M  V30 12 O 0.678266 3.078074 -1.069682 0
M  V30 13 C -1.530729 2.566527 -0.518525 0
M  V30 14 N -1.845160 3.845102 -0.835962 0
M  V30 15 N -3.151421 4.021013 -0.670667 0
M  V30 16 C -3.775624 2.915707 -0.248345 0
M  V30 17 C -5.034456 2.469479 0.087665 0
M  V30 18 C -5.267253 1.170654 0.499844 0
M  V30 19 C -4.190985 0.282496 0.578208 0
M  V30 20 C -4.453941 -1.084954 1.012760 0
M  V30 21 C -5.563967 -1.709190 0.431612 0
M  V30 22 C -5.896287 -3.002944 0.775146 0
M  V30 23 C -5.168388 -3.739112 1.691906 0
M  V30 24 C -4.063692 -3.113599 2.268590 0
M  V30 25 F -3.292601 -3.754530 3.174606 0
M  V30 26 C -3.730024 -1.820954 1.926465 0
M  V30 27 F -2.676966 -1.188158 2.460744 0
M  V30 28 C -2.934449 0.722709 0.244464 0
M  V30 29 C -2.720379 2.000946 -0.158606 0
M  V30 30 C 4.251863 0.210374 -0.905414 0
M  V30 31 C 4.829298 -1.203357 -0.996640 0
M  V30 32 H 0.551879 -4.040594 0.810967 0
M  V30 33 H 1.448953 -5.384140 1.551979 0
M  V30 34 H 0.823564 -4.133857 2.649012 0
M  V30 35 H 2.403843 -3.697630 -0.486028 0
M  V30 36 H 3.208446 -5.094590 0.224443 0
M  V30 37 H 4.895463 -3.702182 -0.814386 0
M  V30 38 H 5.142516 -3.638819 0.979633 0
M  V30 39 H 3.829180 -1.880015 2.132534 0
M  V30 40 H 4.835548 -0.505447 1.484881 0
M  V30 41 H 1.860150 -0.977411 1.174724 0
M  V30 42 H 2.784844 0.564125 1.578803 0
M  V30 43 H 2.394277 -0.764312 -1.101437 0
M  V30 44 H 2.099136 1.562175 -1.817416 0
M  V30 45 H 2.449328 2.139365 -0.162686 0
M  V30 46 H 0.059779 0.254591 -0.056823 0
M  V30 47 H -3.653769 4.916022 -0.845704 0
M  V30 48 H -5.826147 3.219467 0.002816 0
M  V30 49 H -6.282274 0.871220 0.753637 0
M  V30 50 H -6.191384 -1.200024 -0.299709 0
M  V30 51 H -6.750722 -3.496476 0.333628 0
M  V30 52 H -5.423364 -4.753432 1.964754 0
M  V30 53 H -2.140535 0.012942 0.316637 0
M  V30 54 H 4.339630 0.726730 -1.890576 0
M  V30 55 H 4.820798 0.737754 -0.114382 0
M  V30 56 H 5.919525 -1.211535 -1.147582 0
M  V30 57 H 4.340295 -1.628918 -1.920126 0
M  V30 END ATOM
M  V30 BEGIN BOND
M  V30 1 1 1 2
M  V30 2 1 2 3
M  V30 3 1 3 4
M  V30 4 1 4 5
M  V30 5 1 5 6
M  V30 6 1 6 7
M  V30 7 1 7 8
M  V30 8 1 8 9
M  V30 9 1 9 10
M  V30 10 1 10 11
M  V30 11 2 11 12
M  V30 12 1 11 13
M  V30 13 2 13 14
M  V30 14 1 14 15
M  V30 15 1 15 16
M  V30 16 2 16 17
M  V30 17 1 17 18
M  V30 18 2 18 19
M  V30 19 1 19 20
M  V30 20 2 20 21
M  V30 21 1 21 22
M  V30 22 2 22 23
M  V30 23 1 23 24
M  V30 24 1 24 25
M  V30 25 2 24 26
M  V30 26 1 26 27
M  V30 27 1 19 28
M  V30 28 2 28 29
M  V30 29 1 8 30
M  V30 30 1 30 31
M  V30 31 1 31 5
M  V30 32 1 29 13
M  V30 33 1 29 16
M  V30 34 1 26 20
M  V30 35 1 1 32
M  V30 36 1 1 33
M  V30 37 1 1 34
M  V30 38 1 3 35
M  V30 39 1 3 36
M  V30 40 1 4 37
M  V30 41 1 4 38
M  V30 42 1 6 39
M  V30 43 1 6 40
M  V30 44 1 7 41
M  V30 45 1 7 42
M  V30 46 1 8 43
M  V30 47 1 9 44
M  V30 48 1 9 45
M  V30 49 1 10 46
M  V30 50 1 15 47
M  V30 51 1 17 48
M  V30 52 1 18 49
M  V30 53 1 21 50
M  V30 54 1 22 51
M  V30 55 1 23 52
M  V30 56 1 28 53
M  V30 57 1 30 54
M  V30 58 1 30 55
M  V30 59 1 31 56
M  V30 60 1 31 57
M  V30 END BOND
M  V30 END CTAB
M  END
>  <Dataset>  (351) 
ChEMBL_Kinases

>  <Ligand_Instance>  (351) 
nan

>  <PDB_ID>  (351) 
nan

>  <Standardized_SMILES>  (351) 
COCCN1CCC(CNC(=O)c2n[nH]c3ccc(-c4cccc(F)c4F)cc23)CC1

>  <Name>  (351) 
nan

>  <Pocket>  (351) 
nan

>  <ATP_Site>  (351) 
nan

>  <Peripheral>  (351) 
nan

>  <Num_H_Atoms_ProtBoundConf>  (351) 
nan

>  <Num_Resolved_Atoms>  (351) 
nan

>  <Num_Not_Resolved_Atoms>  (351) 
nan

$$$$
CHEMBL3589665
     RDKit          3D

  0  0  0  0  0  0  0  0  0  0999 V3000
M  V30 BEGIN CTAB
M  V30 COUNTS 34 37 0 0 0
M  V30 BEGIN ATOM
M  V30 1 C 2.953346 -5.604946 1.621976 0
M  V30 2 O 2.996484 -4.530062 0.671106 0
M  V30 3 C 2.085690 -3.487239 0.771847 0
M  V30 4 C 1.106466 -3.424246 1.770649 0
M  V30 5 C 0.229941 -2.358545 1.815338 0
M  V30 6 C 0.318727 -1.355268 0.875692 0
M  V30 7 C 1.290116 -1.449215 -0.088647 0
M  V30 8 C 2.197064 -2.482669 -0.193151 0
M  V30 9 N 1.303942 -0.443828 -0.949611 0
M  V30 10 C 0.494450 0.619996 -0.975393 0
M  V30 11 C 0.713365 1.584932 -2.022895 0
M  V30 12 O 0.420140 2.626402 -2.602701 0
M  V30 13 O 1.707906 1.467195 -2.957537 0
M  V30 14 C -0.450801 0.657156 0.008766 0
M  V30 15 C -1.430374 1.562052 0.300154 0
M  V30 16 C -1.818397 2.734743 -0.269084 0
M  V30 17 C -2.859823 3.491093 0.214081 0
M  V30 18 C -3.551458 3.033311 1.342453 0
M  V30 19 C -3.174375 1.846938 1.934988 0
M  V30 20 Cl -4.014152 1.241931 3.346430 0
M  V30 21 C -2.122872 1.130646 1.407300 0
M  V30 22 N -1.586855 -0.032344 1.809823 0
M  V30 23 C -0.580653 -0.319401 0.970068 0
M  V30 24 H 3.703496 -6.365768 1.397817 0
M  V30 25 H 3.012582 -5.169924 2.620895 0
M  V30 26 H 1.955342 -6.059439 1.520748 0
M  V30 27 H 1.108425 -4.267298 2.477983 0
M  V30 28 H -0.490231 -2.401980 2.625440 0
M  V30 29 H 2.922188 -2.479095 -0.975034 0
M  V30 30 H 2.466396 2.092629 -3.128053 0
M  V30 31 H -1.411388 3.222797 -1.116482 0
M  V30 32 H -3.249471 4.433180 -0.159483 0
M  V30 33 H -4.378152 3.573637 1.776512 0
M  V30 34 H -1.868668 -0.630853 2.616246 0
M  V30 END ATOM
M  V30 BEGIN BOND
M  V30 1 1 1 2
M  V30 2 1 2 3
M  V30 3 2 3 4
M  V30 4 1 4 5
M  V30 5 2 5 6
M  V30 6 1 6 7
M  V30 7 2 7 8
M  V30 8 1 7 9
M  V30 9 2 9 10
M  V30 10 1 10 11
M  V30 11 2 11 12
M  V30 12 1 11 13
M  V30 13 1 10 14
M  V30 14 1 14 15
M  V30 15 2 15 16
M  V30 16 1 16 17
M  V30 17 2 17 18
M  V30 18 1 18 19
M  V30 19 1 19 20
M  V30 20 2 19 21
M  V30 21 1 21 22
M  V30 22 1 22 23
M  V30 23 1 8 3
M  V30 24 2 23 14
M  V30 25 1 23 6
M  V30 26 1 21 15
M  V30 27 1 1 24
M  V30 28 1 1 25
M  V30 29 1 1 26
M  V30 30 1 4 27
M  V30 31 1 5 28
M  V30 32 1 8 29
M  V30 33 1 13 30
M  V30 34 1 16 31
M  V30 35 1 17 32
M  V30 36 1 18 33
M  V30 37 1 22 34
M  V30 END BOND
M  V30 END CTAB
M  END
>  <Dataset>  (352) 
ChEMBL_Kinases

>  <Ligand_Instance>  (352) 
nan

>  <PDB_ID>  (352) 
nan

>  <Standardized_SMILES>  (352) 
COc1ccc2c(c1)nc(C(=O)O)c1c3cccc(Cl)c3[nH]c21

>  <Name>  (352) 
nan

>  <Pocket>  (352) 
nan

>  <ATP_Site>  (352) 
nan

>  <Peripheral>  (352) 
nan

>  <Num_H_Atoms_ProtBoundConf>  (352) 
nan

>  <Num_Resolved_Atoms>  (352) 
nan

>  <Num_Not_Resolved_Atoms>  (352) 
nan

$$$$
CHEMBL4061394
     RDKit          3D

  0  0  0  0  0  0  0  0  0  0999 V3000
M  V30 BEGIN CTAB
M  V30 COUNTS 24 26 0 0 0
M  V30 BEGIN ATOM
M  V30 1 Cl 2.155945 -3.941174 3.919408 0
M  V30 2 C 1.393187 -3.161905 2.524502 0
M  V30 3 C 1.136340 -3.963123 1.431682 0
M  V30 4 C 0.534024 -3.377635 0.312659 0
M  V30 5 C 0.187284 -2.028142 0.261563 0
M  V30 6 C 0.478977 -1.287270 1.403612 0
M  V30 7 C 0.149677 0.133828 1.436818 0
M  V30 8 C -0.463839 0.809154 2.495635 0
M  V30 9 N -0.588036 2.097359 2.127912 0
M  V30 10 C -0.089617 2.267349 0.904486 0
M  V30 11 C 0.009471 3.409350 0.101079 0
M  V30 12 C 0.584226 3.293250 -1.151972 0
M  V30 13 C 1.037820 2.035140 -1.551220 0
M  V30 14 Cl 1.754829 1.952432 -3.145800 0
M  V30 15 N 0.906031 0.991572 -0.722934 0
M  V30 16 N 0.361800 1.070235 0.479374 0
M  V30 17 C 1.072526 -1.819550 2.532533 0
M  V30 18 H 1.391695 -5.015639 1.434888 0
M  V30 19 H 0.321592 -3.998685 -0.566784 0
M  V30 20 H -0.276184 -1.600182 -0.612721 0
M  V30 21 H -0.782806 0.374484 3.443304 0
M  V30 22 H -0.360962 4.376807 0.457504 0
M  V30 23 H 0.654960 4.183010 -1.763162 0
M  V30 24 H 1.283200 -1.208920 3.401646 0
M  V30 END ATOM
M  V30 BEGIN BOND
M  V30 1 1 1 2
M  V30 2 2 2 3
M  V30 3 1 3 4
M  V30 4 2 4 5
M  V30 5 1 5 6
M  V30 6 1 6 7
M  V30 7 2 7 8
M  V30 8 1 8 9
M  V30 9 2 9 10
M  V30 10 1 10 11
M  V30 11 2 11 12
M  V30 12 1 12 13
M  V30 13 1 13 14
M  V30 14 2 13 15
M  V30 15 1 15 16
M  V30 16 2 6 17
M  V30 17 1 17 2
M  V30 18 1 16 7
M  V30 19 1 16 10
M  V30 20 1 3 18
M  V30 21 1 4 19
M  V30 22 1 5 20
M  V30 23 1 8 21
M  V30 24 1 11 22
M  V30 25 1 12 23
M  V30 26 1 17 24
M  V30 END BOND
M  V30 END CTAB
M  END
>  <Dataset>  (353) 
ChEMBL_Kinases

>  <Ligand_Instance>  (353) 
nan

>  <PDB_ID>  (353) 
nan

>  <Standardized_SMILES>  (353) 
Clc1cccc(-c2cnc3ccc(Cl)nn23)c1

>  <Name>  (353) 
nan

>  <Pocket>  (353) 
nan

>  <ATP_Site>  (353) 
nan

>  <Peripheral>  (353) 
nan

>  <Num_H_Atoms_ProtBoundConf>  (353) 
nan

>  <Num_Resolved_Atoms>  (353) 
nan

>  <Num_Not_Resolved_Atoms>  (353) 
nan

$$$$
CHEMBL301860
     RDKit          3D

  0  0  0  0  0  0  0  0  0  0999 V3000
M  V30 BEGIN CTAB
M  V30 COUNTS 65 70 0 0 0
M  V30 BEGIN ATOM
M  V30 1 C 2.154209 0.121644 4.974687 0
M  V30 2 C 1.412554 1.103622 4.054350 0
M  V30 3 C 2.397839 1.395597 2.936168 0
M  V30 4 N 0.331392 0.343288 3.484654 0
M  V30 5 C -0.560504 -0.199136 4.472630 0
M  V30 6 C -1.170779 -1.437108 3.773086 0
M  V30 7 C -1.982227 -0.953070 2.592377 0
M  V30 8 N -1.800718 -1.746676 1.406492 0
M  V30 9 C -1.774338 -1.300723 0.116400 0
M  V30 10 C -1.589345 -2.345623 -0.795967 0
M  V30 11 C -1.514658 -2.209399 -2.254824 0
M  V30 12 C -0.851300 -1.378416 -3.043765 0
M  V30 13 C 0.042044 -0.310752 -2.621450 0
M  V30 14 C 1.010262 -0.443847 -1.635115 0
M  V30 15 N 1.660528 0.721957 -1.478565 0
M  V30 16 C 2.759131 1.122254 -0.589209 0
M  V30 17 C 1.170270 1.653434 -2.325009 0
M  V30 18 C 1.425260 2.991331 -2.610902 0
M  V30 19 C 0.727834 3.703790 -3.560611 0
M  V30 20 C -0.261711 3.035925 -4.242829 0
M  V30 21 C -0.525043 1.712608 -3.970995 0
M  V30 22 C 0.174832 1.001215 -3.020537 0
M  V30 23 C -1.158732 -1.698224 -4.454670 0
M  V30 24 O -0.746785 -1.165937 -5.520877 0
M  V30 25 N -2.081251 -2.806920 -4.499866 0
M  V30 26 C -2.302351 -3.124140 -3.110763 0
M  V30 27 O -3.106000 -4.095436 -2.898759 0
M  V30 28 C -1.501544 -3.459838 0.011198 0
M  V30 29 C -1.310756 -4.768791 -0.354224 0
M  V30 30 C -1.243047 -5.763166 0.594957 0
M  V30 31 C -1.370745 -5.424670 1.940391 0
M  V30 32 C -1.558626 -4.100501 2.240034 0
M  V30 33 C -1.632830 -3.068276 1.328140 0
M  V30 34 C -1.817594 0.526171 2.374808 0
M  V30 35 C -0.429032 1.022730 2.483478 0
M  V30 36 H 3.262928 0.261303 4.902546 0
M  V30 37 H 1.950269 -0.932581 4.690045 0
M  V30 38 H 1.883834 0.300531 6.030519 0
M  V30 39 H 1.116605 1.986285 4.620731 0
M  V30 40 H 2.078573 2.311619 2.435934 0
M  V30 41 H 3.443004 1.411717 3.310772 0
M  V30 42 H 2.362578 0.529272 2.219297 0
M  V30 43 H -0.047063 -0.583191 5.378141 0
M  V30 44 H -1.408127 0.434358 4.747300 0
M  V30 45 H -1.758412 -1.943900 4.540657 0
M  V30 46 H -0.275273 -1.968604 3.408693 0
M  V30 47 H -3.060854 -1.096324 2.894892 0
M  V30 48 H -1.875747 -0.280794 -0.251943 0
M  V30 49 H 1.270287 -1.321778 -1.030640 0
M  V30 50 H 3.552863 1.651836 -1.192594 0
M  V30 51 H 2.337833 1.882584 0.088775 0
M  V30 52 H 3.157526 0.272621 -0.024036 0
M  V30 53 H 2.208477 3.491114 -2.058235 0
M  V30 54 H 0.971248 4.751461 -3.742875 0
M  V30 55 H -0.792285 3.625024 -4.983734 0
M  V30 56 H -1.312817 1.271742 -4.537829 0
M  V30 57 H -2.468295 -3.240470 -5.373137 0
M  V30 58 H -1.189960 -5.136445 -1.354627 0
M  V30 59 H -1.093921 -6.815010 0.348567 0
M  V30 60 H -1.317289 -6.203538 2.685105 0
M  V30 61 H -1.654336 -3.905636 3.280842 0
M  V30 62 H -2.474548 1.073684 3.114953 0
M  V30 63 H -2.234070 0.800037 1.393444 0
M  V30 64 H 0.155010 0.991961 1.518687 0
M  V30 65 H -0.445337 2.118400 2.749629 0
M  V30 END ATOM
M  V30 BEGIN BOND
M  V30 1 1 1 2
M  V30 2 1 2 3
M  V30 3 1 2 4
M  V30 4 1 4 5
M  V30 5 1 5 6
M  V30 6 1 6 7
M  V30 7 1 7 8
M  V30 8 1 8 9
M  V30 9 2 9 10
M  V30 10 1 10 11
M  V30 11 2 11 12
M  V30 12 1 12 13
M  V30 13 2 13 14
M  V30 14 1 14 15
M  V30 15 1 15 16
M  V30 16 1 15 17
M  V30 17 2 17 18
M  V30 18 1 18 19
M  V30 19 2 19 20
M  V30 20 1 20 21
M  V30 21 2 21 22
M  V30 22 1 12 23
M  V30 23 2 23 24
M  V30 24 1 23 25
M  V30 25 1 25 26
M  V30 26 2 26 27
M  V30 27 1 10 28
M  V30 28 2 28 29
M  V30 29 1 29 30
M  V30 30 2 30 31
M  V30 31 1 31 32
M  V30 32 2 32 33
M  V30 33 1 7 34
M  V30 34 1 34 35
M  V30 35 1 35 4
M  V30 36 1 33 8
M  V30 37 1 26 11
M  V30 38 1 33 28
M  V30 39 1 22 13
M  V30 40 1 22 17
M  V30 41 1 1 36
M  V30 42 1 1 37
M  V30 43 1 1 38
M  V30 44 1 2 39
M  V30 45 1 3 40
M  V30 46 1 3 41
M  V30 47 1 3 42
M  V30 48 1 5 43
M  V30 49 1 5 44
M  V30 50 1 6 45
M  V30 51 1 6 46
M  V30 52 1 7 47
M  V30 53 1 9 48
M  V30 54 1 14 49
M  V30 55 1 16 50
M  V30 56 1 16 51
M  V30 57 1 16 52
M  V30 58 1 18 53
M  V30 59 1 19 54
M  V30 60 1 20 55
M  V30 61 1 21 56
M  V30 62 1 25 57
M  V30 63 1 29 58
M  V30 64 1 30 59
M  V30 65 1 31 60
M  V30 66 1 32 61
M  V30 67 1 34 62
M  V30 68 1 34 63
M  V30 69 1 35 64
M  V30 70 1 35 65
M  V30 END BOND
M  V30 END CTAB
M  END
>  <Dataset>  (354) 
ChEMBL_Kinases

>  <Ligand_Instance>  (354) 
nan

>  <PDB_ID>  (354) 
nan

>  <Standardized_SMILES>  (354) 
CC(C)N1CCC(n2cc(C3=C(c4cn(C)c5ccccc45)C(=O)NC3=O)c3ccccc32)CC1

>  <Name>  (354) 
nan

>  <Pocket>  (354) 
nan

>  <ATP_Site>  (354) 
nan

>  <Peripheral>  (354) 
nan

>  <Num_H_Atoms_ProtBoundConf>  (354) 
nan

>  <Num_Resolved_Atoms>  (354) 
nan

>  <Num_Not_Resolved_Atoms>  (354) 
nan

$$$$
CHEMBL4062683
     RDKit          3D

  0  0  0  0  0  0  0  0  0  0999 V3000
M  V30 BEGIN CTAB
M  V30 COUNTS 43 45 0 0 0
M  V30 BEGIN ATOM
M  V30 1 C -0.552143 -5.018514 1.042857 0
M  V30 2 C -1.512706 -3.966509 0.604901 0
M  V30 3 C -1.008985 -3.117470 -0.558657 0 CFG=1
M  V30 4 C -2.091622 -2.112899 -0.862438 0
M  V30 5 O -2.227346 -1.292766 0.255014 0
M  V30 6 N 0.256041 -2.478731 -0.277438 0
M  V30 7 C 1.114297 -1.533234 -0.927025 0
M  V30 8 C 1.807723 -1.702654 -2.123933 0
M  V30 9 C 2.591036 -0.635545 -2.542590 0
M  V30 10 C 2.663540 0.520795 -1.796759 0
M  V30 11 N 3.341010 1.665476 -1.991512 0
M  V30 12 C 3.073937 2.507208 -0.950326 0
M  V30 13 C 2.206844 1.858552 -0.092515 0
M  V30 14 C 1.618897 2.323168 1.181858 0
M  V30 15 C 1.950431 3.583301 1.634181 0
M  V30 16 C 1.394857 3.996986 2.828004 0
M  V30 17 N 0.560179 3.217082 3.538380 0
M  V30 18 C 0.262088 1.977332 3.049234 0
M  V30 19 S -0.817057 0.901737 3.921449 0
M  V30 20 C 0.142106 -0.083718 5.041622 0
M  V30 21 O -1.784871 1.724324 4.746973 0
M  V30 22 O -1.607991 0.030473 2.999402 0
M  V30 23 N 0.773085 1.520863 1.892440 0
M  V30 24 N 1.978079 0.641188 -0.648153 0
M  V30 25 N 1.236332 -0.355555 -0.241803 0
M  V30 26 H -1.122713 -5.940962 1.305582 0
M  V30 27 H 0.252670 -5.257357 0.335022 0
M  V30 28 H -0.087518 -4.682850 2.002436 0
M  V30 29 H -1.845191 -3.316065 1.437766 0
M  V30 30 H -2.458699 -4.429648 0.201729 0
M  V30 31 H -0.896696 -3.834907 -1.423054 0
M  V30 32 H -3.039586 -2.718003 -0.936612 0
M  V30 33 H -1.898895 -1.557232 -1.804204 0
M  V30 34 H -2.494478 -0.371279 0.013500 0
M  V30 35 H 0.696900 -2.761531 0.648813 0
M  V30 36 H 1.650799 -2.663208 -2.595302 0
M  V30 37 H 3.112330 -0.801099 -3.470659 0
M  V30 38 H 3.458516 3.505232 -0.798356 0
M  V30 39 H 2.603562 4.264918 1.132895 0
M  V30 40 H 1.559691 4.965992 3.321384 0
M  V30 41 H -0.396083 -1.011953 5.312718 0
M  V30 42 H 1.090171 -0.414742 4.534851 0
M  V30 43 H 0.422428 0.474427 5.947116 0
M  V30 END ATOM
M  V30 BEGIN BOND
M  V30 1 1 1 2
M  V30 2 1 2 3
M  V30 3 1 3 4
M  V30 4 1 4 5
M  V30 5 1 3 6
M  V30 6 1 6 7
M  V30 7 1 7 8
M  V30 8 2 8 9
M  V30 9 1 9 10
M  V30 10 2 10 11
M  V30 11 1 11 12
M  V30 12 2 12 13
M  V30 13 1 13 14
M  V30 14 2 14 15
M  V30 15 1 15 16
M  V30 16 2 16 17
M  V30 17 1 17 18
M  V30 18 1 18 19
M  V30 19 1 19 20
M  V30 20 2 19 21
M  V30 21 2 19 22
M  V30 22 2 18 23
M  V30 23 1 13 24
M  V30 24 1 24 25
M  V30 25 2 25 7
M  V30 26 1 24 10
M  V30 27 1 23 14
M  V30 28 1 1 26
M  V30 29 1 1 27
M  V30 30 1 1 28
M  V30 31 1 2 29
M  V30 32 1 2 30
M  V30 33 1 3 31 CFG=3
M  V30 34 1 4 32
M  V30 35 1 4 33
M  V30 36 1 5 34
M  V30 37 1 6 35
M  V30 38 1 8 36
M  V30 39 1 9 37
M  V30 40 1 12 38
M  V30 41 1 15 39
M  V30 42 1 16 40
M  V30 43 1 20 41
M  V30 44 1 20 42
M  V30 45 1 20 43
M  V30 END BOND
M  V30 END CTAB
M  END
>  <Dataset>  (355) 
ChEMBL_Kinases

>  <Ligand_Instance>  (355) 
nan

>  <PDB_ID>  (355) 
nan

>  <Standardized_SMILES>  (355) 
CC[C@@H](CO)Nc1ccc2ncc(-c3ccnc(S(C)(=O)=O)n3)n2n1

>  <Name>  (355) 
nan

>  <Pocket>  (355) 
nan

>  <ATP_Site>  (355) 
nan

>  <Peripheral>  (355) 
nan

>  <Num_H_Atoms_ProtBoundConf>  (355) 
nan

>  <Num_Resolved_Atoms>  (355) 
nan

>  <Num_Not_Resolved_Atoms>  (355) 
nan

$$$$
CHEMBL191384
     RDKit          3D

  0  0  0  0  0  0  0  0  0  0999 V3000
M  V30 BEGIN CTAB
M  V30 COUNTS 43 46 0 0 0
M  V30 BEGIN ATOM
M  V30 1 N 3.390604 0.792216 5.012429 0
M  V30 2 C 2.742497 0.863969 4.031277 0
M  V30 3 C 1.950957 0.976269 2.817763 0
M  V30 4 C 2.411107 0.485403 1.683031 0
M  V30 5 N 1.829341 0.476725 0.386696 0
M  V30 6 C 2.594059 -0.115396 -0.619068 0
M  V30 7 C 2.250634 -0.237127 -1.973070 0
M  V30 8 C 3.119400 -0.832997 -2.828901 0
M  V30 9 C 4.374086 -1.360997 -2.486644 0
M  V30 10 C 4.676243 -1.224801 -1.151753 0
M  V30 11 C 3.820462 -0.627059 -0.261301 0
M  V30 12 S 4.011430 -0.345806 1.523129 0
M  V30 13 C 0.630763 1.619338 2.858697 0
M  V30 14 C 0.518776 2.792651 3.600763 0
M  V30 15 C -0.726032 3.385296 3.650590 0
M  V30 16 N -1.781435 2.856280 3.013670 0
M  V30 17 C -1.686340 1.715417 2.288372 0
M  V30 18 N -2.733894 1.063271 1.567144 0
M  V30 19 C -2.499458 -0.204559 0.855739 0
M  V30 20 C -2.137197 -1.329637 1.763981 0
M  V30 21 C -1.900105 -2.588509 0.965096 0
M  V30 22 C -0.583689 -2.752062 0.561015 0
M  V30 23 C -0.244687 -3.865072 -0.176742 0
M  V30 24 C -1.257320 -4.743028 -0.459944 0
M  V30 25 N -2.527732 -4.586102 -0.070536 0
M  V30 26 C -2.897721 -3.501910 0.657683 0
M  V30 27 N -0.469358 1.159058 2.254448 0
M  V30 28 H 0.879917 0.912737 0.292989 0
M  V30 29 H 1.305469 0.128186 -2.392380 0
M  V30 30 H 2.861596 -0.928924 -3.877970 0
M  V30 31 H 5.018277 -1.823702 -3.214864 0
M  V30 32 H 5.637140 -1.607318 -0.779453 0
M  V30 33 H 1.324972 3.273120 4.136924 0
M  V30 34 H -0.863282 4.304017 4.217089 0
M  V30 35 H -3.672656 1.537108 1.574725 0
M  V30 36 H -3.490722 -0.471295 0.390383 0
M  V30 37 H -1.799773 -0.079864 0.001692 0
M  V30 38 H -1.242889 -1.057170 2.342955 0
M  V30 39 H -2.989267 -1.480410 2.466417 0
M  V30 40 H 0.195965 -2.041060 0.800611 0
M  V30 41 H 0.788652 -3.993742 -0.494613 0
M  V30 42 H -0.966025 -5.615121 -1.044943 0
M  V30 43 H -3.887795 -3.306776 1.005664 0
M  V30 END ATOM
M  V30 BEGIN BOND
M  V30 1 3 1 2
M  V30 2 1 2 3
M  V30 3 2 3 4
M  V30 4 1 4 5
M  V30 5 1 5 6
M  V30 6 2 6 7
M  V30 7 1 7 8
M  V30 8 2 8 9
M  V30 9 1 9 10
M  V30 10 2 10 11
M  V30 11 1 11 12
M  V30 12 1 3 13
M  V30 13 2 13 14
M  V30 14 1 14 15
M  V30 15 2 15 16
M  V30 16 1 16 17
M  V30 17 1 17 18
M  V30 18 1 18 19
M  V30 19 1 19 20
M  V30 20 1 20 21
M  V30 21 2 21 22
M  V30 22 1 22 23
M  V30 23 2 23 24
M  V30 24 1 24 25
M  V30 25 2 25 26
M  V30 26 2 17 27
M  V30 27 1 12 4
M  V30 28 1 27 13
M  V30 29 1 11 6
M  V30 30 1 26 21
M  V30 31 1 5 28
M  V30 32 1 7 29
M  V30 33 1 8 30
M  V30 34 1 9 31
M  V30 35 1 10 32
M  V30 36 1 14 33
M  V30 37 1 15 34
M  V30 38 1 18 35
M  V30 39 1 19 36
M  V30 40 1 19 37
M  V30 41 1 20 38
M  V30 42 1 20 39
M  V30 43 1 22 40
M  V30 44 1 23 41
M  V30 45 1 24 42
M  V30 46 1 26 43
M  V30 END BOND
M  V30 END CTAB
M  END
>  <Dataset>  (356) 
ChEMBL_Kinases

>  <Ligand_Instance>  (356) 
nan

>  <PDB_ID>  (356) 
nan

>  <Standardized_SMILES>  (356) 
N#C/C(=C1/Nc2ccccc2S1)c1ccnc(NCCc2cccnc2)n1

>  <Name>  (356) 
nan

>  <Pocket>  (356) 
nan

>  <ATP_Site>  (356) 
nan

>  <Peripheral>  (356) 
nan

>  <Num_H_Atoms_ProtBoundConf>  (356) 
nan

>  <Num_Resolved_Atoms>  (356) 
nan

>  <Num_Not_Resolved_Atoms>  (356) 
nan

$$$$
CHEMBL3589661
     RDKit          3D

  0  0  0  0  0  0  0  0  0  0999 V3000
M  V30 BEGIN CTAB
M  V30 COUNTS 30 33 0 0 0
M  V30 BEGIN ATOM
M  V30 1 O 0.488879 -1.151040 4.652991 0
M  V30 2 C 1.062691 -1.285469 3.561913 0
M  V30 3 O 2.125800 -1.772236 4.284376 0
M  V30 4 C 1.067166 -1.163407 2.130513 0
M  V30 5 N 2.169996 -1.573436 1.493544 0
M  V30 6 C 2.403013 -1.559069 0.190790 0
M  V30 7 C 3.595669 -2.017213 -0.327825 0
M  V30 8 C 3.713183 -1.948023 -1.701118 0
M  V30 9 C 2.710404 -1.454797 -2.514336 0
M  V30 10 C 1.530322 -1.007697 -1.929317 0
M  V30 11 C 1.372619 -1.059235 -0.564080 0
M  V30 12 C 0.185747 -0.604088 -0.038453 0
M  V30 13 N -0.925847 -0.087825 -0.583067 0
M  V30 14 C -1.770969 0.181751 0.425239 0
M  V30 15 C -3.038531 0.719406 0.398192 0
M  V30 16 Br -3.822379 1.194706 -1.273628 0
M  V30 17 C -3.720764 0.905524 1.580319 0
M  V30 18 C -3.117432 0.546134 2.792426 0
M  V30 19 C -1.850505 0.013642 2.762614 0
M  V30 20 C -1.160736 -0.177738 1.604229 0
M  V30 21 C 0.079413 -0.677115 1.324968 0
M  V30 22 H 2.630838 -1.250435 4.984089 0
M  V30 23 H 4.354553 -2.395313 0.343363 0
M  V30 24 H 4.624616 -2.292797 -2.159193 0
M  V30 25 H 2.853251 -1.420997 -3.601824 0
M  V30 26 H 0.749003 -0.621230 -2.587945 0
M  V30 27 H -1.088092 0.068251 -1.596500 0
M  V30 28 H -4.711933 1.328740 1.526496 0
M  V30 29 H -3.756271 0.742075 3.648498 0
M  V30 30 H -1.550826 -0.198213 3.755631 0
M  V30 END ATOM
M  V30 BEGIN BOND
M  V30 1 2 1 2
M  V30 2 1 2 3
M  V30 3 1 2 4
M  V30 4 2 4 5
M  V30 5 1 5 6
M  V30 6 2 6 7
M  V30 7 1 7 8
M  V30 8 2 8 9
M  V30 9 1 9 10
M  V30 10 2 10 11
M  V30 11 1 11 12
M  V30 12 1 12 13
M  V30 13 1 13 14
M  V30 14 2 14 15
M  V30 15 1 15 16
M  V30 16 1 15 17
M  V30 17 2 17 18
M  V30 18 1 18 19
M  V30 19 2 19 20
M  V30 20 1 20 21
M  V30 21 1 21 4
M  V30 22 1 11 6
M  V30 23 2 21 12
M  V30 24 1 20 14
M  V30 25 1 3 22
M  V30 26 1 7 23
M  V30 27 1 8 24
M  V30 28 1 9 25
M  V30 29 1 10 26
M  V30 30 1 13 27
M  V30 31 1 17 28
M  V30 32 1 18 29
M  V30 33 1 19 30
M  V30 END BOND
M  V30 END CTAB
M  END
>  <Dataset>  (357) 
ChEMBL_Kinases

>  <Ligand_Instance>  (357) 
nan

>  <PDB_ID>  (357) 
nan

>  <Standardized_SMILES>  (357) 
O=C(O)c1nc2ccccc2c2[nH]c3c(Br)cccc3c12

>  <Name>  (357) 
nan

>  <Pocket>  (357) 
nan

>  <ATP_Site>  (357) 
nan

>  <Peripheral>  (357) 
nan

>  <Num_H_Atoms_ProtBoundConf>  (357) 
nan

>  <Num_Resolved_Atoms>  (357) 
nan

>  <Num_Not_Resolved_Atoms>  (357) 
nan

$$$$
CHEMBL3301607
     RDKit          3D

  0  0  0  0  0  0  0  0  0  0999 V3000
M  V30 BEGIN CTAB
M  V30 COUNTS 53 57 0 0 0
M  V30 BEGIN ATOM
M  V30 1 O 1.319444 -4.640261 -0.749856 0
M  V30 2 C 0.105135 -4.600857 -1.122718 0
M  V30 3 N -0.567636 -3.722529 -2.004794 0
M  V30 4 C 0.291479 -2.730310 -2.545369 0
M  V30 5 N 1.090222 -2.556812 -3.600839 0
M  V30 6 C 1.660724 -1.325264 -3.537281 0
M  V30 7 C 2.557031 -0.738873 -4.432601 0
M  V30 8 C 2.948038 0.539379 -4.068630 0
M  V30 9 C 2.494347 1.162605 -2.936468 0
M  V30 10 C 1.607254 0.509639 -2.103939 0
M  V30 11 C 1.085809 1.112435 -0.886876 0
M  V30 12 C 1.848023 1.794198 0.038381 0
M  V30 13 C 1.284126 2.340290 1.171484 0
M  V30 14 C -0.057563 2.241210 1.448292 0
M  V30 15 C -0.770604 2.780225 2.629750 0
M  V30 16 N -0.834340 1.823951 3.650713 0
M  V30 17 C 0.347936 1.310842 4.219818 0
M  V30 18 C 0.310906 -0.206834 3.979190 0
M  V30 19 S -1.374252 -0.764245 3.880197 0
M  V30 20 O -1.521507 -2.104815 4.542569 0
M  V30 21 O -1.727429 -0.895333 2.405370 0
M  V30 22 C -2.477519 0.408923 4.628170 0
M  V30 23 C -1.970767 1.827213 4.493435 0
M  V30 24 C -0.783668 1.539907 0.476961 0
M  V30 25 C -0.269964 0.975167 -0.671884 0
M  V30 26 N 1.191959 -0.734005 -2.406373 0
M  V30 27 N 0.363926 -1.596914 -1.816276 0
M  V30 28 C -0.572723 -5.729916 -0.423038 0
M  V30 29 C -1.963111 -5.352423 0.164609 0
M  V30 30 C -1.788079 -6.352688 -0.960549 0
M  V30 31 H -1.603046 -3.860716 -2.187270 0
M  V30 32 H 2.870589 -1.289715 -5.303712 0
M  V30 33 H 3.653238 1.029228 -4.751974 0
M  V30 34 H 2.832125 2.152421 -2.706448 0
M  V30 35 H 2.906722 1.891809 -0.146015 0
M  V30 36 H 1.891243 2.871822 1.879456 0
M  V30 37 H -0.396588 3.780457 2.926272 0
M  V30 38 H -1.831617 2.974695 2.295323 0
M  V30 39 H 1.282767 1.733695 3.870152 0
M  V30 40 H 0.379761 1.410850 5.347511 0
M  V30 41 H 0.783436 -0.755293 4.838218 0
M  V30 42 H 0.886252 -0.478120 3.067866 0
M  V30 43 H -3.453920 0.399291 4.062513 0
M  V30 44 H -2.682623 0.122429 5.681015 0
M  V30 45 H -2.752969 2.556131 4.220296 0
M  V30 46 H -1.633901 2.116820 5.530644 0
M  V30 47 H -1.849388 1.430771 0.643806 0
M  V30 48 H -0.930166 0.456979 -1.348261 0
M  V30 49 H 0.082141 -6.322193 0.228192 0
M  V30 50 H -2.363409 -4.361040 -0.108465 0
M  V30 51 H -2.145296 -5.715494 1.181571 0
M  V30 52 H -2.168875 -6.072323 -1.954650 0
M  V30 53 H -1.997604 -7.400390 -0.659885 0
M  V30 END ATOM
M  V30 BEGIN BOND
M  V30 1 2 1 2
M  V30 2 1 2 3
M  V30 3 1 3 4
M  V30 4 1 4 5
M  V30 5 2 5 6
M  V30 6 1 6 7
M  V30 7 2 7 8
M  V30 8 1 8 9
M  V30 9 2 9 10
M  V30 10 1 10 11
M  V30 11 2 11 12
M  V30 12 1 12 13
M  V30 13 2 13 14
M  V30 14 1 14 15
M  V30 15 1 15 16
M  V30 16 1 16 17
M  V30 17 1 17 18
M  V30 18 1 18 19
M  V30 19 2 19 20
M  V30 20 2 19 21
M  V30 21 1 19 22
M  V30 22 1 22 23
M  V30 23 1 14 24
M  V30 24 2 24 25
M  V30 25 1 10 26
M  V30 26 1 26 27
M  V30 27 1 2 28
M  V30 28 1 28 29
M  V30 29 1 29 30
M  V30 30 2 27 4
M  V30 31 1 30 28
M  V30 32 1 26 6
M  V30 33 1 25 11
M  V30 34 1 23 16
M  V30 35 1 3 31
M  V30 36 1 7 32
M  V30 37 1 8 33
M  V30 38 1 9 34
M  V30 39 1 12 35
M  V30 40 1 13 36
M  V30 41 1 15 37
M  V30 42 1 15 38
M  V30 43 1 17 39
M  V30 44 1 17 40
M  V30 45 1 18 41
M  V30 46 1 18 42
M  V30 47 1 22 43
M  V30 48 1 22 44
M  V30 49 1 23 45
M  V30 50 1 23 46
M  V30 51 1 24 47
M  V30 52 1 25 48
M  V30 53 1 28 49
M  V30 54 1 29 50
M  V30 55 1 29 51
M  V30 56 1 30 52
M  V30 57 1 30 53
M  V30 END BOND
M  V30 END CTAB
M  END
>  <Dataset>  (358) 
ChEMBL_Kinases

>  <Ligand_Instance>  (358) 
nan

>  <PDB_ID>  (358) 
nan

>  <Standardized_SMILES>  (358) 
O=C(Nc1nc2cccc(-c3ccc(CN4CCS(=O)(=O)CC4)cc3)n2n1)C1CC1

>  <Name>  (358) 
FILGOTINIB

>  <Pocket>  (358) 
nan

>  <ATP_Site>  (358) 
nan

>  <Peripheral>  (358) 
nan

>  <Num_H_Atoms_ProtBoundConf>  (358) 
nan

>  <Num_Resolved_Atoms>  (358) 
nan

>  <Num_Not_Resolved_Atoms>  (358) 
nan

$$$$
CHEMBL3120215
     RDKit          3D

  0  0  0  0  0  0  0  0  0  0999 V3000
M  V30 BEGIN CTAB
M  V30 COUNTS 52 56 0 0 0
M  V30 BEGIN ATOM
M  V30 1 C 2.046039 -4.355584 7.034527 0
M  V30 2 O 1.684032 -3.735526 5.814850 0
M  V30 3 C 1.010717 -2.521433 5.834859 0
M  V30 4 C 0.666457 -1.868874 7.000503 0
M  V30 5 C -0.002955 -0.662687 6.991866 0
M  V30 6 C -0.324352 -0.116935 5.771254 0
M  V30 7 C 0.006169 -0.745238 4.591778 0
M  V30 8 C -0.160733 -0.482130 3.256353 0
M  V30 9 C 0.379486 -1.479433 2.429934 0
M  V30 10 C 0.256105 -1.289964 1.011952 0
M  V30 11 N -0.336692 -0.246439 0.361506 0
M  V30 12 C -0.276133 -0.378546 -0.953854 0
M  V30 13 C -0.884802 0.690636 -1.773057 0 CFG=1
M  V30 14 C 0.227935 1.355153 -2.570665 0
M  V30 15 C -0.335799 2.556823 -3.316750 0
M  V30 16 C -1.461141 2.054449 -4.214729 0 CFG=2
M  V30 17 C -1.936797 3.189020 -4.998758 0
M  V30 18 O -1.096302 3.964338 -4.444542 0
M  V30 19 O -2.739405 3.789963 -5.929042 0
M  V30 20 C -2.536941 1.421225 -3.376380 0
M  V30 21 C -1.955635 0.172870 -2.708368 0
M  V30 22 N 0.356763 -1.511204 -1.266135 0
M  V30 23 N 0.636324 -2.029420 -2.421646 0
M  V30 24 C 1.299746 -3.210527 -2.488019 0
M  V30 25 N 1.654002 -3.819122 -1.326668 0
M  V30 26 C 1.324642 -3.212743 -0.181147 0
M  V30 27 N 1.745360 -3.935079 0.943396 0
M  V30 28 C 0.656872 -2.023391 -0.065868 0
M  V30 29 N 0.846501 -2.294815 3.360188 0
M  V30 30 C 0.671661 -1.943566 4.633333 0
M  V30 31 H 1.147949 -4.777305 7.557560 0
M  V30 32 H 2.730872 -5.208761 6.862640 0
M  V30 33 H 2.473141 -3.615368 7.739982 0
M  V30 34 H 0.926792 -2.309871 7.959885 0
M  V30 35 H -0.277004 -0.144947 7.905912 0
M  V30 36 H -0.839537 0.810470 5.721364 0
M  V30 37 H -0.675338 0.438595 2.996742 0
M  V30 38 H -1.336162 1.455410 -1.133025 0
M  V30 39 H 0.687421 0.668967 -3.295857 0
M  V30 40 H 0.975850 1.744704 -1.854896 0
M  V30 41 H -0.698003 3.313268 -2.617006 0
M  V30 42 H 0.469159 2.933161 -3.980085 0
M  V30 43 H -0.999205 1.258249 -4.843153 0
M  V30 44 H -2.679012 4.773879 -6.166298 0
M  V30 45 H -3.400774 1.154541 -3.996683 0
M  V30 46 H -2.846852 2.085807 -2.526421 0
M  V30 47 H -2.749651 -0.254349 -2.067990 0
M  V30 48 H -1.573898 -0.549940 -3.428386 0
M  V30 49 H 1.526302 -3.630402 -3.458746 0
M  V30 50 H 2.699018 -3.552816 1.208908 0
M  V30 51 H 1.061535 -4.664570 1.267338 0
M  V30 52 H 1.320614 -3.157090 3.131234 0
M  V30 END ATOM
M  V30 BEGIN BOND
M  V30 1 1 1 2
M  V30 2 1 2 3
M  V30 3 2 3 4
M  V30 4 1 4 5
M  V30 5 2 5 6
M  V30 6 1 6 7
M  V30 7 1 7 8
M  V30 8 2 8 9
M  V30 9 1 9 10
M  V30 10 1 10 11
M  V30 11 2 11 12
M  V30 12 1 12 13
M  V30 13 1 13 14
M  V30 14 1 14 15
M  V30 15 1 15 16
M  V30 16 1 16 17
M  V30 17 2 17 18
M  V30 18 1 17 19
M  V30 19 1 16 20
M  V30 20 1 20 21
M  V30 21 1 12 22
M  V30 22 1 22 23
M  V30 23 2 23 24
M  V30 24 1 24 25
M  V30 25 2 25 26
M  V30 26 1 26 27
M  V30 27 1 26 28
M  V30 28 1 9 29
M  V30 29 1 29 30
M  V30 30 1 30 3
M  V30 31 2 30 7
M  V30 32 2 28 10
M  V30 33 1 21 13
M  V30 34 1 28 22
M  V30 35 1 1 31
M  V30 36 1 1 32
M  V30 37 1 1 33
M  V30 38 1 4 34
M  V30 39 1 5 35
M  V30 40 1 6 36
M  V30 41 1 8 37
M  V30 42 1 13 38 CFG=1
M  V30 43 1 14 39
M  V30 44 1 14 40
M  V30 45 1 15 41
M  V30 46 1 15 42
M  V30 47 1 16 43 CFG=3
M  V30 48 1 19 44
M  V30 49 1 20 45
M  V30 50 1 20 46
M  V30 51 1 21 47
M  V30 52 1 21 48
M  V30 53 1 24 49
M  V30 54 1 27 50
M  V30 55 1 27 51
M  V30 56 1 29 52
M  V30 END BOND
M  V30 END CTAB
M  END
>  <Dataset>  (359) 
ChEMBL_Kinases

>  <Ligand_Instance>  (359) 
nan

>  <PDB_ID>  (359) 
nan

>  <Standardized_SMILES>  (359) 
COc1cccc2cc(-c3nc([C@H]4CC[C@H](C(=O)O)CC4)n4ncnc(N)c34)[nH]c12

>  <Name>  (359) 
OSI-027

>  <Pocket>  (359) 
nan

>  <ATP_Site>  (359) 
nan

>  <Peripheral>  (359) 
nan

>  <Num_H_Atoms_ProtBoundConf>  (359) 
nan

>  <Num_Resolved_Atoms>  (359) 
nan

>  <Num_Not_Resolved_Atoms>  (359) 
nan

$$$$
CHEMBL475816
     RDKit          3D

  0  0  0  0  0  0  0  0  0  0999 V3000
M  V30 BEGIN CTAB
M  V30 COUNTS 37 39 0 0 0
M  V30 BEGIN ATOM
M  V30 1 C -0.093427 -5.201589 1.649031 0
M  V30 2 C 0.567379 -4.357815 2.639622 0
M  V30 3 O 1.034577 -4.814265 3.705742 0
M  V30 4 C 0.726375 -2.931693 2.452803 0
M  V30 5 C 1.328800 -2.128825 3.342092 0
M  V30 6 O 1.831440 -2.646266 4.542019 0
M  V30 7 C 1.534130 -0.700166 3.144703 0
M  V30 8 C 1.129249 -0.186793 2.007984 0
M  V30 9 O 1.123404 1.094059 1.483072 0
M  V30 10 C 0.319393 1.125032 0.334065 0
M  V30 11 C -0.032796 2.196272 -0.507270 0
M  V30 12 C 0.488821 3.535081 -0.267168 0
M  V30 13 N 0.110698 4.590125 -1.137737 0
M  V30 14 O 1.264521 3.649503 0.735164 0
M  V30 15 C -0.897065 1.961685 -1.586403 0
M  V30 16 O -1.279931 2.960046 -2.443178 0
M  V30 17 C -1.399064 0.674927 -1.817911 0
M  V30 18 C -1.069662 -0.402550 -1.013461 0
M  V30 19 O -1.593595 -1.642103 -1.291279 0
M  V30 20 C -0.221429 -0.129856 0.023873 0
M  V30 21 C 0.554845 -0.971375 0.910300 0 CFG=1
M  V30 22 C 1.890960 -1.278625 0.065405 0
M  V30 23 C 0.038605 -2.233328 1.326484 0
M  V30 24 O -0.959818 -2.903256 0.880998 0
M  V30 25 H -1.196039 -5.068005 1.718549 0
M  V30 26 H 0.203536 -4.907864 0.616861 0
M  V30 27 H 0.162281 -6.279013 1.740271 0
M  V30 28 H 2.749486 -3.097920 4.498322 0
M  V30 29 H 1.993677 -0.083191 3.885241 0
M  V30 30 H -0.862330 4.947566 -1.283370 0
M  V30 31 H -0.858973 4.945711 -1.282315 0
M  V30 32 H -0.748473 3.339251 -3.202987 0
M  V30 33 H -2.077583 0.514259 -2.666809 0
M  V30 34 H -2.590714 -1.693186 -1.547923 0
M  V30 35 H 2.238856 -0.262781 -0.170995 0
M  V30 36 H 1.626792 -1.816741 -0.828103 0
M  V30 37 H 2.560722 -1.752737 0.787280 0
M  V30 END ATOM
M  V30 BEGIN BOND
M  V30 1 1 1 2
M  V30 2 2 2 3
M  V30 3 1 2 4
M  V30 4 2 4 5
M  V30 5 1 5 6
M  V30 6 1 5 7
M  V30 7 2 7 8
M  V30 8 1 8 9
M  V30 9 1 9 10
M  V30 10 2 10 11
M  V30 11 1 11 12
M  V30 12 1 12 13
M  V30 13 2 12 14
M  V30 14 1 11 15
M  V30 15 1 15 16
M  V30 16 2 15 17
M  V30 17 1 17 18
M  V30 18 1 18 19
M  V30 19 2 18 20
M  V30 20 1 20 21
M  V30 21 1 21 22 CFG=3
M  V30 22 1 21 23
M  V30 23 2 23 24
M  V30 24 1 23 4
M  V30 25 1 21 8
M  V30 26 1 20 10
M  V30 27 1 1 25
M  V30 28 1 1 26
M  V30 29 1 1 27
M  V30 30 1 6 28
M  V30 31 1 7 29
M  V30 32 1 13 30
M  V30 33 1 13 31
M  V30 34 1 16 32
M  V30 35 1 17 33
M  V30 36 1 19 34
M  V30 37 1 22 35
M  V30 38 1 22 36
M  V30 39 1 22 37
M  V30 END BOND
M  V30 END CTAB
M  END
>  <Dataset>  (360) 
ChEMBL_Kinases

>  <Ligand_Instance>  (360) 
nan

>  <PDB_ID>  (360) 
nan

>  <Standardized_SMILES>  (360) 
CC(=O)C1=C(O)C=C2Oc3c(C(N)=O)c(O)cc(O)c3[C@]2(C)C1=O

>  <Name>  (360) 
nan

>  <Pocket>  (360) 
nan

>  <ATP_Site>  (360) 
nan

>  <Peripheral>  (360) 
nan

>  <Num_H_Atoms_ProtBoundConf>  (360) 
nan

>  <Num_Resolved_Atoms>  (360) 
nan

>  <Num_Not_Resolved_Atoms>  (360) 
nan

$$$$
CHEMBL307747
     RDKit          3D

  0  0  0  0  0  0  0  0  0  0999 V3000
M  V30 BEGIN CTAB
M  V30 COUNTS 66 69 0 0 0
M  V30 BEGIN ATOM
M  V30 1 O 5.566455 0.593208 -1.228378 0
M  V30 2 C 4.532598 1.061349 -0.683721 0
M  V30 3 N 3.594488 -0.021688 -0.585255 0
M  V30 4 C 3.713709 -1.403143 -1.004678 0 CFG=1
M  V30 5 C 3.998384 -2.201305 0.286461 0
M  V30 6 N 4.486131 -3.505556 -0.112655 0
M  V30 7 C 3.431021 -4.472796 0.256398 0
M  V30 8 C 2.151771 -4.100195 -0.486784 0
M  V30 9 C 2.520149 -3.393233 -1.791616 0
M  V30 10 C 2.436821 -1.875152 -1.647817 0 CFG=1
M  V30 11 O 1.295974 -1.580538 -0.873873 0
M  V30 12 C 0.196302 -0.838272 -1.336897 0
M  V30 13 O -0.017779 -0.320940 -2.418444 0
M  V30 14 C -0.752257 -0.789910 -0.163604 0
M  V30 15 C -0.578771 -1.175405 1.165036 0
M  V30 16 C -1.684816 -1.091211 1.984768 0
M  V30 17 O -1.445679 -1.481117 3.279062 0
M  V30 18 C -2.923364 -0.653282 1.531129 0
M  V30 19 C -3.909818 -0.563649 2.615348 0
M  V30 20 O -4.181890 -0.433572 3.772835 0
M  V30 21 C -5.310957 -0.682981 2.171032 0
M  V30 22 C -6.497695 -0.000975 2.561408 0
M  V30 23 O -6.132190 1.038489 3.454405 0
M  V30 24 C -7.765114 -0.298115 2.151046 0
M  V30 25 C -7.998415 -1.322666 1.287782 0
M  V30 26 C -6.901812 -2.011478 0.882410 0
M  V30 27 C -5.611241 -1.731831 1.286997 0
M  V30 28 C -4.720316 -2.787113 0.781558 0
M  V30 29 O -3.580180 -3.291021 0.830466 0
M  V30 30 O -4.677103 -3.845504 -0.071649 0
M  V30 31 C -3.090716 -0.274132 0.228827 0
M  V30 32 O -4.352619 0.177964 -0.193643 0
M  V30 33 C -2.021800 -0.340144 -0.602421 0
M  V30 34 C 4.109215 2.355468 -0.165438 0
M  V30 35 C 2.786519 2.666421 0.038426 0
M  V30 36 C 2.512577 3.905065 0.558130 0
M  V30 37 C 3.410586 4.859181 0.893466 0
M  V30 38 O 3.212552 6.125901 1.422159 0
M  V30 39 C 4.781560 4.588631 0.704373 0
M  V30 40 C 5.038419 3.306419 0.168227 0
M  V30 41 H 2.631321 0.074341 -0.156473 0
M  V30 42 H 4.567704 -1.586846 -1.661892 0
M  V30 43 H 3.087110 -2.281343 0.901487 0
M  V30 44 H 4.728328 -1.630918 0.893253 0
M  V30 45 H 5.342868 -3.820756 0.363660 0
M  V30 46 H 3.280851 -4.400749 1.356545 0
M  V30 47 H 3.747220 -5.495669 -0.000344 0
M  V30 48 H 1.564485 -4.983455 -0.704659 0
M  V30 49 H 1.592432 -3.382637 0.122536 0
M  V30 50 H 1.876191 -3.761615 -2.615833 0
M  V30 51 H 3.571996 -3.703516 -2.014879 0
M  V30 52 H 2.397105 -1.449819 -2.684372 0
M  V30 53 H 0.428910 -1.483309 1.330430 0
M  V30 54 H -1.381423 -2.412467 3.650601 0
M  V30 55 H -5.300687 1.552985 3.344089 0
M  V30 56 H -8.430425 0.406989 2.633039 0
M  V30 57 H -9.025906 -1.485609 1.021382 0
M  V30 58 H -7.206006 -2.824430 0.185695 0
M  V30 59 H -4.567071 -3.901318 -1.089688 0
M  V30 60 H -4.656180 1.132692 0.043267 0
M  V30 61 H -2.231909 -0.031184 -1.620569 0
M  V30 62 H 1.986808 1.974697 -0.202293 0
M  V30 63 H 1.467736 4.178051 0.719414 0
M  V30 64 H 2.684882 6.318673 2.264952 0
M  V30 65 H 5.693362 5.192522 0.892493 0
M  V30 66 H 6.086379 3.039217 0.000517 0
M  V30 END ATOM
M  V30 BEGIN BOND
M  V30 1 2 1 2
M  V30 2 1 2 3
M  V30 3 1 3 4
M  V30 4 1 4 5
M  V30 5 1 5 6
M  V30 6 1 6 7
M  V30 7 1 7 8
M  V30 8 1 8 9
M  V30 9 1 9 10
M  V30 10 1 10 11
M  V30 11 1 11 12
M  V30 12 2 12 13
M  V30 13 1 12 14
M  V30 14 2 14 15
M  V30 15 1 15 16
M  V30 16 1 16 17
M  V30 17 2 16 18
M  V30 18 1 18 19
M  V30 19 2 19 20
M  V30 20 1 19 21
M  V30 21 2 21 22
M  V30 22 1 22 23
M  V30 23 1 22 24
M  V30 24 2 24 25
M  V30 25 1 25 26
M  V30 26 2 26 27
M  V30 27 1 27 28
M  V30 28 2 28 29
M  V30 29 1 28 30
M  V30 30 1 18 31
M  V30 31 1 31 32
M  V30 32 2 31 33
M  V30 33 1 2 34
M  V30 34 2 34 35
M  V30 35 1 35 36
M  V30 36 2 36 37
M  V30 37 1 37 38
M  V30 38 1 37 39
M  V30 39 2 39 40
M  V30 40 1 10 4
M  V30 41 1 33 14
M  V30 42 1 40 34
M  V30 43 1 27 21
M  V30 44 1 3 41
M  V30 45 1 4 42 CFG=3
M  V30 46 1 5 43
M  V30 47 1 5 44
M  V30 48 1 6 45
M  V30 49 1 7 46
M  V30 50 1 7 47
M  V30 51 1 8 48
M  V30 52 1 8 49
M  V30 53 1 9 50
M  V30 54 1 9 51
M  V30 55 1 10 52 CFG=3
M  V30 56 1 15 53
M  V30 57 1 17 54
M  V30 58 1 23 55
M  V30 59 1 24 56
M  V30 60 1 25 57
M  V30 61 1 26 58
M  V30 62 1 30 59
M  V30 63 1 32 60
M  V30 64 1 33 61
M  V30 65 1 35 62
M  V30 66 1 36 63
M  V30 67 1 38 64
M  V30 68 1 39 65
M  V30 69 1 40 66
M  V30 END BOND
M  V30 END CTAB
M  END
>  <Dataset>  (361) 
ChEMBL_Kinases

>  <Ligand_Instance>  (361) 
nan

>  <PDB_ID>  (361) 
nan

>  <Standardized_SMILES>  (361) 
O=C(N[C@H]1CNCCC[C@H]1OC(=O)c1cc(O)c(C(=O)c2c(O)cccc2C(=O)O)c(O)c1)c1ccc(O)cc1

>  <Name>  (361) 
nan

>  <Pocket>  (361) 
nan

>  <ATP_Site>  (361) 
nan

>  <Peripheral>  (361) 
nan

>  <Num_H_Atoms_ProtBoundConf>  (361) 
nan

>  <Num_Resolved_Atoms>  (361) 
nan

>  <Num_Not_Resolved_Atoms>  (361) 
nan

$$$$
CHEMBL4063254
     RDKit          3D

  0  0  0  0  0  0  0  0  0  0999 V3000
M  V30 BEGIN CTAB
M  V30 COUNTS 31 33 0 0 0
M  V30 BEGIN ATOM
M  V30 1 C 0.164751 -2.605624 3.928323 0
M  V30 2 O 0.244748 -3.774569 3.133548 0
M  V30 3 C 0.273796 -3.629815 1.766368 0
M  V30 4 C 0.351946 -4.789129 1.022452 0
M  V30 5 C 0.382332 -4.666710 -0.352740 0
M  V30 6 C 0.332668 -3.395423 -0.892726 0
M  V30 7 N 0.347723 -3.012057 -2.185643 0
M  V30 8 C 0.281470 -1.658236 -2.257916 0
M  V30 9 C 0.223431 -1.185194 -0.970361 0
M  V30 10 C 0.139611 0.181936 -0.406916 0
M  V30 11 C 0.977986 0.476336 0.671787 0
M  V30 12 C 0.911978 1.759502 1.214766 0
M  V30 13 C 0.044944 2.702908 0.698997 0
M  V30 14 C -0.071478 4.095070 1.238015 0
M  V30 15 F -1.372046 4.321887 1.701649 0
M  V30 16 F 0.801578 4.282998 2.304692 0
M  V30 17 F 0.163492 5.045723 0.262655 0
M  V30 18 C -0.783934 2.411729 -0.367540 0
M  V30 19 C -0.718781 1.141150 -0.905425 0
M  V30 20 N 0.255969 -2.262723 -0.152957 0
M  V30 21 N 0.229545 -2.430018 1.158109 0
M  V30 22 H -0.886062 -2.510140 4.269453 0
M  V30 23 H 0.857987 -2.769917 4.792408 0
M  V30 24 H 0.533004 -1.735125 3.352487 0
M  V30 25 H 0.391204 -5.788291 1.438298 0
M  V30 26 H 0.443315 -5.525050 -1.020790 0
M  V30 27 H 0.269911 -0.981303 -3.106398 0
M  V30 28 H 1.663909 -0.233477 1.097370 0
M  V30 29 H 1.528750 2.079695 2.058134 0
M  V30 30 H -1.485243 3.094367 -0.823389 0
M  V30 31 H -1.343866 0.835191 -1.751250 0
M  V30 END ATOM
M  V30 BEGIN BOND
M  V30 1 1 1 2
M  V30 2 1 2 3
M  V30 3 1 3 4
M  V30 4 2 4 5
M  V30 5 1 5 6
M  V30 6 2 6 7
M  V30 7 1 7 8
M  V30 8 2 8 9
M  V30 9 1 9 10
M  V30 10 2 10 11
M  V30 11 1 11 12
M  V30 12 2 12 13
M  V30 13 1 13 14
M  V30 14 1 14 15
M  V30 15 1 14 16
M  V30 16 1 14 17
M  V30 17 1 13 18
M  V30 18 2 18 19
M  V30 19 1 9 20
M  V30 20 1 20 21
M  V30 21 2 21 3
M  V30 22 1 20 6
M  V30 23 1 19 10
M  V30 24 1 1 22
M  V30 25 1 1 23
M  V30 26 1 1 24
M  V30 27 1 4 25
M  V30 28 1 5 26
M  V30 29 1 8 27
M  V30 30 1 11 28
M  V30 31 1 12 29
M  V30 32 1 18 30
M  V30 33 1 19 31
M  V30 END BOND
M  V30 END CTAB
M  END
>  <Dataset>  (362) 
ChEMBL_Kinases

>  <Ligand_Instance>  (362) 
nan

>  <PDB_ID>  (362) 
nan

>  <Standardized_SMILES>  (362) 
COc1ccc2ncc(-c3ccc(C(F)(F)F)cc3)n2n1

>  <Name>  (362) 
nan

>  <Pocket>  (362) 
nan

>  <ATP_Site>  (362) 
nan

>  <Peripheral>  (362) 
nan

>  <Num_H_Atoms_ProtBoundConf>  (362) 
nan

>  <Num_Resolved_Atoms>  (362) 
nan

>  <Num_Not_Resolved_Atoms>  (362) 
nan

$$$$
CHEMBL67290
     RDKit          3D

  0  0  0  0  0  0  0  0  0  0999 V3000
M  V30 BEGIN CTAB
M  V30 COUNTS 66 69 0 0 0
M  V30 BEGIN ATOM
M  V30 1 N 4.142034 1.525597 6.552810 0
M  V30 2 C 3.303050 1.926145 5.426385 0
M  V30 3 C 2.100667 1.013304 5.474069 0 CFG=2
M  V30 4 C 2.592821 -0.396661 5.340361 0
M  V30 5 C 1.839683 -0.952070 4.150635 0 CFG=2
M  V30 6 N 2.574262 -0.735128 2.918996 0
M  V30 7 C 2.923035 -1.663789 1.899447 0
M  V30 8 O 2.601042 -2.878200 1.967492 0
M  V30 9 C 3.667607 -1.241128 0.736647 0
M  V30 10 C 3.983196 -2.177006 -0.226867 0
M  V30 11 C 4.697992 -1.827330 -1.366832 0
M  V30 12 C 5.120459 -0.530054 -1.580227 0
M  V30 13 O 5.835925 -0.103719 -2.689029 0
M  V30 14 C 4.815562 0.418430 -0.630654 0
M  V30 15 C 4.103155 0.036100 0.491215 0
M  V30 16 C 0.584436 -0.105197 4.085321 0 CFG=2
M  V30 17 O 0.080711 -0.282382 2.762619 0
M  V30 18 C -1.192164 -0.729071 2.505095 0
M  V30 19 O -1.866509 -0.965298 3.550931 0
M  V30 20 C -1.731570 -0.918787 1.173315 0
M  V30 21 C -0.899863 -0.627728 0.120621 0
M  V30 22 C -1.359838 -0.788055 -1.187167 0
M  V30 23 O -0.442198 -0.467265 -2.202719 0
M  V30 24 C -2.630360 -1.231557 -1.453165 0
M  V30 25 C -3.072704 -1.476725 -2.791411 0
M  V30 26 O -2.017901 -1.679129 -3.465878 0
M  V30 27 C -4.210483 -1.582600 -3.631559 0
M  V30 28 C -4.077202 -2.470467 -4.710492 0
M  V30 29 O -2.933998 -3.233206 -4.968297 0
M  V30 30 C -5.095650 -2.681605 -5.649469 0
M  V30 31 C -6.247814 -1.968865 -5.463401 0
M  V30 32 C -6.464104 -1.080372 -4.443016 0
M  V30 33 C -5.416571 -0.928211 -3.566626 0
M  V30 34 C -5.604221 0.151336 -2.576460 0
M  V30 35 O -4.950634 0.757643 -1.698170 0
M  V30 36 O -6.767344 0.841031 -2.386183 0
M  V30 37 C -3.396275 -1.501650 -0.312962 0
M  V30 38 O -4.722237 -1.974977 -0.422819 0
M  V30 39 C -3.020184 -1.370052 1.003376 0
M  V30 40 C 1.119276 1.272083 4.351051 0
M  V30 41 H 4.982764 0.986194 6.197126 0
M  V30 42 H 3.667919 0.894974 7.220225 0
M  V30 43 H 3.004304 2.981176 5.519370 0
M  V30 44 H 3.846342 1.760318 4.489801 0
M  V30 45 H 1.593452 1.091010 6.457850 0
M  V30 46 H 2.328579 -1.043170 6.201148 0
M  V30 47 H 3.680663 -0.470003 5.081870 0
M  V30 48 H 1.520844 -2.000947 4.282980 0
M  V30 49 H 2.828877 0.270903 2.884490 0
M  V30 50 H 3.703905 -3.222590 -0.165139 0
M  V30 51 H 4.959537 -2.529531 -2.134369 0
M  V30 52 H 5.462659 0.720156 -3.177548 0
M  V30 53 H 5.115211 1.457317 -0.731894 0
M  V30 54 H 3.878695 0.800340 1.218142 0
M  V30 55 H -0.172274 -0.370668 4.846339 0
M  V30 56 H 0.102487 -0.277350 0.288583 0
M  V30 57 H 0.308159 -1.136236 -2.361746 0
M  V30 58 H -2.244621 -2.783023 -5.556078 0
M  V30 59 H -4.997546 -3.361694 -6.477968 0
M  V30 60 H -7.041899 -2.118824 -6.170949 0
M  V30 61 H -7.390720 -0.542025 -4.339294 0
M  V30 62 H -6.920066 1.827252 -2.269772 0
M  V30 63 H -4.867412 -2.971403 -0.591741 0
M  V30 64 H -3.627236 -1.582689 1.848787 0
M  V30 65 H 1.557733 1.754062 3.471903 0
M  V30 66 H 0.311342 1.918762 4.798138 0
M  V30 END ATOM
M  V30 BEGIN BOND
M  V30 1 1 1 2
M  V30 2 1 2 3
M  V30 3 1 3 4
M  V30 4 1 4 5
M  V30 5 1 5 6
M  V30 6 1 6 7
M  V30 7 2 7 8
M  V30 8 1 7 9
M  V30 9 2 9 10
M  V30 10 1 10 11
M  V30 11 2 11 12
M  V30 12 1 12 13
M  V30 13 1 12 14
M  V30 14 2 14 15
M  V30 15 1 5 16
M  V30 16 1 16 17
M  V30 17 1 17 18
M  V30 18 2 18 19
M  V30 19 1 18 20
M  V30 20 2 20 21
M  V30 21 1 21 22
M  V30 22 1 22 23
M  V30 23 2 22 24
M  V30 24 1 24 25
M  V30 25 2 25 26
M  V30 26 1 25 27
M  V30 27 2 27 28
M  V30 28 1 28 29
M  V30 29 1 28 30
M  V30 30 2 30 31
M  V30 31 1 31 32
M  V30 32 2 32 33
M  V30 33 1 33 34
M  V30 34 2 34 35
M  V30 35 1 34 36
M  V30 36 1 24 37
M  V30 37 1 37 38
M  V30 38 2 37 39
M  V30 39 1 16 40
M  V30 40 1 40 3
M  V30 41 1 15 9
M  V30 42 1 39 20
M  V30 43 1 33 27
M  V30 44 1 1 41
M  V30 45 1 1 42
M  V30 46 1 2 43
M  V30 47 1 2 44
M  V30 48 1 3 45 CFG=1
M  V30 49 1 4 46
M  V30 50 1 4 47
M  V30 51 1 5 48 CFG=1
M  V30 52 1 6 49
M  V30 53 1 10 50
M  V30 54 1 11 51
M  V30 55 1 13 52
M  V30 56 1 14 53
M  V30 57 1 15 54
M  V30 58 1 16 55 CFG=1
M  V30 59 1 21 56
M  V30 60 1 23 57
M  V30 61 1 29 58
M  V30 62 1 30 59
M  V30 63 1 31 60
M  V30 64 1 32 61
M  V30 65 1 36 62
M  V30 66 1 38 63
M  V30 67 1 39 64
M  V30 68 1 40 65
M  V30 69 1 40 66
M  V30 END BOND
M  V30 END CTAB
M  END
>  <Dataset>  (363) 
ChEMBL_Kinases

>  <Ligand_Instance>  (363) 
nan

>  <PDB_ID>  (363) 
nan

>  <Standardized_SMILES>  (363) 
NC[C@@H]1C[C@H](NC(=O)c2ccc(O)cc2)[C@H](OC(=O)c2cc(O)c(C(=O)c3c(O)cccc3C(=O)O)c(O)c2)C1

>  <Name>  (363) 
nan

>  <Pocket>  (363) 
nan

>  <ATP_Site>  (363) 
nan

>  <Peripheral>  (363) 
nan

>  <Num_H_Atoms_ProtBoundConf>  (363) 
nan

>  <Num_Resolved_Atoms>  (363) 
nan

>  <Num_Not_Resolved_Atoms>  (363) 
nan

$$$$
CHEMBL4071013
     RDKit          3D

  0  0  0  0  0  0  0  0  0  0999 V3000
M  V30 BEGIN CTAB
M  V30 COUNTS 45 48 0 0 0
M  V30 BEGIN ATOM
M  V30 1 O 0.558992 -6.755061 0.554239 0
M  V30 2 C 0.445493 -5.638767 -0.270621 0
M  V30 3 C -0.579251 -4.672787 0.282903 0
M  V30 4 N -0.776475 -3.520179 -0.459328 0
M  V30 5 C -1.706690 -2.553505 -0.035683 0
M  V30 6 C -1.174965 -1.185635 -0.366864 0
M  V30 7 N 0.212962 -1.197630 -0.774126 0
M  V30 8 C 1.151619 -0.230985 -0.274166 0
M  V30 9 C 2.479177 -0.227078 -0.651401 0
M  V30 10 C 3.398221 0.690158 -0.185130 0
M  V30 11 C 2.942490 1.642728 0.703115 0
M  V30 12 N 3.641292 2.637873 1.294452 0
M  V30 13 C 2.754636 3.299712 2.074905 0
M  V30 14 C 1.536478 2.668884 1.922140 0
M  V30 15 C 0.300090 3.066163 2.592347 0
M  V30 16 C 0.477634 3.341892 3.952884 0
M  V30 17 C -0.601957 3.732031 4.727433 0
M  V30 18 C -1.853607 3.839612 4.116295 0
M  V30 19 C -2.032249 3.568734 2.776043 0
M  V30 20 Cl -3.590307 3.694037 1.977593 0
M  V30 21 C -0.940626 3.176132 2.001116 0
M  V30 22 N 1.641605 1.629365 1.065184 0
M  V30 23 N 0.799372 0.741019 0.599887 0
M  V30 24 C 0.704841 -2.179504 -1.696150 0
M  V30 25 C -0.267528 -3.365043 -1.751705 0
M  V30 26 H -0.009240 -6.734991 1.342446 0
M  V30 27 H 0.211008 -6.022371 -1.271018 0
M  V30 28 H 1.422220 -5.093701 -0.329246 0
M  V30 29 H -0.180522 -4.380876 1.297103 0
M  V30 30 H -1.513704 -5.249313 0.494139 0
M  V30 31 H -1.932124 -2.674562 1.043275 0
M  V30 32 H -2.665228 -2.684020 -0.578478 0
M  V30 33 H -1.234174 -0.584146 0.567893 0
M  V30 34 H -1.816838 -0.664044 -1.111751 0
M  V30 35 H 2.849517 -0.958926 -1.339608 0
M  V30 36 H 4.434314 0.673401 -0.495295 0
M  V30 37 H 2.966010 4.164759 2.702398 0
M  V30 38 H 1.432026 3.269017 4.459003 0
M  V30 39 H -0.459280 3.943337 5.775846 0
M  V30 40 H -2.718441 4.148575 4.721159 0
M  V30 41 H -0.974037 2.940066 0.938849 0
M  V30 42 H 0.816526 -1.832457 -2.737738 0
M  V30 43 H 1.648202 -2.611420 -1.267035 0
M  V30 44 H 0.132576 -4.236209 -2.253570 0
M  V30 45 H -1.101226 -2.987291 -2.413588 0
M  V30 END ATOM
M  V30 BEGIN BOND
M  V30 1 1 1 2
M  V30 2 1 2 3
M  V30 3 1 3 4
M  V30 4 1 4 5
M  V30 5 1 5 6
M  V30 6 1 6 7
M  V30 7 1 7 8
M  V30 8 1 8 9
M  V30 9 2 9 10
M  V30 10 1 10 11
M  V30 11 2 11 12
M  V30 12 1 12 13
M  V30 13 2 13 14
M  V30 14 1 14 15
M  V30 15 2 15 16
M  V30 16 1 16 17
M  V30 17 2 17 18
M  V30 18 1 18 19
M  V30 19 1 19 20
M  V30 20 2 19 21
M  V30 21 1 14 22
M  V30 22 1 22 23
M  V30 23 1 7 24
M  V30 24 1 24 25
M  V30 25 1 25 4
M  V30 26 2 23 8
M  V30 27 1 22 11
M  V30 28 1 21 15
M  V30 29 1 1 26
M  V30 30 1 2 27
M  V30 31 1 2 28
M  V30 32 1 3 29
M  V30 33 1 3 30
M  V30 34 1 5 31
M  V30 35 1 5 32
M  V30 36 1 6 33
M  V30 37 1 6 34
M  V30 38 1 9 35
M  V30 39 1 10 36
M  V30 40 1 13 37
M  V30 41 1 16 38
M  V30 42 1 17 39
M  V30 43 1 18 40
M  V30 44 1 21 41
M  V30 45 1 24 42
M  V30 46 1 24 43
M  V30 47 1 25 44
M  V30 48 1 25 45
M  V30 END BOND
M  V30 END CTAB
M  END
>  <Dataset>  (364) 
ChEMBL_Kinases

>  <Ligand_Instance>  (364) 
nan

>  <PDB_ID>  (364) 
nan

>  <Standardized_SMILES>  (364) 
OCCN1CCN(c2ccc3ncc(-c4cccc(Cl)c4)n3n2)CC1

>  <Name>  (364) 
nan

>  <Pocket>  (364) 
nan

>  <ATP_Site>  (364) 
nan

>  <Peripheral>  (364) 
nan

>  <Num_H_Atoms_ProtBoundConf>  (364) 
nan

>  <Num_Resolved_Atoms>  (364) 
nan

>  <Num_Not_Resolved_Atoms>  (364) 
nan

$$$$
CHEMBL4292553
     RDKit          3D

  0  0  0  0  0  0  0  0  0  0999 V3000
M  V30 BEGIN CTAB
M  V30 COUNTS 37 40 0 0 0
M  V30 BEGIN ATOM
M  V30 1 O 0.828605 -5.624510 4.158105 0
M  V30 2 C 1.099947 -4.757966 3.108045 0
M  V30 3 C 1.686598 -5.026884 1.903724 0
M  V30 4 C 1.882133 -4.038763 0.966073 0
M  V30 5 C 1.482996 -2.724466 1.222547 0
M  V30 6 C 1.698684 -1.689762 0.215874 0
M  V30 7 C 2.785928 -1.750249 -0.638639 0
M  V30 8 N 2.971425 -0.780412 -1.568389 0
M  V30 9 C 2.106376 0.257671 -1.680306 0
M  V30 10 N 2.049474 1.345315 -2.503039 0
M  V30 11 C 0.969947 2.086667 -2.199534 0
M  V30 12 C 0.270745 1.503213 -1.152180 0
M  V30 13 C -0.943229 1.999815 -0.541169 0
M  V30 14 C -1.074751 2.024739 0.851691 0
M  V30 15 C -2.275102 2.517687 1.366018 0
M  V30 16 C -3.331515 2.977866 0.608381 0
M  V30 17 F -4.460550 3.439647 1.178501 0
M  V30 18 C -3.112302 2.915402 -0.751915 0
M  V30 19 C -1.970140 2.448734 -1.350816 0
M  V30 20 C 0.993006 0.368302 -0.844199 0
M  V30 21 C 0.814843 -0.624853 0.098108 0
M  V30 22 C 0.890672 -2.458567 2.441307 0
M  V30 23 C 0.690945 -3.452420 3.391380 0
M  V30 24 O 0.074631 -3.004921 4.574503 0
M  V30 25 H -0.159191 -5.679899 4.436408 0
M  V30 26 H 1.966435 -6.072433 1.785625 0
M  V30 27 H 2.347178 -4.312314 0.041446 0
M  V30 28 H 3.477381 -2.587991 -0.542799 0
M  V30 29 H 2.791369 1.492713 -3.237032 0
M  V30 30 H 0.732135 3.013573 -2.743465 0
M  V30 31 H -0.290963 1.681201 1.512569 0
M  V30 32 H -2.357048 2.528248 2.462393 0
M  V30 33 H -3.907330 3.263957 -1.424503 0
M  V30 34 H -1.884094 2.435830 -2.418349 0
M  V30 35 H -0.028763 -0.584514 0.766389 0
M  V30 36 H 0.610033 -1.441952 2.575582 0
M  V30 37 H 0.171140 -3.644129 5.374638 0
M  V30 END ATOM
M  V30 BEGIN BOND
M  V30 1 1 1 2
M  V30 2 2 2 3
M  V30 3 1 3 4
M  V30 4 2 4 5
M  V30 5 1 5 6
M  V30 6 2 6 7
M  V30 7 1 7 8
M  V30 8 2 8 9
M  V30 9 1 9 10
M  V30 10 1 10 11
M  V30 11 2 11 12
M  V30 12 1 12 13
M  V30 13 2 13 14
M  V30 14 1 14 15
M  V30 15 2 15 16
M  V30 16 1 16 17
M  V30 17 1 16 18
M  V30 18 2 18 19
M  V30 19 1 12 20
M  V30 20 2 20 21
M  V30 21 1 5 22
M  V30 22 2 22 23
M  V30 23 1 23 24
M  V30 24 1 23 2
M  V30 25 1 21 6
M  V30 26 1 20 9
M  V30 27 1 19 13
M  V30 28 1 1 25
M  V30 29 1 3 26
M  V30 30 1 4 27
M  V30 31 1 7 28
M  V30 32 1 10 29
M  V30 33 1 11 30
M  V30 34 1 14 31
M  V30 35 1 15 32
M  V30 36 1 18 33
M  V30 37 1 19 34
M  V30 38 1 21 35
M  V30 39 1 22 36
M  V30 40 1 24 37
M  V30 END BOND
M  V30 END CTAB
M  END
>  <Dataset>  (365) 
ChEMBL_Kinases

>  <Ligand_Instance>  (365) 
nan

>  <PDB_ID>  (365) 
nan

>  <Standardized_SMILES>  (365) 
Oc1ccc(-c2cnc3[nH]cc(-c4ccc(F)cc4)c3c2)cc1O

>  <Name>  (365) 
nan

>  <Pocket>  (365) 
nan

>  <ATP_Site>  (365) 
nan

>  <Peripheral>  (365) 
nan

>  <Num_H_Atoms_ProtBoundConf>  (365) 
nan

>  <Num_Resolved_Atoms>  (365) 
nan

>  <Num_Not_Resolved_Atoms>  (365) 
nan

$$$$
CHEMBL1233300
     RDKit          3D

  0  0  0  0  0  0  0  0  0  0999 V3000
M  V30 BEGIN CTAB
M  V30 COUNTS 38 40 0 0 0
M  V30 BEGIN ATOM
M  V30 1 O 0.906069 -0.881973 3.625830 0
M  V30 2 S 0.997234 -0.084045 2.347973 0
M  V30 3 O 1.620288 1.216259 2.689171 0
M  V30 4 C 1.984206 -1.019190 1.228279 0
M  V30 5 C 2.566467 -2.214814 1.583460 0
M  V30 6 C 3.327997 -2.877574 0.626959 0
M  V30 7 C 3.497973 -2.357153 -0.640663 0
M  V30 8 C 2.919259 -1.159995 -1.007579 0
M  V30 9 C 3.092290 -0.641880 -2.279645 0
M  V30 10 O 3.866542 -1.345614 -3.204972 0
M  V30 11 N 2.493722 0.535358 -2.563014 0
M  V30 12 C 1.749554 1.206798 -1.665850 0
M  V30 13 C 1.575181 0.687192 -0.387912 0
M  V30 14 C 2.170689 -0.523787 -0.043276 0
M  V30 15 N -0.605071 0.125267 1.749117 0
M  V30 16 C -1.281919 -1.119300 1.577568 0
M  V30 17 C -2.218240 -0.954263 0.388441 0
M  V30 18 C -3.549727 -0.535975 0.905289 0
M  V30 19 N -3.557175 0.267157 2.075098 0
M  V30 20 C -2.680390 1.388076 2.102361 0
M  V30 21 C -1.288414 1.062730 2.583561 0
M  V30 22 H 2.423527 -2.604449 2.573707 0
M  V30 23 H 3.803524 -3.824091 0.869807 0
M  V30 24 H 4.098350 -2.887009 -1.383172 0
M  V30 25 H 3.512967 -2.161523 -3.686843 0
M  V30 26 H 1.300255 2.147367 -1.968348 0
M  V30 27 H 0.975873 1.242635 0.311387 0
M  V30 28 H -1.831608 -1.479684 2.470040 0
M  V30 29 H -0.549637 -1.894347 1.303495 0
M  V30 30 H -1.783760 -0.255349 -0.350340 0
M  V30 31 H -2.336858 -1.915459 -0.160793 0
M  V30 32 H -4.121351 -0.089426 0.051992 0
M  V30 33 H -4.118861 -1.468795 1.146195 0
M  V30 34 H -3.615954 -0.205611 2.978828 0
M  V30 35 H -3.093508 2.108165 2.864862 0
M  V30 36 H -2.687289 1.947012 1.152259 0
M  V30 37 H -0.708399 2.009352 2.582322 0
M  V30 38 H -1.379087 0.736809 3.636583 0
M  V30 END ATOM
M  V30 BEGIN BOND
M  V30 1 2 1 2
M  V30 2 2 2 3
M  V30 3 1 2 4
M  V30 4 2 4 5
M  V30 5 1 5 6
M  V30 6 2 6 7
M  V30 7 1 7 8
M  V30 8 2 8 9
M  V30 9 1 9 10
M  V30 10 1 9 11
M  V30 11 2 11 12
M  V30 12 1 12 13
M  V30 13 2 13 14
M  V30 14 1 2 15
M  V30 15 1 15 16
M  V30 16 1 16 17
M  V30 17 1 17 18
M  V30 18 1 18 19
M  V30 19 1 19 20
M  V30 20 1 20 21
M  V30 21 1 14 4
M  V30 22 1 21 15
M  V30 23 1 14 8
M  V30 24 1 5 22
M  V30 25 1 6 23
M  V30 26 1 7 24
M  V30 27 1 10 25
M  V30 28 1 12 26
M  V30 29 1 13 27
M  V30 30 1 16 28
M  V30 31 1 16 29
M  V30 32 1 17 30
M  V30 33 1 17 31
M  V30 34 1 18 32
M  V30 35 1 18 33
M  V30 36 1 19 34
M  V30 37 1 20 35
M  V30 38 1 20 36
M  V30 39 1 21 37
M  V30 40 1 21 38
M  V30 END BOND
M  V30 END CTAB
M  END
>  <Dataset>  (366) 
ChEMBL_Kinases

>  <Ligand_Instance>  (366) 
nan

>  <PDB_ID>  (366) 
nan

>  <Standardized_SMILES>  (366) 
O=S(=O)(c1cccc2c(O)nccc12)N1CCCNCC1

>  <Name>  (366) 
HYDROXYFASUDIL

>  <Pocket>  (366) 
nan

>  <ATP_Site>  (366) 
nan

>  <Peripheral>  (366) 
nan

>  <Num_H_Atoms_ProtBoundConf>  (366) 
nan

>  <Num_Resolved_Atoms>  (366) 
nan

>  <Num_Not_Resolved_Atoms>  (366) 
nan

$$$$
CHEMBL54382
     RDKit          3D

  0  0  0  0  0  0  0  0  0  0999 V3000
M  V30 BEGIN CTAB
M  V30 COUNTS 62 67 0 0 0
M  V30 BEGIN ATOM
M  V30 1 C 2.377195 -2.596576 5.572967 0
M  V30 2 C 1.158367 -2.045463 4.855870 0
M  V30 3 N 1.586150 -1.052805 3.891124 0
M  V30 4 C 2.332430 -1.717035 2.806803 0
M  V30 5 C 2.954680 -0.585741 2.033328 0
M  V30 6 C 1.932421 0.197909 1.306370 0
M  V30 7 N 1.412467 -0.450350 0.116581 0
M  V30 8 C 0.267447 -1.044504 -0.263111 0
M  V30 9 C 0.313698 -1.499941 -1.558232 0
M  V30 10 C -0.849233 -2.169227 -2.165898 0
M  V30 11 C -2.091414 -1.683982 -1.990247 0
M  V30 12 C -2.520571 -0.513254 -1.243194 0
M  V30 13 C -1.886715 0.734240 -1.282655 0
M  V30 14 N -2.501164 1.628835 -0.475780 0
M  V30 15 C -2.149158 3.002712 -0.247519 0
M  V30 16 C -3.543597 1.008683 0.112733 0
M  V30 17 C -4.490028 1.447189 1.017310 0
M  V30 18 C -5.461320 0.546957 1.453829 0
M  V30 19 C -5.473718 -0.738569 0.995364 0
M  V30 20 C -4.522211 -1.133904 0.102170 0
M  V30 21 C -3.547420 -0.280929 -0.355128 0
M  V30 22 C -3.019576 -2.565364 -2.719134 0
M  V30 23 O -4.265442 -2.568488 -2.884496 0
M  V30 24 N -2.287881 -3.614313 -3.347975 0
M  V30 25 C -0.916115 -3.371488 -3.003067 0
M  V30 26 O 0.071632 -4.065791 -3.352774 0
M  V30 27 C 1.563199 -1.165393 -2.000849 0
M  V30 28 C 2.108674 -1.398921 -3.245472 0
M  V30 29 C 3.395372 -0.978509 -3.506709 0
M  V30 30 C 4.107394 -0.331520 -2.511714 0
M  V30 31 C 3.498677 -0.131595 -1.291257 0
M  V30 32 C 2.218212 -0.527580 -0.969622 0
M  V30 33 C 0.821379 0.551580 2.257318 0
M  V30 34 C 0.402878 -0.526964 3.198561 0
M  V30 35 H 3.053912 -1.761992 5.851862 0
M  V30 36 H 2.879608 -3.388396 4.982562 0
M  V30 37 H 2.045404 -3.048046 6.549420 0
M  V30 38 H 0.618029 -2.900298 4.361605 0
M  V30 39 H 0.494865 -1.598529 5.621001 0
M  V30 40 H 3.160915 -2.327572 3.207019 0
M  V30 41 H 1.637619 -2.246552 2.139027 0
M  V30 42 H 3.383129 0.102910 2.821476 0
M  V30 43 H 3.829427 -0.901950 1.439863 0
M  V30 44 H 2.364599 1.193605 0.978596 0
M  V30 45 H -0.542450 -1.108488 0.450022 0
M  V30 46 H -1.008437 1.029673 -1.860314 0
M  V30 47 H -2.718749 3.693982 -0.898531 0
M  V30 48 H -2.389731 3.297761 0.800239 0
M  V30 49 H -1.048266 3.200171 -0.353794 0
M  V30 50 H -4.474750 2.482267 1.382006 0
M  V30 51 H -6.223601 0.850608 2.163856 0
M  V30 52 H -6.227047 -1.433384 1.334769 0
M  V30 53 H -4.561362 -2.159387 -0.231516 0
M  V30 54 H -2.558216 -4.425626 -3.942900 0
M  V30 55 H 1.560163 -1.899627 -4.029492 0
M  V30 56 H 3.841358 -1.148596 -4.465715 0
M  V30 57 H 5.117676 0.003034 -2.704771 0
M  V30 58 H 4.100338 0.380618 -0.552712 0
M  V30 59 H 1.245081 1.374736 2.909153 0
M  V30 60 H -0.035408 1.035338 1.747150 0
M  V30 61 H -0.058655 -1.415943 2.741919 0
M  V30 62 H -0.283339 -0.062454 3.936411 0
M  V30 END ATOM
M  V30 BEGIN BOND
M  V30 1 1 1 2
M  V30 2 1 2 3
M  V30 3 1 3 4
M  V30 4 1 4 5
M  V30 5 1 5 6
M  V30 6 1 6 7
M  V30 7 1 7 8
M  V30 8 2 8 9
M  V30 9 1 9 10
M  V30 10 2 10 11
M  V30 11 1 11 12
M  V30 12 2 12 13
M  V30 13 1 13 14
M  V30 14 1 14 15
M  V30 15 1 14 16
M  V30 16 2 16 17
M  V30 17 1 17 18
M  V30 18 2 18 19
M  V30 19 1 19 20
M  V30 20 2 20 21
M  V30 21 1 11 22
M  V30 22 2 22 23
M  V30 23 1 22 24
M  V30 24 1 24 25
M  V30 25 2 25 26
M  V30 26 1 9 27
M  V30 27 2 27 28
M  V30 28 1 28 29
M  V30 29 2 29 30
M  V30 30 1 30 31
M  V30 31 2 31 32
M  V30 32 1 6 33
M  V30 33 1 33 34
M  V30 34 1 34 3
M  V30 35 1 32 7
M  V30 36 1 25 10
M  V30 37 1 32 27
M  V30 38 1 21 12
M  V30 39 1 21 16
M  V30 40 1 1 35
M  V30 41 1 1 36
M  V30 42 1 1 37
M  V30 43 1 2 38
M  V30 44 1 2 39
M  V30 45 1 4 40
M  V30 46 1 4 41
M  V30 47 1 5 42
M  V30 48 1 5 43
M  V30 49 1 6 44
M  V30 50 1 8 45
M  V30 51 1 13 46
M  V30 52 1 15 47
M  V30 53 1 15 48
M  V30 54 1 15 49
M  V30 55 1 17 50
M  V30 56 1 18 51
M  V30 57 1 19 52
M  V30 58 1 20 53
M  V30 59 1 24 54
M  V30 60 1 28 55
M  V30 61 1 29 56
M  V30 62 1 30 57
M  V30 63 1 31 58
M  V30 64 1 33 59
M  V30 65 1 33 60
M  V30 66 1 34 61
M  V30 67 1 34 62
M  V30 END BOND
M  V30 END CTAB
M  END
>  <Dataset>  (367) 
ChEMBL_Kinases

>  <Ligand_Instance>  (367) 
nan

>  <PDB_ID>  (367) 
nan

>  <Standardized_SMILES>  (367) 
CCN1CCC(n2cc(C3=C(c4cn(C)c5ccccc45)C(=O)NC3=O)c3ccccc32)CC1

>  <Name>  (367) 
nan

>  <Pocket>  (367) 
nan

>  <ATP_Site>  (367) 
nan

>  <Peripheral>  (367) 
nan

>  <Num_H_Atoms_ProtBoundConf>  (367) 
nan

>  <Num_Resolved_Atoms>  (367) 
nan

>  <Num_Not_Resolved_Atoms>  (367) 
nan

$$$$
CHEMBL206834
     RDKit          3D

  0  0  0  0  0  0  0  0  0  0999 V3000
M  V30 BEGIN CTAB
M  V30 COUNTS 73 77 0 0 0
M  V30 BEGIN ATOM
M  V30 1 C 3.411455 -2.522663 6.960818 0
M  V30 2 C 2.857438 -2.616444 5.580712 0
M  V30 3 C 3.074414 -3.769408 4.828750 0
M  V30 4 C 2.564583 -3.867533 3.550409 0
M  V30 5 C 1.834959 -2.827672 2.997606 0
M  V30 6 N 1.305909 -2.909425 1.682308 0
M  V30 7 C 1.725057 -2.557833 0.385761 0
M  V30 8 O 2.843383 -2.017374 0.199904 0
M  V30 9 C 0.843082 -2.829973 -0.741074 0
M  V30 10 C 1.308633 -2.392550 -1.963077 0
M  V30 11 C 0.494911 -2.639575 -3.072250 0
M  V30 12 C -0.728970 -3.296666 -2.954887 0
M  V30 13 C -1.526813 -3.514678 -4.216840 0
M  V30 14 N -2.638103 -2.604810 -4.250168 0
M  V30 15 C -3.434816 -2.669760 -5.426120 0
M  V30 16 C -4.324636 -1.444494 -5.301282 0
M  V30 17 C -3.647861 -0.552932 -4.311194 0 CFG=2
M  V30 18 N -3.488293 0.803519 -4.795330 0
M  V30 19 C -4.784595 1.389345 -5.079691 0
M  V30 20 C -2.698563 1.618965 -3.906660 0
M  V30 21 C -2.308269 -1.227534 -4.077002 0
M  V30 22 C -1.184598 -3.729997 -1.730740 0
M  V30 23 C -2.482775 -4.432147 -1.595045 0
M  V30 24 F -2.645793 -4.711755 -0.238321 0
M  V30 25 F -3.516111 -3.625418 -1.988365 0
M  V30 26 F -2.480240 -5.647920 -2.259923 0
M  V30 27 C -0.364591 -3.477412 -0.630713 0
M  V30 28 C 1.668970 -1.727223 3.810238 0
M  V30 29 C 2.137808 -1.551759 5.080561 0
M  V30 30 N 1.883932 -0.353851 5.804814 0
M  V30 31 C 1.156452 0.762270 5.302889 0
M  V30 32 N -0.193383 0.969215 5.369021 0
M  V30 33 C -0.759270 2.068975 4.859377 0
M  V30 34 C 0.051569 3.008426 4.255175 0
M  V30 35 C 1.417131 2.839617 4.166250 0
M  V30 36 C 2.309856 3.798641 3.542359 0
M  V30 37 C 3.667357 3.500548 3.525532 0
M  V30 38 N 4.512806 4.393496 2.942883 0
M  V30 39 C 4.069480 5.532965 2.395859 0
M  V30 40 N 2.740266 5.852818 2.396685 0
M  V30 41 C 1.886582 4.979429 2.970408 0
M  V30 42 N 1.911698 1.725412 4.692453 0
M  V30 43 H 3.800913 -3.496527 7.317859 0
M  V30 44 H 4.239901 -1.809675 6.986340 0
M  V30 45 H 2.602362 -2.133777 7.617156 0
M  V30 46 H 3.660299 -4.556667 5.324020 0
M  V30 47 H 2.752110 -4.792985 2.985340 0
M  V30 48 H 0.408206 -3.356599 1.946319 0
M  V30 49 H 2.247223 -1.877811 -2.109366 0
M  V30 50 H 0.835715 -2.308455 -4.031995 0
M  V30 51 H -1.904288 -4.555155 -4.260032 0
M  V30 52 H -0.878219 -3.340553 -5.096079 0
M  V30 53 H -4.042808 -3.580862 -5.543495 0
M  V30 54 H -2.797064 -2.620816 -6.333652 0
M  V30 55 H -5.312875 -1.802899 -4.918445 0
M  V30 56 H -4.514220 -0.948137 -6.278476 0
M  V30 57 H -4.167926 -0.498947 -3.342788 0
M  V30 58 H -4.679300 2.501979 -4.952588 0
M  V30 59 H -5.127000 1.242554 -6.123735 0
M  V30 60 H -5.500593 0.986423 -4.335318 0
M  V30 61 H -3.311042 2.494126 -3.553104 0
M  V30 62 H -2.449732 1.069532 -2.968326 0
M  V30 63 H -1.792447 2.056782 -4.373362 0
M  V30 64 H -1.917098 -1.000135 -3.067687 0
M  V30 65 H -1.549582 -0.924160 -4.828382 0
M  V30 66 H -0.713140 -3.811437 0.315264 0
M  V30 67 H 1.086931 -0.910627 3.356617 0
M  V30 68 H 2.262151 -0.295874 6.780914 0
M  V30 69 H -1.833182 2.145173 4.961419 0
M  V30 70 H -0.407277 3.882795 3.850554 0
M  V30 71 H 4.102411 2.590157 3.954252 0
M  V30 72 H 4.836162 6.182331 1.952566 0
M  V30 73 H 0.834097 5.239784 2.969243 0
M  V30 END ATOM
M  V30 BEGIN BOND
M  V30 1 1 1 2
M  V30 2 2 2 3
M  V30 3 1 3 4
M  V30 4 2 4 5
M  V30 5 1 5 6
M  V30 6 1 6 7
M  V30 7 2 7 8
M  V30 8 1 7 9
M  V30 9 2 9 10
M  V30 10 1 10 11
M  V30 11 2 11 12
M  V30 12 1 12 13
M  V30 13 1 13 14
M  V30 14 1 14 15
M  V30 15 1 15 16
M  V30 16 1 16 17
M  V30 17 1 17 18
M  V30 18 1 18 19
M  V30 19 1 18 20
M  V30 20 1 17 21
M  V30 21 1 12 22
M  V30 22 1 22 23
M  V30 23 1 23 24
M  V30 24 1 23 25
M  V30 25 1 23 26
M  V30 26 2 22 27
M  V30 27 1 5 28
M  V30 28 2 28 29
M  V30 29 1 29 30
M  V30 30 1 30 31
M  V30 31 2 31 32
M  V30 32 1 32 33
M  V30 33 2 33 34
M  V30 34 1 34 35
M  V30 35 1 35 36
M  V30 36 2 36 37
M  V30 37 1 37 38
M  V30 38 2 38 39
M  V30 39 1 39 40
M  V30 40 2 40 41
M  V30 41 2 35 42
M  V30 42 1 29 2
M  V30 43 1 42 31
M  V30 44 1 27 9
M  V30 45 1 41 36
M  V30 46 1 21 14
M  V30 47 1 1 43
M  V30 48 1 1 44
M  V30 49 1 1 45
M  V30 50 1 3 46
M  V30 51 1 4 47
M  V30 52 1 6 48
M  V30 53 1 10 49
M  V30 54 1 11 50
M  V30 55 1 13 51
M  V30 56 1 13 52
M  V30 57 1 15 53
M  V30 58 1 15 54
M  V30 59 1 16 55
M  V30 60 1 16 56
M  V30 61 1 17 57 CFG=1
M  V30 62 1 19 58
M  V30 63 1 19 59
M  V30 64 1 19 60
M  V30 65 1 20 61
M  V30 66 1 20 62
M  V30 67 1 20 63
M  V30 68 1 21 64
M  V30 69 1 21 65
M  V30 70 1 27 66
M  V30 71 1 28 67
M  V30 72 1 30 68
M  V30 73 1 33 69
M  V30 74 1 34 70
M  V30 75 1 37 71
M  V30 76 1 39 72
M  V30 77 1 41 73
M  V30 END BOND
M  V30 END CTAB
M  END
>  <Dataset>  (368) 
ChEMBL_Kinases

>  <Ligand_Instance>  (368) 
nan

>  <PDB_ID>  (368) 
nan

>  <Standardized_SMILES>  (368) 
Cc1ccc(NC(=O)c2ccc(CN3CC[C@H](N(C)C)C3)c(C(F)(F)F)c2)cc1Nc1nccc(-c2cncnc2)n1

>  <Name>  (368) 
BAFETINIB

>  <Pocket>  (368) 
nan

>  <ATP_Site>  (368) 
nan

>  <Peripheral>  (368) 
nan

>  <Num_H_Atoms_ProtBoundConf>  (368) 
nan

>  <Num_Resolved_Atoms>  (368) 
nan

>  <Num_Not_Resolved_Atoms>  (368) 
nan

$$$$
CHEMBL4537673
     RDKit          3D

  0  0  0  0  0  0  0  0  0  0999 V3000
M  V30 BEGIN CTAB
M  V30 COUNTS 70 74 0 0 0
M  V30 BEGIN ATOM
M  V30 1 C 1.257039 -0.930927 4.817860 0
M  V30 2 C 0.652712 -2.294694 4.444770 0 CFG=2
M  V30 3 C 1.633600 -3.191625 3.817103 0
M  V30 4 C 2.386165 -4.103065 4.585564 0
M  V30 5 C 3.330046 -4.986237 4.145967 0
M  V30 6 N 3.577383 -4.992953 2.817995 0
M  V30 7 C 2.925080 -4.168765 1.968798 0
M  V30 8 N 3.192707 -4.184839 0.583288 0
M  V30 9 C 2.529808 -3.336742 -0.349188 0
M  V30 10 N 1.400354 -3.897751 -0.861264 0
M  V30 11 C 0.829925 -3.042087 -1.730906 0
M  V30 12 C -0.290945 -3.026411 -2.546412 0
M  V30 13 C -0.540128 -1.913191 -3.322990 0
M  V30 14 C 0.273630 -0.799710 -3.334295 0
M  V30 15 C 0.028858 0.391210 -4.148879 0
M  V30 16 C -1.052624 0.520137 -4.995814 0
M  V30 17 C -1.333845 1.604414 -5.778627 0
M  V30 18 N -2.472866 1.666138 -6.630930 0
M  V30 19 C -3.785477 2.181320 -6.224245 0
M  V30 20 C -2.270308 1.175684 -7.980255 0
M  V30 21 N -0.455947 2.647728 -5.705954 0
M  V30 22 C 0.614127 2.555544 -4.886989 0
M  V30 23 N 0.862317 1.456202 -4.119807 0
M  V30 24 C 1.394280 -0.801048 -2.526703 0
M  V30 25 C 1.635737 -1.922615 -1.751238 0
M  V30 26 N 2.667063 -2.118025 -0.904064 0
M  V30 27 C 1.990641 -3.310799 2.492886 0
M  V30 28 N -0.639472 -2.206661 3.854125 0
M  V30 29 C -1.555287 -1.714507 4.843895 0
M  V30 30 C -2.025281 -0.333795 4.762586 0
M  V30 31 N -1.753164 0.378538 3.564286 0
M  V30 32 C -1.436570 1.748538 3.354905 0
M  V30 33 O -1.208546 2.292595 2.243681 0
M  V30 34 C -1.374413 2.597384 4.572089 0
M  V30 35 C -1.023894 4.043627 4.213368 0
M  V30 36 F -1.989638 4.537330 3.370521 0
M  V30 37 F 0.235168 4.093030 3.640559 0
M  V30 38 F -0.997712 4.750319 5.394098 0
M  V30 39 C -1.846992 -0.557072 2.466184 0
M  V30 40 C -0.627637 -1.488148 2.635211 0
M  V30 41 H 0.677003 -0.480041 5.632862 0
M  V30 42 H 1.475096 -0.302735 3.959358 0
M  V30 43 H 2.242696 -1.216847 5.299869 0
M  V30 44 H 0.519479 -2.748474 5.502472 0
M  V30 45 H 2.216902 -4.128838 5.660852 0
M  V30 46 H 3.855174 -5.647463 4.818434 0
M  V30 47 H 3.910813 -4.850119 0.224140 0
M  V30 48 H -0.936936 -3.890425 -2.548058 0
M  V30 49 H -1.415542 -1.927800 -3.945782 0
M  V30 50 H -1.769007 -0.282889 -5.081155 0
M  V30 51 H -3.878306 2.208754 -5.127895 0
M  V30 52 H -4.603852 1.496256 -6.589573 0
M  V30 53 H -3.990747 3.175195 -6.661216 0
M  V30 54 H -1.217178 1.317769 -8.314489 0
M  V30 55 H -2.980153 1.762520 -8.621572 0
M  V30 56 H -2.496267 0.094683 -8.101606 0
M  V30 57 H 1.355696 3.364144 -4.786608 0
M  V30 58 H 2.068622 0.058184 -2.501903 0
M  V30 59 H 3.483243 -1.585296 -0.602286 0
M  V30 60 H 1.503299 -2.673317 1.784255 0
M  V30 61 H -2.453081 -2.400328 4.773306 0
M  V30 62 H -1.147087 -1.955421 5.862561 0
M  V30 63 H -3.133049 -0.265195 4.963431 0
M  V30 64 H -1.586944 0.260346 5.617994 0
M  V30 65 H -0.725577 2.206878 5.364075 0
M  V30 66 H -2.407973 2.655533 5.000741 0
M  V30 67 H -2.792908 -1.099393 2.483988 0
M  V30 68 H -1.669746 -0.048277 1.491065 0
M  V30 69 H 0.233051 -0.818921 2.458555 0
M  V30 70 H -0.790846 -2.230876 1.811514 0
M  V30 END ATOM
M  V30 BEGIN BOND
M  V30 1 1 1 2
M  V30 2 1 2 3
M  V30 3 2 3 4
M  V30 4 1 4 5
M  V30 5 2 5 6
M  V30 6 1 6 7
M  V30 7 1 7 8
M  V30 8 1 8 9
M  V30 9 2 9 10
M  V30 10 1 10 11
M  V30 11 2 11 12
M  V30 12 1 12 13
M  V30 13 2 13 14
M  V30 14 1 14 15
M  V30 15 2 15 16
M  V30 16 1 16 17
M  V30 17 1 17 18
M  V30 18 1 18 19
M  V30 19 1 18 20
M  V30 20 2 17 21
M  V30 21 1 21 22
M  V30 22 2 22 23
M  V30 23 1 14 24
M  V30 24 2 24 25
M  V30 25 1 25 26
M  V30 26 2 7 27
M  V30 27 1 2 28
M  V30 28 1 28 29
M  V30 29 1 29 30
M  V30 30 1 30 31
M  V30 31 1 31 32
M  V30 32 2 32 33
M  V30 33 1 32 34
M  V30 34 1 34 35
M  V30 35 1 35 36
M  V30 36 1 35 37
M  V30 37 1 35 38
M  V30 38 1 31 39
M  V30 39 1 39 40
M  V30 40 1 27 3
M  V30 41 1 40 28
M  V30 42 1 26 9
M  V30 43 1 25 11
M  V30 44 1 23 15
M  V30 45 1 1 41
M  V30 46 1 1 42
M  V30 47 1 1 43
M  V30 48 1 2 44 CFG=1
M  V30 49 1 4 45
M  V30 50 1 5 46
M  V30 51 1 8 47
M  V30 52 1 12 48
M  V30 53 1 13 49
M  V30 54 1 16 50
M  V30 55 1 19 51
M  V30 56 1 19 52
M  V30 57 1 19 53
M  V30 58 1 20 54
M  V30 59 1 20 55
M  V30 60 1 20 56
M  V30 61 1 22 57
M  V30 62 1 24 58
M  V30 63 1 26 59
M  V30 64 1 27 60
M  V30 65 1 29 61
M  V30 66 1 29 62
M  V30 67 1 30 63
M  V30 68 1 30 64
M  V30 69 1 34 65
M  V30 70 1 34 66
M  V30 71 1 39 67
M  V30 72 1 39 68
M  V30 73 1 40 69
M  V30 74 1 40 70
M  V30 END BOND
M  V30 END CTAB
M  END
>  <Dataset>  (369) 
ChEMBL_Kinases

>  <Ligand_Instance>  (369) 
nan

>  <PDB_ID>  (369) 
nan

>  <Standardized_SMILES>  (369) 
C[C@H](c1ccnc(Nc2nc3ccc(-c4cc(N(C)C)ncn4)cc3[nH]2)c1)N1CCN(C(=O)CC(F)(F)F)CC1

>  <Name>  (369) 
BAY-985

>  <Pocket>  (369) 
nan

>  <ATP_Site>  (369) 
nan

>  <Peripheral>  (369) 
nan

>  <Num_H_Atoms_ProtBoundConf>  (369) 
nan

>  <Num_Resolved_Atoms>  (369) 
nan

>  <Num_Not_Resolved_Atoms>  (369) 
nan

$$$$
CHEMBL340259
     RDKit          3D

  0  0  0  0  0  0  0  0  0  0999 V3000
M  V30 BEGIN CTAB
M  V30 COUNTS 63 68 0 0 0
M  V30 BEGIN ATOM
M  V30 1 O 3.724529 0.367253 4.022953 0
M  V30 2 C 3.499727 -0.325563 2.967939 0
M  V30 3 N 4.554973 -1.084179 2.385238 0
M  V30 4 C 3.872032 -1.682622 1.259423 0
M  V30 5 O 4.609688 -2.440761 0.534013 0
M  V30 6 C 2.448532 -1.265318 1.211792 0
M  V30 7 C 2.227825 -0.462294 2.219784 0
M  V30 8 C 1.027114 0.249799 2.617786 0
M  V30 9 C -0.189606 -0.186370 3.080773 0
M  V30 10 N -0.958001 0.894498 3.298487 0
M  V30 11 C -0.326152 2.047708 3.008087 0
M  V30 12 C -0.703797 3.372112 3.072538 0
M  V30 13 C 0.170369 4.370960 2.703197 0
M  V30 14 C 1.430974 4.023226 2.267436 0
M  V30 15 C 1.767188 2.688073 2.218502 0
M  V30 16 C 0.901649 1.650553 2.586817 0
M  V30 17 C -2.336260 0.735034 3.776872 0
M  V30 18 C -3.181575 0.162166 2.632071 0
M  V30 19 O -3.087452 1.002502 1.544211 0
M  V30 20 C -3.804194 0.570387 0.467538 0
M  V30 21 C -3.356440 -0.793989 0.037479 0
M  V30 22 O -4.075114 -1.241390 -1.077863 0
M  V30 23 C -3.751377 -2.510705 -1.436544 0
M  V30 24 C -2.293800 -2.706402 -1.807725 0
M  V30 25 O -2.177256 -4.030414 -2.128467 0
M  V30 26 C -1.026184 -4.575754 -2.527917 0
M  V30 27 C 0.137982 -4.516289 -1.626394 0
M  V30 28 N 0.741679 -3.267638 -1.307714 0
M  V30 29 C 1.166863 -3.098756 -0.042851 0
M  V30 30 C 1.791948 -1.879095 0.068772 0
M  V30 31 C 1.714519 -1.331108 -1.191648 0
M  V30 32 C 2.195387 -0.119245 -1.643802 0
M  V30 33 C 2.046047 0.291322 -2.973852 0
M  V30 34 C 1.383649 -0.574776 -3.851041 0
M  V30 35 C 0.919628 -1.774392 -3.359609 0
M  V30 36 C 1.050580 -2.204755 -2.064056 0
M  V30 37 H 5.536411 -1.152058 2.723035 0
M  V30 38 H -0.500363 -1.202290 3.248844 0
M  V30 39 H -1.677828 3.630033 3.409814 0
M  V30 40 H -0.133229 5.408151 2.756504 0
M  V30 41 H 2.127124 4.793683 1.974673 0
M  V30 42 H 2.754433 2.478897 1.873816 0
M  V30 43 H -2.758134 1.717382 4.029954 0
M  V30 44 H -2.407156 0.089941 4.669847 0
M  V30 45 H -4.204522 0.004709 3.015049 0
M  V30 46 H -2.696389 -0.826065 2.420184 0
M  V30 47 H -3.571071 1.258343 -0.381621 0
M  V30 48 H -4.895880 0.545877 0.667018 0
M  V30 49 H -2.272156 -0.818571 -0.188457 0
M  V30 50 H -3.529799 -1.570403 0.826355 0
M  V30 51 H -4.054657 -3.186308 -0.606874 0
M  V30 52 H -4.330589 -2.867433 -2.315857 0
M  V30 53 H -1.620783 -2.547734 -0.920665 0
M  V30 54 H -2.061504 -2.028595 -2.634920 0
M  V30 55 H -0.766837 -4.382687 -3.607559 0
M  V30 56 H -1.256750 -5.714711 -2.593211 0
M  V30 57 H 0.887415 -5.258323 -2.027273 0
M  V30 58 H -0.197955 -5.041581 -0.667328 0
M  V30 59 H 1.089718 -3.727906 0.804736 0
M  V30 60 H 2.720645 0.641339 -1.085126 0
M  V30 61 H 2.387867 1.206850 -3.396992 0
M  V30 62 H 1.248546 -0.292157 -4.886591 0
M  V30 63 H 0.412304 -2.444732 -4.029289 0
M  V30 END ATOM
M  V30 BEGIN BOND
M  V30 1 2 1 2
M  V30 2 1 2 3
M  V30 3 1 3 4
M  V30 4 2 4 5
M  V30 5 1 4 6
M  V30 6 2 6 7
M  V30 7 1 7 8
M  V30 8 2 8 9
M  V30 9 1 9 10
M  V30 10 1 10 11
M  V30 11 2 11 12
M  V30 12 1 12 13
M  V30 13 2 13 14
M  V30 14 1 14 15
M  V30 15 2 15 16
M  V30 16 1 10 17
M  V30 17 1 17 18
M  V30 18 1 18 19
M  V30 19 1 19 20
M  V30 20 1 20 21
M  V30 21 1 21 22
M  V30 22 1 22 23
M  V30 23 1 23 24
M  V30 24 1 24 25
M  V30 25 1 25 26
M  V30 26 1 26 27
M  V30 27 1 27 28
M  V30 28 1 28 29
M  V30 29 2 29 30
M  V30 30 1 30 31
M  V30 31 2 31 32
M  V30 32 1 32 33
M  V30 33 2 33 34
M  V30 34 1 34 35
M  V30 35 2 35 36
M  V30 36 1 7 2
M  V30 37 1 16 8
M  V30 38 1 36 28
M  V30 39 1 30 6
M  V30 40 1 36 31
M  V30 41 1 16 11
M  V30 42 1 3 37
M  V30 43 1 9 38
M  V30 44 1 12 39
M  V30 45 1 13 40
M  V30 46 1 14 41
M  V30 47 1 15 42
M  V30 48 1 17 43
M  V30 49 1 17 44
M  V30 50 1 18 45
M  V30 51 1 18 46
M  V30 52 1 20 47
M  V30 53 1 20 48
M  V30 54 1 21 49
M  V30 55 1 21 50
M  V30 56 1 23 51
M  V30 57 1 23 52
M  V30 58 1 24 53
M  V30 59 1 24 54
M  V30 60 1 26 55
M  V30 61 1 26 56
M  V30 62 1 27 57
M  V30 63 1 27 58
M  V30 64 1 29 59
M  V30 65 1 32 60
M  V30 66 1 33 61
M  V30 67 1 34 62
M  V30 68 1 35 63
M  V30 END BOND
M  V30 END CTAB
M  END
>  <Dataset>  (370) 
ChEMBL_Kinases

>  <Ligand_Instance>  (370) 
nan

>  <PDB_ID>  (370) 
nan

>  <Standardized_SMILES>  (370) 
O=C1NC(=O)C2=C1c1cn(c3ccccc13)CCOCCOCCOCCn1cc2c2ccccc21

>  <Name>  (370) 
INDOLYLYLMALEIMIDE 2

>  <Pocket>  (370) 
nan

>  <ATP_Site>  (370) 
nan

>  <Peripheral>  (370) 
nan

>  <Num_H_Atoms_ProtBoundConf>  (370) 
nan

>  <Num_Resolved_Atoms>  (370) 
nan

>  <Num_Not_Resolved_Atoms>  (370) 
nan

$$$$
CHEMBL4741919
     RDKit          3D

  0  0  0  0  0  0  0  0  0  0999 V3000
M  V30 BEGIN CTAB
M  V30 COUNTS 52 56 0 0 0
M  V30 BEGIN ATOM
M  V30 1 C 1.187251 -6.757106 1.052231 0
M  V30 2 N 0.972037 -5.458866 0.504004 0
M  V30 3 C -0.402821 -5.017793 0.506429 0
M  V30 4 C -0.331426 -3.508672 0.610725 0
M  V30 5 C 0.727344 -2.873199 -0.213708 0
M  V30 6 C 1.529679 -1.918080 0.634218 0
M  V30 7 C 2.337735 -2.434415 1.625440 0
M  V30 8 C 3.114883 -1.648745 2.459735 0
M  V30 9 C 3.089213 -0.280050 2.302732 0
M  V30 10 C 2.289416 0.249972 1.319877 0
M  V30 11 C 2.188094 1.685851 1.068338 0
M  V30 12 C 3.198839 2.635272 0.987064 0
M  V30 13 O 2.712677 3.823470 0.747178 0
M  V30 14 C 1.400820 3.781649 0.650757 0
M  V30 15 C 0.389376 4.712497 0.413070 0
M  V30 16 C -0.934780 4.324511 0.374389 0
M  V30 17 C -1.206195 2.993715 0.578682 0
M  V30 18 C -2.595136 2.548896 0.544507 0
M  V30 19 C -3.043437 1.260770 0.727587 0
M  V30 20 N -4.397710 1.244717 0.623422 0
M  V30 21 N -4.792250 2.486611 0.381661 0
M  V30 22 C -6.159281 2.924675 0.199467 0
M  V30 23 C -3.729417 3.306215 0.326544 0
M  V30 24 N -0.252428 2.071323 0.810385 0
M  V30 25 C 1.037213 2.445780 0.848638 0
M  V30 26 C 1.516857 -0.526384 0.490075 0
M  V30 27 C 1.585345 -3.751558 -1.037558 0
M  V30 28 C 1.490445 -5.217904 -0.796454 0
M  V30 29 H 2.145773 -7.161921 0.649598 0
M  V30 30 H 1.381619 -6.620391 2.146817 0
M  V30 31 H 0.346481 -7.449466 0.966837 0
M  V30 32 H -0.984126 -5.464909 1.311259 0
M  V30 33 H -0.919414 -5.229761 -0.452599 0
M  V30 34 H -1.344369 -3.060674 0.480855 0
M  V30 35 H -0.103827 -3.321340 1.702261 0
M  V30 36 H 0.181074 -2.173828 -0.917839 0
M  V30 37 H 2.440512 -3.490139 1.843371 0
M  V30 38 H 3.750009 -2.028941 3.236445 0
M  V30 39 H 3.654673 0.427874 2.897124 0
M  V30 40 H 4.252683 2.354654 1.117813 0
M  V30 41 H 0.740883 5.744179 0.265827 0
M  V30 42 H -1.679159 5.086800 0.186363 0
M  V30 43 H -2.428769 0.407336 0.920841 0
M  V30 44 H -6.259013 3.668494 -0.608705 0
M  V30 45 H -6.474208 3.413343 1.143058 0
M  V30 46 H -6.820717 2.073130 -0.003832 0
M  V30 47 H -3.764423 4.366956 0.143882 0
M  V30 48 H 0.879445 -0.132817 -0.290546 0
M  V30 49 H 2.660911 -3.475292 -0.819964 0
M  V30 50 H 1.493648 -3.518108 -2.135952 0
M  V30 51 H 2.476269 -5.741016 -0.961271 0
M  V30 52 H 0.816048 -5.673858 -1.577391 0
M  V30 END ATOM
M  V30 BEGIN BOND
M  V30 1 1 1 2
M  V30 2 1 2 3
M  V30 3 1 3 4
M  V30 4 1 4 5
M  V30 5 1 5 6
M  V30 6 2 6 7
M  V30 7 1 7 8
M  V30 8 2 8 9
M  V30 9 1 9 10
M  V30 10 1 10 11
M  V30 11 2 11 12
M  V30 12 1 12 13
M  V30 13 1 13 14
M  V30 14 2 14 15
M  V30 15 1 15 16
M  V30 16 2 16 17
M  V30 17 1 17 18
M  V30 18 1 18 19
M  V30 19 2 19 20
M  V30 20 1 20 21
M  V30 21 1 21 22
M  V30 22 1 21 23
M  V30 23 1 17 24
M  V30 24 2 24 25
M  V30 25 2 10 26
M  V30 26 1 5 27
M  V30 27 1 27 28
M  V30 28 1 28 2
M  V30 29 1 26 6
M  V30 30 1 25 11
M  V30 31 1 25 14
M  V30 32 2 23 18
M  V30 33 1 1 29
M  V30 34 1 1 30
M  V30 35 1 1 31
M  V30 36 1 3 32
M  V30 37 1 3 33
M  V30 38 1 4 34
M  V30 39 1 4 35
M  V30 40 1 5 36
M  V30 41 1 7 37
M  V30 42 1 8 38
M  V30 43 1 9 39
M  V30 44 1 12 40
M  V30 45 1 15 41
M  V30 46 1 16 42
M  V30 47 1 19 43
M  V30 48 1 22 44
M  V30 49 1 22 45
M  V30 50 1 22 46
M  V30 51 1 23 47
M  V30 52 1 26 48
M  V30 53 1 27 49
M  V30 54 1 27 50
M  V30 55 1 28 51
M  V30 56 1 28 52
M  V30 END BOND
M  V30 END CTAB
M  END
>  <Dataset>  (371) 
ChEMBL_Kinases

>  <Ligand_Instance>  (371) 
nan

>  <PDB_ID>  (371) 
nan

>  <Standardized_SMILES>  (371) 
CN1CCC(c2cccc(-c3coc4ccc(-c5cnn(C)c5)nc34)c2)CC1

>  <Name>  (371) 
nan

>  <Pocket>  (371) 
nan

>  <ATP_Site>  (371) 
nan

>  <Peripheral>  (371) 
nan

>  <Num_H_Atoms_ProtBoundConf>  (371) 
nan

>  <Num_Resolved_Atoms>  (371) 
nan

>  <Num_Not_Resolved_Atoms>  (371) 
nan

$$$$
CHEMBL4791451
     RDKit          3D

  0  0  0  0  0  0  0  0  0  0999 V3000
M  V30 BEGIN CTAB
M  V30 COUNTS 49 53 0 0 0
M  V30 BEGIN ATOM
M  V30 1 C 0.076462 -5.204501 2.810970 0
M  V30 2 N 0.276877 -4.818032 1.422654 0
M  V30 3 C 0.512956 -3.589480 0.898640 0
M  V30 4 C 0.639317 -3.695987 -0.479959 0
M  V30 5 C 0.897637 -2.596063 -1.404532 0
M  V30 6 C 0.996666 -2.859855 -2.744571 0
M  V30 7 C 1.240454 -1.814331 -3.606440 0
M  V30 8 C 1.371467 -0.541577 -3.047501 0
M  V30 9 O 1.600627 0.600628 -3.628449 0
M  V30 10 C 1.654067 1.582656 -2.734922 0
M  V30 11 C 1.445336 1.044090 -1.484228 0
M  V30 12 C 1.402022 1.679387 -0.150607 0
M  V30 13 C 2.345362 2.609632 0.237039 0
M  V30 14 C 2.188219 3.123322 1.505222 0
M  V30 15 C 1.173257 2.773800 2.386407 0
M  V30 16 C 0.249934 1.827275 1.935180 0
M  V30 17 C -0.880441 1.395810 2.832403 0
M  V30 18 C -0.804491 -0.049514 3.082534 0
M  V30 19 C -2.026694 -0.851048 2.770075 0
M  V30 20 N -3.247894 -0.085464 2.725263 0
M  V30 21 C -3.042958 0.876529 1.632985 0
M  V30 22 C -2.128313 1.913406 2.189896 0
M  V30 23 C 0.358011 1.270110 0.656628 0
M  V30 24 C 1.263479 -0.314393 -1.673202 0
M  V30 25 N 1.026020 -1.367163 -0.883145 0
M  V30 26 C 0.467911 -5.038732 -0.747306 0
M  V30 27 N 0.249699 -5.692462 0.429537 0
M  V30 28 H 0.881347 -5.903527 3.108352 0
M  V30 29 H -0.940027 -5.565748 3.006419 0
M  V30 30 H 0.227172 -4.300596 3.465705 0
M  V30 31 H 0.580451 -2.708797 1.509673 0
M  V30 32 H 0.888942 -3.870497 -3.152551 0
M  V30 33 H 1.330602 -1.944608 -4.668410 0
M  V30 34 H 1.827011 2.636797 -2.897106 0
M  V30 35 H 3.136332 2.898551 -0.416726 0
M  V30 36 H 2.900095 3.860064 1.867020 0
M  V30 37 H 1.099613 3.211360 3.373049 0
M  V30 38 H -0.713826 1.993438 3.765514 0
M  V30 39 H -0.522537 -0.263558 4.135542 0
M  V30 40 H 0.022264 -0.510612 2.475343 0
M  V30 41 H -2.188889 -1.677785 3.492988 0
M  V30 42 H -1.953751 -1.349896 1.771660 0
M  V30 43 H -3.991359 -0.727552 2.366902 0
M  V30 44 H -4.032502 1.354111 1.473336 0
M  V30 45 H -2.719521 0.377234 0.721479 0
M  V30 46 H -2.746997 2.497456 2.931424 0
M  V30 47 H -1.941190 2.650328 1.375382 0
M  V30 48 H -0.356807 0.552534 0.337605 0
M  V30 49 H 0.501490 -5.494190 -1.727570 0
M  V30 END ATOM
M  V30 BEGIN BOND
M  V30 1 1 1 2
M  V30 2 1 2 3
M  V30 3 2 3 4
M  V30 4 1 4 5
M  V30 5 2 5 6
M  V30 6 1 6 7
M  V30 7 2 7 8
M  V30 8 1 8 9
M  V30 9 1 9 10
M  V30 10 2 10 11
M  V30 11 1 11 12
M  V30 12 2 12 13
M  V30 13 1 13 14
M  V30 14 2 14 15
M  V30 15 1 15 16
M  V30 16 1 16 17
M  V30 17 1 17 18
M  V30 18 1 18 19
M  V30 19 1 19 20
M  V30 20 1 20 21
M  V30 21 1 21 22
M  V30 22 2 16 23
M  V30 23 1 11 24
M  V30 24 2 24 25
M  V30 25 1 4 26
M  V30 26 2 26 27
M  V30 27 1 27 2
M  V30 28 1 25 5
M  V30 29 1 24 8
M  V30 30 1 23 12
M  V30 31 1 22 17
M  V30 32 1 1 28
M  V30 33 1 1 29
M  V30 34 1 1 30
M  V30 35 1 3 31
M  V30 36 1 6 32
M  V30 37 1 7 33
M  V30 38 1 10 34
M  V30 39 1 13 35
M  V30 40 1 14 36
M  V30 41 1 15 37
M  V30 42 1 17 38
M  V30 43 1 18 39
M  V30 44 1 18 40
M  V30 45 1 19 41
M  V30 46 1 19 42
M  V30 47 1 20 43
M  V30 48 1 21 44
M  V30 49 1 21 45
M  V30 50 1 22 46
M  V30 51 1 22 47
M  V30 52 1 23 48
M  V30 53 1 26 49
M  V30 END BOND
M  V30 END CTAB
M  END
>  <Dataset>  (372) 
ChEMBL_Kinases

>  <Ligand_Instance>  (372) 
nan

>  <PDB_ID>  (372) 
nan

>  <Standardized_SMILES>  (372) 
Cn1cc(-c2ccc3occ(-c4cccc(C5CCNCC5)c4)c3n2)cn1

>  <Name>  (372) 
nan

>  <Pocket>  (372) 
nan

>  <ATP_Site>  (372) 
nan

>  <Peripheral>  (372) 
nan

>  <Num_H_Atoms_ProtBoundConf>  (372) 
nan

>  <Num_Resolved_Atoms>  (372) 
nan

>  <Num_Not_Resolved_Atoms>  (372) 
nan

$$$$
CHEMBL2426387
     RDKit          3D

  0  0  0  0  0  0  0  0  0  0999 V3000
M  V30 BEGIN CTAB
M  V30 COUNTS 51 54 0 0 0
M  V30 BEGIN ATOM
M  V30 1 C 3.947065 -3.255618 5.130989 0
M  V30 2 O 3.809390 -3.561764 3.767103 0
M  V30 3 C 3.817301 -2.644310 2.730698 0
M  V30 4 C 3.961714 -1.286255 2.885433 0
M  V30 5 C 3.953490 -0.449402 1.757855 0
M  V30 6 C 3.794462 -1.074480 0.510226 0
M  V30 7 N 3.798072 -0.096573 -0.545842 0
M  V30 8 C 3.013160 0.766718 -1.321675 0
M  V30 9 S 3.764519 1.678257 -2.427366 0
M  V30 10 N 1.619384 0.935842 -1.241163 0
M  V30 11 C 0.651857 0.334454 -0.425905 0
M  V30 12 O 1.046028 -0.543903 0.424588 0
M  V30 13 C -0.777176 0.379649 -0.204144 0
M  V30 14 C -1.366003 1.424010 0.478357 0
M  V30 15 N -2.699825 1.157588 0.507796 0
M  V30 16 C -3.793348 1.870810 1.077577 0
M  V30 17 C -3.687460 1.844433 2.475337 0
M  V30 18 C -4.624353 2.460723 3.291969 0
M  V30 19 C -5.676746 3.107662 2.641389 0
M  V30 20 C -5.802923 3.148759 1.271168 0
M  V30 21 C -4.855630 2.526853 0.492958 0
M  V30 22 N -2.934902 0.017101 -0.118222 0
M  V30 23 C -1.781200 -0.514389 -0.582176 0
M  V30 24 C -1.413332 -1.726178 -1.327756 0
M  V30 25 C -1.975677 -2.949039 -0.939118 0
M  V30 26 C -1.605577 -4.054099 -1.664991 0
M  V30 27 C -0.730326 -4.024329 -2.731717 0
M  V30 28 Cl -0.260418 -5.454432 -3.658331 0
M  V30 29 C -0.199544 -2.798856 -3.081489 0
M  V30 30 C -0.537069 -1.660131 -2.386513 0
M  V30 31 C 3.650298 -2.435794 0.364495 0
M  V30 32 C 3.663481 -3.225453 1.493908 0
M  V30 33 H 3.250456 -3.935291 5.698434 0
M  V30 34 H 5.003272 -3.426922 5.462371 0
M  V30 35 H 3.663276 -2.221059 5.350420 0
M  V30 36 H 4.080764 -0.888624 3.865222 0
M  V30 37 H 4.069925 0.584701 1.962609 0
M  V30 38 H 4.837608 -0.145885 -0.713125 0
M  V30 39 H 1.080330 1.615930 -1.858169 0
M  V30 40 H -0.938774 2.329289 0.941962 0
M  V30 41 H -2.908308 1.369533 3.068386 0
M  V30 42 H -4.618694 2.489171 4.368784 0
M  V30 43 H -6.439046 3.604990 3.250942 0
M  V30 44 H -6.601357 3.636687 0.732910 0
M  V30 45 H -4.801398 2.458913 -0.574617 0
M  V30 46 H -2.661901 -3.000683 -0.110819 0
M  V30 47 H -2.028545 -5.008100 -1.379122 0
M  V30 48 H 0.494349 -2.743010 -3.918268 0
M  V30 49 H -0.086513 -0.744329 -2.710694 0
M  V30 50 H 3.537687 -2.716619 -0.672222 0
M  V30 51 H 3.545859 -4.283251 1.314218 0
M  V30 END ATOM
M  V30 BEGIN BOND
M  V30 1 1 1 2
M  V30 2 1 2 3
M  V30 3 2 3 4
M  V30 4 1 4 5
M  V30 5 2 5 6
M  V30 6 1 6 7
M  V30 7 1 7 8
M  V30 8 2 8 9
M  V30 9 1 8 10
M  V30 10 1 10 11
M  V30 11 2 11 12
M  V30 12 1 11 13
M  V30 13 2 13 14
M  V30 14 1 14 15
M  V30 15 1 15 16
M  V30 16 2 16 17
M  V30 17 1 17 18
M  V30 18 2 18 19
M  V30 19 1 19 20
M  V30 20 2 20 21
M  V30 21 1 15 22
M  V30 22 2 22 23
M  V30 23 1 23 24
M  V30 24 2 24 25
M  V30 25 1 25 26
M  V30 26 2 26 27
M  V30 27 1 27 28
M  V30 28 1 27 29
M  V30 29 2 29 30
M  V30 30 1 6 31
M  V30 31 2 31 32
M  V30 32 1 32 3
M  V30 33 1 23 13
M  V30 34 1 30 24
M  V30 35 1 21 16
M  V30 36 1 1 33
M  V30 37 1 1 34
M  V30 38 1 1 35
M  V30 39 1 4 36
M  V30 40 1 5 37
M  V30 41 1 7 38
M  V30 42 1 10 39
M  V30 43 1 14 40
M  V30 44 1 17 41
M  V30 45 1 18 42
M  V30 46 1 19 43
M  V30 47 1 20 44
M  V30 48 1 21 45
M  V30 49 1 25 46
M  V30 50 1 26 47
M  V30 51 1 29 48
M  V30 52 1 30 49
M  V30 53 1 31 50
M  V30 54 1 32 51
M  V30 END BOND
M  V30 END CTAB
M  END
>  <Dataset>  (373) 
ChEMBL_Kinases

>  <Ligand_Instance>  (373) 
nan

>  <PDB_ID>  (373) 
nan

>  <Standardized_SMILES>  (373) 
COc1ccc(NC(=S)NC(=O)c2cn(-c3ccccc3)nc2-c2ccc(Cl)cc2)cc1

>  <Name>  (373) 
nan

>  <Pocket>  (373) 
nan

>  <ATP_Site>  (373) 
nan

>  <Peripheral>  (373) 
nan

>  <Num_H_Atoms_ProtBoundConf>  (373) 
nan

>  <Num_Resolved_Atoms>  (373) 
nan

>  <Num_Not_Resolved_Atoms>  (373) 
nan

$$$$
CHEMBL3673434
     RDKit          3D

  0  0  0  0  0  0  0  0  0  0999 V3000
M  V30 BEGIN CTAB
M  V30 COUNTS 52 54 0 0 0
M  V30 BEGIN ATOM
M  V30 1 C 2.835518 -3.052207 0.238621 0
M  V30 2 O 3.128155 -1.685438 0.416061 0
M  V30 3 C 4.401064 -1.225633 0.723028 0
M  V30 4 C 5.466351 -2.097146 0.873450 0
M  V30 5 C 6.716350 -1.577781 1.180637 0
M  V30 6 F 7.771091 -2.400971 1.332937 0
M  V30 7 C 6.903044 -0.201168 1.336609 0
M  V30 8 C 5.827451 0.660065 1.183145 0
M  V30 9 C 4.598299 0.149879 0.881127 0
M  V30 10 C 3.438546 1.039266 0.712332 0
M  V30 11 C 3.536745 2.204729 -0.029503 0
M  V30 12 C 2.494220 3.090001 -0.233512 0
M  V30 13 N 1.320805 2.754932 0.348273 0
M  V30 14 C 1.187267 1.618975 1.083499 0
M  V30 15 N -0.075928 1.280235 1.696384 0
M  V30 16 C -0.870803 0.499920 0.828477 0
M  V30 17 O -0.332067 0.251387 -0.301542 0
M  V30 18 C -2.210505 0.004558 1.177645 0 CFG=1
M  V30 19 C -3.166940 1.116922 1.481005 0
M  V30 20 C -4.534882 0.609474 1.770564 0
M  V30 21 C -5.056523 -0.450086 0.865356 0
M  V30 22 C -4.013729 -1.478295 0.576188 0 CFG=1
M  V30 23 N -4.389211 -2.465556 -0.372998 0
M  V30 24 C -4.411728 -3.876161 -0.329886 0
M  V30 25 C -4.884875 -4.569094 -1.566766 0
M  V30 26 O -4.030602 -4.393181 0.746025 0
M  V30 27 C -2.784276 -0.765212 0.006948 0
M  V30 28 C 2.235061 0.727191 1.289784 0
M  V30 29 H 3.380112 -3.674724 0.996143 0
M  V30 30 H 1.752861 -3.170241 0.497559 0
M  V30 31 H 3.012983 -3.408332 -0.804953 0
M  V30 32 H 5.347297 -3.154929 0.758734 0
M  V30 33 H 7.863263 0.244639 1.576550 0
M  V30 34 H 5.889112 1.743732 1.287969 0
M  V30 35 H 4.520017 2.409620 -0.470770 0
M  V30 36 H 2.630919 3.984393 -0.822548 0
M  V30 37 H -0.450500 1.531787 2.656138 0
M  V30 38 H -2.225631 -0.682979 2.034415 0
M  V30 39 H -3.136569 1.931962 0.720961 0
M  V30 40 H -2.802280 1.613613 2.424538 0
M  V30 41 H -5.226447 1.494522 1.650140 0
M  V30 42 H -4.654422 0.343216 2.853824 0
M  V30 43 H -5.427677 0.026880 -0.051651 0
M  V30 44 H -5.882463 -0.964511 1.439613 0
M  V30 45 H -3.691794 -1.987505 1.490380 0
M  V30 46 H -4.685699 -1.903539 -1.221813 0
M  V30 47 H -4.816653 -5.675308 -1.371077 0
M  V30 48 H -5.908003 -4.287808 -1.838494 0
M  V30 49 H -4.208426 -4.371583 -2.423488 0
M  V30 50 H -3.077709 -0.035099 -0.774182 0
M  V30 51 H -2.047947 -1.506278 -0.412892 0
M  V30 52 H 2.112099 -0.167672 1.874702 0
M  V30 END ATOM
M  V30 BEGIN BOND
M  V30 1 1 1 2
M  V30 2 1 2 3
M  V30 3 2 3 4
M  V30 4 1 4 5
M  V30 5 1 5 6
M  V30 6 2 5 7
M  V30 7 1 7 8
M  V30 8 2 8 9
M  V30 9 1 9 10
M  V30 10 2 10 11
M  V30 11 1 11 12
M  V30 12 2 12 13
M  V30 13 1 13 14
M  V30 14 1 14 15
M  V30 15 1 15 16
M  V30 16 2 16 17
M  V30 17 1 16 18
M  V30 18 1 18 19
M  V30 19 1 19 20
M  V30 20 1 20 21
M  V30 21 1 21 22
M  V30 22 1 22 23
M  V30 23 1 23 24
M  V30 24 1 24 25
M  V30 25 2 24 26
M  V30 26 1 22 27
M  V30 27 2 14 28
M  V30 28 1 9 3
M  V30 29 1 28 10
M  V30 30 1 27 18
M  V30 31 1 1 29
M  V30 32 1 1 30
M  V30 33 1 1 31
M  V30 34 1 4 32
M  V30 35 1 7 33
M  V30 36 1 8 34
M  V30 37 1 11 35
M  V30 38 1 12 36
M  V30 39 1 15 37
M  V30 40 1 18 38 CFG=1
M  V30 41 1 19 39
M  V30 42 1 19 40
M  V30 43 1 20 41
M  V30 44 1 20 42
M  V30 45 1 21 43
M  V30 46 1 21 44
M  V30 47 1 22 45 CFG=1
M  V30 48 1 23 46
M  V30 49 1 25 47
M  V30 50 1 25 48
M  V30 51 1 25 49
M  V30 52 1 27 50
M  V30 53 1 27 51
M  V30 54 1 28 52
M  V30 END BOND
M  V30 END CTAB
M  END
>  <Dataset>  (374) 
ChEMBL_Kinases

>  <Ligand_Instance>  (374) 
nan

>  <PDB_ID>  (374) 
nan

>  <Standardized_SMILES>  (374) 
COc1cc(F)ccc1-c1ccnc(NC(=O)[C@H]2CCC[C@@H](NC(C)=O)C2)c1

>  <Name>  (374) 
nan

>  <Pocket>  (374) 
nan

>  <ATP_Site>  (374) 
nan

>  <Peripheral>  (374) 
nan

>  <Num_H_Atoms_ProtBoundConf>  (374) 
nan

>  <Num_Resolved_Atoms>  (374) 
nan

>  <Num_Not_Resolved_Atoms>  (374) 
nan

$$$$
CHEMBL3218578
     RDKit          3D

  0  0  0  0  0  0  0  0  0  0999 V3000
M  V30 BEGIN CTAB
M  V30 COUNTS 64 69 0 0 0
M  V30 BEGIN ATOM
M  V30 1 C 4.915727 -4.364134 3.550851 0
M  V30 2 O 4.052931 -4.099638 2.468345 0
M  V30 3 C 3.661163 -2.791294 2.213363 0
M  V30 4 C 2.815198 -2.546127 1.149045 0
M  V30 5 C 2.372036 -1.261311 0.821596 0
M  V30 6 C 2.844942 -0.238377 1.647388 0
M  V30 7 C 2.397075 1.134961 1.330329 0
M  V30 8 C 3.216155 2.220344 1.596706 0
M  V30 9 C 2.881396 3.528522 1.334767 0
M  V30 10 C 1.636714 3.749632 0.766547 0
M  V30 11 N 1.303662 5.026518 0.507985 0
M  V30 12 C 0.114785 5.324085 -0.042451 0
M  V30 13 C -0.743555 4.279271 -0.329729 0
M  V30 14 C -0.405104 2.969495 -0.065848 0
M  V30 15 C 0.812178 2.685571 0.495919 0
M  V30 16 C 1.163447 1.386450 0.764350 0
M  V30 17 N -1.405555 2.163455 -0.436804 0
M  V30 18 C -1.631827 0.771152 -0.415098 0
M  V30 19 C -1.274242 -0.057132 -1.489723 0
M  V30 20 C -1.558231 -1.407219 -1.365080 0
M  V30 21 C -2.174352 -1.982725 -0.240902 0
M  V30 22 N -2.311054 -3.361205 -0.438466 0
M  V30 23 C -3.333951 -4.307032 -0.582407 0
M  V30 24 C -2.776826 -5.725946 -0.452298 0
M  V30 25 N -1.842813 -6.015379 -1.523535 0
M  V30 26 C -1.034275 -4.840402 -1.810775 0
M  V30 27 C -1.001426 -4.047388 -0.519048 0
M  V30 28 C -2.514496 -1.144833 0.798507 0
M  V30 29 C -3.160170 -1.805083 1.928276 0
M  V30 30 F -3.353796 -0.756144 2.864954 0
M  V30 31 F -4.492408 -2.122827 1.703762 0
M  V30 32 F -2.449317 -2.701876 2.636919 0
M  V30 33 C -2.245805 0.208292 0.708867 0
M  V30 34 C -2.384027 2.938489 -0.936295 0
M  V30 35 O -3.533534 2.652952 -1.418455 0
M  V30 36 N -1.975276 4.218490 -0.867887 0
M  V30 37 C -2.719651 5.408305 -1.300570 0
M  V30 38 C 3.696422 -0.487375 2.718250 0
M  V30 39 N 4.089827 -1.759837 2.982660 0
M  V30 40 H 5.944650 -4.140768 3.229292 0
M  V30 41 H 4.653797 -3.664998 4.362471 0
M  V30 42 H 4.818358 -5.429047 3.876130 0
M  V30 43 H 2.433544 -3.315036 0.493868 0
M  V30 44 H 1.716201 -1.079211 -0.005027 0
M  V30 45 H 4.185622 2.041356 2.039964 0
M  V30 46 H 3.552054 4.335602 1.559977 0
M  V30 47 H -0.232033 6.332278 -0.283510 0
M  V30 48 H 0.579438 0.508633 0.583988 0
M  V30 49 H -0.804523 0.430163 -2.329598 0
M  V30 50 H -1.219869 -1.918273 -2.281785 0
M  V30 51 H -4.044588 -4.259868 0.264587 0
M  V30 52 H -3.831847 -4.356125 -1.565536 0
M  V30 53 H -2.372870 -5.947859 0.546864 0
M  V30 54 H -3.605745 -6.474089 -0.582444 0
M  V30 55 H -2.331522 -6.387027 -2.345336 0
M  V30 56 H -0.046812 -5.135928 -2.176365 0
M  V30 57 H -1.630188 -4.252362 -2.536766 0
M  V30 58 H -0.154488 -3.370474 -0.601199 0
M  V30 59 H -0.807073 -4.666593 0.378955 0
M  V30 60 H -2.547197 0.795235 1.574267 0
M  V30 61 H -2.311484 6.321338 -0.825841 0
M  V30 62 H -3.767374 5.334382 -0.923848 0
M  V30 63 H -2.636695 5.518925 -2.383297 0
M  V30 64 H 4.019150 0.351669 3.309890 0
M  V30 END ATOM
M  V30 BEGIN BOND
M  V30 1 1 1 2
M  V30 2 1 2 3
M  V30 3 2 3 4
M  V30 4 1 4 5
M  V30 5 2 5 6
M  V30 6 1 6 7
M  V30 7 2 7 8
M  V30 8 1 8 9
M  V30 9 2 9 10
M  V30 10 1 10 11
M  V30 11 2 11 12
M  V30 12 1 12 13
M  V30 13 2 13 14
M  V30 14 1 14 15
M  V30 15 2 15 16
M  V30 16 1 14 17
M  V30 17 1 17 18
M  V30 18 2 18 19
M  V30 19 1 19 20
M  V30 20 2 20 21
M  V30 21 1 21 22
M  V30 22 1 22 23
M  V30 23 1 23 24
M  V30 24 1 24 25
M  V30 25 1 25 26
M  V30 26 1 26 27
M  V30 27 1 21 28
M  V30 28 1 28 29
M  V30 29 1 29 30
M  V30 30 1 29 31
M  V30 31 1 29 32
M  V30 32 2 28 33
M  V30 33 1 17 34
M  V30 34 2 34 35
M  V30 35 1 34 36
M  V30 36 1 36 37
M  V30 37 1 6 38
M  V30 38 2 38 39
M  V30 39 1 39 3
M  V30 40 1 16 7
M  V30 41 1 33 18
M  V30 42 1 15 10
M  V30 43 1 27 22
M  V30 44 1 36 13
M  V30 45 1 1 40
M  V30 46 1 1 41
M  V30 47 1 1 42
M  V30 48 1 4 43
M  V30 49 1 5 44
M  V30 50 1 8 45
M  V30 51 1 9 46
M  V30 52 1 12 47
M  V30 53 1 16 48
M  V30 54 1 19 49
M  V30 55 1 20 50
M  V30 56 1 23 51
M  V30 57 1 23 52
M  V30 58 1 24 53
M  V30 59 1 24 54
M  V30 60 1 25 55
M  V30 61 1 26 56
M  V30 62 1 26 57
M  V30 63 1 27 58
M  V30 64 1 27 59
M  V30 65 1 33 60
M  V30 66 1 37 61
M  V30 67 1 37 62
M  V30 68 1 37 63
M  V30 69 1 38 64
M  V30 END BOND
M  V30 END CTAB
M  END
>  <Dataset>  (375) 
ChEMBL_Kinases

>  <Ligand_Instance>  (375) 
nan

>  <PDB_ID>  (375) 
nan

>  <Standardized_SMILES>  (375) 
COc1ccc(-c2ccc3ncc4c(c3c2)n(-c2ccc(N3CCNCC3)c(C(F)(F)F)c2)c(=O)n4C)cn1

>  <Name>  (375) 
BGT-226

>  <Pocket>  (375) 
nan

>  <ATP_Site>  (375) 
nan

>  <Peripheral>  (375) 
nan

>  <Num_H_Atoms_ProtBoundConf>  (375) 
nan

>  <Num_Resolved_Atoms>  (375) 
nan

>  <Num_Not_Resolved_Atoms>  (375) 
nan

$$$$
CHEMBL4854871
     RDKit          3D

  0  0  0  0  0  0  0  0  0  0999 V3000
M  V30 BEGIN CTAB
M  V30 COUNTS 52 55 0 0 0
M  V30 BEGIN ATOM
M  V30 1 C -0.055295 -0.628998 -4.923801 0
M  V30 2 C -0.800456 -1.794817 -4.284372 0
M  V30 3 C 0.057922 -2.544540 -3.357196 0
M  V30 4 C 0.154618 -2.213525 -2.001276 0
M  V30 5 C 1.037152 -3.089086 -1.399687 0
M  V30 6 N 1.446975 -3.133555 -0.038660 0
M  V30 7 C 0.942674 -2.236977 0.944091 0
M  V30 8 N 1.581696 -1.066605 0.900791 0
M  V30 9 C 1.273340 -0.048132 1.755978 0
M  V30 10 N 1.905685 1.223925 1.773122 0
M  V30 11 C 1.744260 2.391686 2.563020 0 CFG=1
M  V30 12 C 2.700543 3.496971 2.191721 0
M  V30 13 C 0.349717 2.820345 2.599672 0
M  V30 14 C 0.118082 4.185684 2.390416 0
M  V30 15 C -1.127572 4.751289 2.400767 0
M  V30 16 C -2.231553 3.981936 2.622656 0
M  V30 17 F -3.530696 4.362812 2.667810 0
M  V30 18 C -2.013852 2.630333 2.830686 0
M  V30 19 N -0.771087 2.122110 2.811072 0
M  V30 20 N 0.301249 -0.319519 2.616846 0
M  V30 21 C -0.394084 -1.439187 2.745502 0
M  V30 22 C -1.399960 -1.689902 3.654211 0
M  V30 23 C -2.045605 -2.929435 3.669694 0
M  V30 24 C -1.647223 -3.878208 2.758080 0
M  V30 25 C -0.635711 -3.689734 1.810430 0
M  V30 26 O -0.255454 -4.666051 0.903375 0
M  V30 27 C -0.830825 -5.938477 0.829594 0
M  V30 28 C -0.056704 -2.442957 1.867909 0
M  V30 29 N 1.455958 -3.916939 -2.356746 0
M  V30 30 N 0.876535 -3.597321 -3.522576 0
M  V30 31 H -0.736197 0.151081 -5.287682 0
M  V30 32 H 0.538931 -0.986204 -5.793262 0
M  V30 33 H 0.585437 -0.166584 -4.132474 0
M  V30 34 H -1.195309 -2.444518 -5.096561 0
M  V30 35 H -1.664342 -1.348578 -3.759877 0
M  V30 36 H -0.369225 -1.407576 -1.497043 0
M  V30 37 H 2.136164 -3.831022 0.288873 0
M  V30 38 H 2.649692 1.291552 1.029708 0
M  V30 39 H 2.011403 2.137348 3.634651 0
M  V30 40 H 2.458415 4.016404 1.263583 0
M  V30 41 H 2.937582 4.154585 3.056454 0
M  V30 42 H 3.673185 2.960695 1.972579 0
M  V30 43 H 0.903222 4.923744 2.201035 0
M  V30 44 H -1.326919 5.804201 2.240499 0
M  V30 45 H -2.772236 1.862810 3.022277 0
M  V30 46 H -1.641838 -0.880736 4.330251 0
M  V30 47 H -2.828689 -3.107147 4.384926 0
M  V30 48 H -2.164600 -4.831631 2.791953 0
M  V30 49 H -1.194885 -6.331240 1.812076 0
M  V30 50 H -0.077742 -6.640264 0.384265 0
M  V30 51 H -1.721039 -5.855969 0.160642 0
M  V30 52 H 1.013003 -4.070620 -4.446315 0
M  V30 END ATOM
M  V30 BEGIN BOND
M  V30 1 1 1 2
M  V30 2 1 2 3
M  V30 3 2 3 4
M  V30 4 1 4 5
M  V30 5 1 5 6
M  V30 6 1 6 7
M  V30 7 2 7 8
M  V30 8 1 8 9
M  V30 9 1 9 10
M  V30 10 1 10 11
M  V30 11 1 11 12
M  V30 12 1 11 13
M  V30 13 2 13 14
M  V30 14 1 14 15
M  V30 15 2 15 16
M  V30 16 1 16 17
M  V30 17 1 16 18
M  V30 18 2 18 19
M  V30 19 2 9 20
M  V30 20 1 20 21
M  V30 21 2 21 22
M  V30 22 1 22 23
M  V30 23 2 23 24
M  V30 24 1 24 25
M  V30 25 1 25 26
M  V30 26 1 26 27
M  V30 27 2 25 28
M  V30 28 2 5 29
M  V30 29 1 29 30
M  V30 30 1 30 3
M  V30 31 1 28 7
M  V30 32 1 19 13
M  V30 33 1 28 21
M  V30 34 1 1 31
M  V30 35 1 1 32
M  V30 36 1 1 33
M  V30 37 1 2 34
M  V30 38 1 2 35
M  V30 39 1 4 36
M  V30 40 1 6 37
M  V30 41 1 10 38
M  V30 42 1 11 39 CFG=1
M  V30 43 1 12 40
M  V30 44 1 12 41
M  V30 45 1 12 42
M  V30 46 1 14 43
M  V30 47 1 15 44
M  V30 48 1 18 45
M  V30 49 1 22 46
M  V30 50 1 23 47
M  V30 51 1 24 48
M  V30 52 1 27 49
M  V30 53 1 27 50
M  V30 54 1 27 51
M  V30 55 1 30 52
M  V30 END BOND
M  V30 END CTAB
M  END
>  <Dataset>  (376) 
ChEMBL_Kinases

>  <Ligand_Instance>  (376) 
nan

>  <PDB_ID>  (376) 
nan

>  <Standardized_SMILES>  (376) 
CCc1cc(Nc2nc(N[C@@H](C)c3ccc(F)cn3)nc3cccc(OC)c23)n[nH]1

>  <Name>  (376) 
nan

>  <Pocket>  (376) 
nan

>  <ATP_Site>  (376) 
nan

>  <Peripheral>  (376) 
nan

>  <Num_H_Atoms_ProtBoundConf>  (376) 
nan

>  <Num_Resolved_Atoms>  (376) 
nan

>  <Num_Not_Resolved_Atoms>  (376) 
nan

$$$$
CHEMBL2426383
     RDKit          3D

  0  0  0  0  0  0  0  0  0  0999 V3000
M  V30 BEGIN CTAB
M  V30 COUNTS 54 57 0 0 0
M  V30 BEGIN ATOM
M  V30 1 C 3.470505 -3.074432 4.810667 0
M  V30 2 O 4.442955 -2.465615 3.996305 0
M  V30 3 C 4.148626 -2.117836 2.670091 0
M  V30 4 C 5.165443 -1.521583 1.960528 0
M  V30 5 C 4.818590 -1.199915 0.659117 0
M  V30 6 C 3.605956 -1.401534 0.006976 0
M  V30 7 N 3.467657 -0.978653 -1.339220 0
M  V30 8 C 2.424624 -0.260920 -1.950194 0
M  V30 9 S 2.517128 0.095084 -3.537343 0
M  V30 10 N 1.264625 0.196212 -1.294884 0
M  V30 11 C 0.157882 0.924745 -1.817929 0
M  V30 12 O 0.296575 1.187081 -3.060786 0
M  V30 13 C -0.887497 1.204391 -0.819169 0
M  V30 14 C -1.331343 2.170149 0.051628 0
M  V30 15 N -2.388628 1.657385 0.694743 0
M  V30 16 C -3.082236 2.402883 1.685499 0
M  V30 17 C -2.441820 2.288692 2.928482 0
M  V30 18 C -2.941300 2.924552 4.048511 0
M  V30 19 C -4.091541 3.701833 4.002013 0
M  V30 20 C -4.686826 3.789216 2.772673 0
M  V30 21 C -4.223204 3.172680 1.632964 0
M  V30 22 N -2.645096 0.407901 0.277339 0
M  V30 23 C -1.721358 0.085837 -0.676661 0
M  V30 24 C -1.800028 -1.246813 -1.268237 0
M  V30 25 C -1.760451 -1.486425 -2.648321 0
M  V30 26 C -1.813810 -2.773281 -3.172537 0
M  V30 27 C -1.909840 -3.859353 -2.313938 0
M  V30 28 C -1.966396 -5.242752 -2.865940 0
M  V30 29 C -1.955084 -3.701850 -0.921225 0
M  V30 30 C -1.894830 -2.393653 -0.520264 0
M  V30 31 C 2.636959 -2.015812 0.818550 0
M  V30 32 C 2.910428 -2.363604 2.122208 0
M  V30 33 H 3.518767 -4.160930 4.678427 0
M  V30 34 H 2.468182 -2.665938 4.572991 0
M  V30 35 H 3.671030 -2.745814 5.862650 0
M  V30 36 H 6.138282 -1.311960 2.335109 0
M  V30 37 H 5.612255 -0.721454 0.065492 0
M  V30 38 H 4.299007 -1.277359 -1.916561 0
M  V30 39 H 1.252728 -0.037593 -0.282278 0
M  V30 40 H -0.759465 3.080208 0.027043 0
M  V30 41 H -1.551327 1.728281 3.132803 0
M  V30 42 H -2.463770 2.854271 5.037734 0
M  V30 43 H -4.479242 4.193520 4.874651 0
M  V30 44 H -5.582778 4.376989 2.665843 0
M  V30 45 H -4.636014 3.199508 0.641294 0
M  V30 46 H -1.689918 -0.664465 -3.319974 0
M  V30 47 H -1.780359 -2.900384 -4.247491 0
M  V30 48 H -2.682241 -5.884568 -2.352762 0
M  V30 49 H -0.949417 -5.695782 -2.675359 0
M  V30 50 H -2.103966 -5.213976 -3.954036 0
M  V30 51 H -2.028515 -4.520077 -0.225279 0
M  V30 52 H -1.924294 -2.218881 0.556932 0
M  V30 53 H 1.688201 -2.209101 0.363073 0
M  V30 54 H 2.087147 -2.832558 2.636753 0
M  V30 END ATOM
M  V30 BEGIN BOND
M  V30 1 1 1 2
M  V30 2 1 2 3
M  V30 3 2 3 4
M  V30 4 1 4 5
M  V30 5 2 5 6
M  V30 6 1 6 7
M  V30 7 1 7 8
M  V30 8 2 8 9
M  V30 9 1 8 10
M  V30 10 1 10 11
M  V30 11 2 11 12
M  V30 12 1 11 13
M  V30 13 2 13 14
M  V30 14 1 14 15
M  V30 15 1 15 16
M  V30 16 2 16 17
M  V30 17 1 17 18
M  V30 18 2 18 19
M  V30 19 1 19 20
M  V30 20 2 20 21
M  V30 21 1 15 22
M  V30 22 2 22 23
M  V30 23 1 23 24
M  V30 24 2 24 25
M  V30 25 1 25 26
M  V30 26 2 26 27
M  V30 27 1 27 28
M  V30 28 1 27 29
M  V30 29 2 29 30
M  V30 30 1 6 31
M  V30 31 2 31 32
M  V30 32 1 32 3
M  V30 33 1 23 13
M  V30 34 1 30 24
M  V30 35 1 21 16
M  V30 36 1 1 33
M  V30 37 1 1 34
M  V30 38 1 1 35
M  V30 39 1 4 36
M  V30 40 1 5 37
M  V30 41 1 7 38
M  V30 42 1 10 39
M  V30 43 1 14 40
M  V30 44 1 17 41
M  V30 45 1 18 42
M  V30 46 1 19 43
M  V30 47 1 20 44
M  V30 48 1 21 45
M  V30 49 1 25 46
M  V30 50 1 26 47
M  V30 51 1 28 48
M  V30 52 1 28 49
M  V30 53 1 28 50
M  V30 54 1 29 51
M  V30 55 1 30 52
M  V30 56 1 31 53
M  V30 57 1 32 54
M  V30 END BOND
M  V30 END CTAB
M  END
>  <Dataset>  (377) 
ChEMBL_Kinases

>  <Ligand_Instance>  (377) 
nan

>  <PDB_ID>  (377) 
nan

>  <Standardized_SMILES>  (377) 
COc1ccc(NC(=S)NC(=O)c2cn(-c3ccccc3)nc2-c2ccc(C)cc2)cc1

>  <Name>  (377) 
nan

>  <Pocket>  (377) 
nan

>  <ATP_Site>  (377) 
nan

>  <Peripheral>  (377) 
nan

>  <Num_H_Atoms_ProtBoundConf>  (377) 
nan

>  <Num_Resolved_Atoms>  (377) 
nan

>  <Num_Not_Resolved_Atoms>  (377) 
nan

$$$$
CHEMBL376505
     RDKit          3D

  0  0  0  0  0  0  0  0  0  0999 V3000
M  V30 BEGIN CTAB
M  V30 COUNTS 23 24 0 0 0
M  V30 BEGIN ATOM
M  V30 1 C -1.529888 -2.621751 0.892156 0
M  V30 2 N -1.096239 -1.513832 1.723421 0
M  V30 3 C -1.596520 -1.423057 3.082545 0
M  V30 4 C -0.197078 -0.530645 1.221760 0
M  V30 5 N 0.303426 0.561011 1.864722 0
M  V30 6 C 1.127297 1.231534 1.014776 0
M  V30 7 C 1.880070 2.380758 1.147157 0
M  V30 8 Br 1.865509 3.334043 2.797262 0
M  V30 9 C 2.654306 2.864331 0.100090 0
M  V30 10 Br 3.709850 4.448235 0.239035 0
M  V30 11 C 2.610230 2.117671 -1.058618 0
M  V30 12 Br 3.648707 2.724649 -2.533449 0
M  V30 13 C 1.881732 0.963763 -1.257444 0
M  V30 14 Br 1.914289 0.028431 -2.920458 0
M  V30 15 C 1.125570 0.530956 -0.167936 0
M  V30 16 N 0.322290 -0.526070 -0.022393 0
M  V30 17 H -2.235095 -2.263236 0.114470 0
M  V30 18 H -0.671520 -3.096510 0.370180 0
M  V30 19 H -2.024161 -3.390339 1.508975 0
M  V30 20 H -1.306858 -0.459230 3.547230 0
M  V30 21 H -2.722556 -1.372235 3.028999 0
M  V30 22 H -1.295960 -2.290302 3.694949 0
M  V30 23 H 0.147246 -1.221334 -0.778317 0
M  V30 END ATOM
M  V30 BEGIN BOND
M  V30 1 1 1 2
M  V30 2 1 2 3
M  V30 3 1 2 4
M  V30 4 2 4 5
M  V30 5 1 5 6
M  V30 6 2 6 7
M  V30 7 1 7 8
M  V30 8 1 7 9
M  V30 9 1 9 10
M  V30 10 2 9 11
M  V30 11 1 11 12
M  V30 12 1 11 13
M  V30 13 1 13 14
M  V30 14 2 13 15
M  V30 15 1 15 16
M  V30 16 1 16 4
M  V30 17 1 15 6
M  V30 18 1 1 17
M  V30 19 1 1 18
M  V30 20 1 1 19
M  V30 21 1 3 20
M  V30 22 1 3 21
M  V30 23 1 3 22
M  V30 24 1 16 23
M  V30 END BOND
M  V30 END CTAB
M  END
>  <Dataset>  (378) 
ChEMBL_Kinases

>  <Ligand_Instance>  (378) 
nan

>  <PDB_ID>  (378) 
nan

>  <Standardized_SMILES>  (378) 
CN(C)c1nc2c(Br)c(Br)c(Br)c(Br)c2[nH]1

>  <Name>  (378) 
nan

>  <Pocket>  (378) 
nan

>  <ATP_Site>  (378) 
nan

>  <Peripheral>  (378) 
nan

>  <Num_H_Atoms_ProtBoundConf>  (378) 
nan

>  <Num_Resolved_Atoms>  (378) 
nan

>  <Num_Not_Resolved_Atoms>  (378) 
nan

$$$$
CHEMBL4085837
     RDKit          3D

  0  0  0  0  0  0  0  0  0  0999 V3000
M  V30 BEGIN CTAB
M  V30 COUNTS 51 55 0 0 0
M  V30 BEGIN ATOM
M  V30 1 C 1.705216 0.810343 4.274573 0
M  V30 2 N 2.459273 -0.379197 4.436990 0
M  V30 3 C 2.005597 -1.317163 5.397051 0
M  V30 4 C 3.184692 -0.861574 3.324726 0
M  V30 5 C 2.394738 -1.172475 2.113400 0
M  V30 6 C 2.122717 -0.266230 1.079798 0
M  V30 7 C 1.392307 -0.617195 -0.003010 0
M  V30 8 C 0.870285 -1.881931 -0.158799 0
M  V30 9 C 0.157611 -2.091798 -1.319457 0
M  V30 10 C -0.193403 -1.181918 -2.371838 0
M  V30 11 C -0.785781 0.023452 -2.457966 0
M  V30 12 C -1.329544 0.909858 -1.450772 0
M  V30 13 C -1.135226 2.275373 -1.465996 0
M  V30 14 N -1.759933 2.824480 -0.409214 0
M  V30 15 C -2.371093 1.872979 0.320059 0
M  V30 16 C -3.118398 1.972889 1.467739 0
M  V30 17 C -3.624763 0.780795 1.986640 0
M  V30 18 C -3.360692 -0.421463 1.341117 0
M  V30 19 C -2.602087 -0.455309 0.189553 0
M  V30 20 C -2.095722 0.690747 -0.338117 0
M  V30 21 C -0.822926 0.399067 -3.892001 0
M  V30 22 O -1.308559 1.474623 -4.383654 0
M  V30 23 N -0.233974 -0.610728 -4.700995 0
M  V30 24 C 0.157805 -1.594829 -3.752242 0
M  V30 25 O 0.730961 -2.647705 -4.199330 0
M  V30 26 C -0.338071 -3.401904 -1.435578 0
M  V30 27 Cl -1.299387 -4.011727 -2.793644 0
M  V30 28 C -0.123541 -4.366381 -0.473645 0
M  V30 29 C 0.604484 -4.076425 0.670092 0
M  V30 30 C 1.113696 -2.804814 0.831786 0
M  V30 31 C 1.849560 -2.446764 1.919919 0
M  V30 32 H 0.899990 0.758929 3.523969 0
M  V30 33 H 1.266940 1.070697 5.266926 0
M  V30 34 H 2.412453 1.648798 4.021220 0
M  V30 35 H 2.493739 -1.038528 6.376781 0
M  V30 36 H 0.908418 -1.288426 5.614426 0
M  V30 37 H 2.347621 -2.353495 5.218002 0
M  V30 38 H 4.035928 -0.181132 3.077447 0
M  V30 39 H 3.682768 -1.821497 3.634246 0
M  V30 40 H 2.544026 0.740436 1.218724 0
M  V30 41 H 1.256974 0.149945 -0.747095 0
M  V30 42 H -0.567235 2.852520 -2.206615 0
M  V30 43 H -1.770458 3.860587 -0.182724 0
M  V30 44 H -3.293962 2.922329 1.928836 0
M  V30 45 H -4.210176 0.803528 2.874787 0
M  V30 46 H -3.776178 -1.327393 1.782253 0
M  V30 47 H -2.417393 -1.383007 -0.286914 0
M  V30 48 H -0.138771 -0.585222 -5.737912 0
M  V30 49 H -0.478196 -5.385442 -0.507769 0
M  V30 50 H 0.794743 -4.783146 1.437701 0
M  V30 51 H 2.010630 -3.214263 2.671187 0
M  V30 END ATOM
M  V30 BEGIN BOND
M  V30 1 1 1 2
M  V30 2 1 2 3
M  V30 3 1 2 4
M  V30 4 1 4 5
M  V30 5 2 5 6
M  V30 6 1 6 7
M  V30 7 2 7 8
M  V30 8 1 8 9
M  V30 9 1 9 10
M  V30 10 2 10 11
M  V30 11 1 11 12
M  V30 12 2 12 13
M  V30 13 1 13 14
M  V30 14 1 14 15
M  V30 15 2 15 16
M  V30 16 1 16 17
M  V30 17 2 17 18
M  V30 18 1 18 19
M  V30 19 2 19 20
M  V30 20 1 11 21
M  V30 21 2 21 22
M  V30 22 1 21 23
M  V30 23 1 23 24
M  V30 24 2 24 25
M  V30 25 2 9 26
M  V30 26 1 26 27
M  V30 27 1 26 28
M  V30 28 2 28 29
M  V30 29 1 29 30
M  V30 30 2 30 31
M  V30 31 1 31 5
M  V30 32 1 30 8
M  V30 33 1 24 10
M  V30 34 1 20 12
M  V30 35 1 20 15
M  V30 36 1 1 32
M  V30 37 1 1 33
M  V30 38 1 1 34
M  V30 39 1 3 35
M  V30 40 1 3 36
M  V30 41 1 3 37
M  V30 42 1 4 38
M  V30 43 1 4 39
M  V30 44 1 6 40
M  V30 45 1 7 41
M  V30 46 1 13 42
M  V30 47 1 14 43
M  V30 48 1 16 44
M  V30 49 1 17 45
M  V30 50 1 18 46
M  V30 51 1 19 47
M  V30 52 1 23 48
M  V30 53 1 28 49
M  V30 54 1 29 50
M  V30 55 1 31 51
M  V30 END BOND
M  V30 END CTAB
M  END
>  <Dataset>  (379) 
ChEMBL_Kinases

>  <Ligand_Instance>  (379) 
nan

>  <PDB_ID>  (379) 
nan

>  <Standardized_SMILES>  (379) 
CN(C)Cc1ccc2c(C3=C(c4c[nH]c5ccccc45)C(=O)NC3=O)c(Cl)ccc2c1

>  <Name>  (379) 
nan

>  <Pocket>  (379) 
nan

>  <ATP_Site>  (379) 
nan

>  <Peripheral>  (379) 
nan

>  <Num_H_Atoms_ProtBoundConf>  (379) 
nan

>  <Num_Resolved_Atoms>  (379) 
nan

>  <Num_Not_Resolved_Atoms>  (379) 
nan

$$$$
CHEMBL4442620
     RDKit          3D

  0  0  0  0  0  0  0  0  0  0999 V3000
M  V30 BEGIN CTAB
M  V30 COUNTS 50 52 0 0 0
M  V30 BEGIN ATOM
M  V30 1 C 1.843826 -5.250627 2.044816 0
M  V30 2 C 0.982714 -4.039108 1.877071 0 CFG=1
M  V30 3 O 0.243059 -3.863014 3.048725 0
M  V30 4 C 1.836617 -2.806646 1.557985 0 CFG=1
M  V30 5 C 2.737100 -2.600079 2.776222 0
M  V30 6 O 2.575075 -2.980111 0.389929 0
M  V30 7 C 2.554254 -2.200466 -0.739128 0
M  V30 8 N 1.796286 -1.120378 -0.893426 0
M  V30 9 C 1.739782 -0.328991 -1.971097 0
M  V30 10 N 0.927006 0.821509 -2.124915 0
M  V30 11 C 0.013957 1.381625 -1.199134 0
M  V30 12 C -0.260907 0.895997 0.058849 0
M  V30 13 C -1.148012 1.434974 0.966441 0
M  V30 14 C -1.831439 2.571971 0.585387 0
M  V30 15 S -2.984238 3.349644 1.649292 0
M  V30 16 N -2.588821 3.073717 3.134609 0
M  V30 17 O -2.953430 4.839257 1.508246 0
M  V30 18 C -4.596458 2.680799 1.391315 0
M  V30 19 C -4.788023 1.313392 2.042871 0
M  V30 20 C -5.504665 2.510533 2.559029 0
M  V30 21 C -1.599967 3.108261 -0.664581 0
M  V30 22 C -0.698400 2.516329 -1.520858 0
M  V30 23 N 2.547896 -0.701720 -2.974660 0
M  V30 24 C 3.331231 -1.761011 -2.900597 0
M  V30 25 C 3.372482 -2.557265 -1.786134 0
M  V30 26 C 4.241426 -3.748010 -1.680432 0
M  V30 27 F 5.143860 -3.697647 -0.661357 0
M  V30 28 F 4.852497 -3.935444 -2.919696 0
M  V30 29 F 3.372786 -4.838803 -1.544794 0
M  V30 30 H 2.814915 -4.959599 2.444410 0
M  V30 31 H 1.961382 -5.743309 1.036320 0
M  V30 32 H 1.373300 -6.015906 2.675109 0
M  V30 33 H 0.244050 -4.226499 1.064498 0
M  V30 34 H 0.076071 -2.930895 3.261252 0
M  V30 35 H 1.187762 -1.913950 1.475623 0
M  V30 36 H 3.701558 -3.134061 2.651025 0
M  V30 37 H 2.212455 -2.981275 3.672922 0
M  V30 38 H 2.875923 -1.508296 2.912634 0
M  V30 39 H 1.003364 1.338210 -3.047770 0
M  V30 40 H 0.243011 0.013117 0.406229 0
M  V30 41 H -1.313705 0.998371 1.940212 0
M  V30 42 H -1.767519 3.643998 3.448899 0
M  V30 43 H -5.015672 2.788082 0.367886 0
M  V30 44 H -5.311226 0.553958 1.428604 0
M  V30 45 H -4.002469 0.913369 2.713342 0
M  V30 46 H -5.196556 2.932614 3.544627 0
M  V30 47 H -6.601329 2.512059 2.401652 0
M  V30 48 H -2.132528 4.009455 -0.984199 0
M  V30 49 H -0.566980 3.001321 -2.500746 0
M  V30 50 H 3.958221 -2.000892 -3.753240 0
M  V30 END ATOM
M  V30 BEGIN BOND
M  V30 1 1 1 2
M  V30 2 1 2 3
M  V30 3 1 2 4
M  V30 4 1 4 5
M  V30 5 1 4 6
M  V30 6 1 6 7
M  V30 7 2 7 8
M  V30 8 1 8 9
M  V30 9 1 9 10
M  V30 10 1 10 11
M  V30 11 2 11 12
M  V30 12 1 12 13
M  V30 13 2 13 14
M  V30 14 1 14 15
M  V30 15 2 15 16
M  V30 16 2 15 17
M  V30 17 1 15 18
M  V30 18 1 18 19
M  V30 19 1 19 20
M  V30 20 1 14 21
M  V30 21 2 21 22
M  V30 22 2 9 23
M  V30 23 1 23 24
M  V30 24 2 24 25
M  V30 25 1 25 26
M  V30 26 1 26 27
M  V30 27 1 26 28
M  V30 28 1 26 29
M  V30 29 1 25 7
M  V30 30 1 22 11
M  V30 31 1 20 18
M  V30 32 1 1 30
M  V30 33 1 1 31
M  V30 34 1 1 32
M  V30 35 1 2 33 CFG=3
M  V30 36 1 3 34
M  V30 37 1 4 35 CFG=3
M  V30 38 1 5 36
M  V30 39 1 5 37
M  V30 40 1 5 38
M  V30 41 1 10 39
M  V30 42 1 12 40
M  V30 43 1 13 41
M  V30 44 1 16 42
M  V30 45 1 18 43
M  V30 46 1 19 44
M  V30 47 1 19 45
M  V30 48 1 20 46
M  V30 49 1 20 47
M  V30 50 1 21 48
M  V30 51 1 22 49
M  V30 52 1 24 50
M  V30 END BOND
M  V30 END CTAB
M  END
>  <Dataset>  (380) 
ChEMBL_Kinases

>  <Ligand_Instance>  (380) 
nan

>  <PDB_ID>  (380) 
nan

>  <Standardized_SMILES>  (380) 
C[C@@H](O)[C@@H](C)Oc1nc(Nc2ccc(S(=N)(=O)C3CC3)cc2)ncc1C(F)(F)F

>  <Name>  (380) 
RONICICLIB

>  <Pocket>  (380) 
nan

>  <ATP_Site>  (380) 
nan

>  <Peripheral>  (380) 
nan

>  <Num_H_Atoms_ProtBoundConf>  (380) 
nan

>  <Num_Resolved_Atoms>  (380) 
nan

>  <Num_Not_Resolved_Atoms>  (380) 
nan

$$$$
CHEMBL3884821
     RDKit          3D

  0  0  0  0  0  0  0  0  0  0999 V3000
M  V30 BEGIN CTAB
M  V30 COUNTS 36 39 0 0 0
M  V30 BEGIN ATOM
M  V30 1 C -1.645464 -5.567373 3.240190 0
M  V30 2 O -1.940713 -4.195699 3.066838 0
M  V30 3 C -1.089977 -3.458136 2.256321 0
M  V30 4 C 0.005036 -4.030417 1.638092 0
M  V30 5 C 0.798766 -3.237818 0.852704 0
M  V30 6 C 0.551011 -1.897540 0.654387 0
M  V30 7 C -0.537440 -1.288305 1.257635 0
M  V30 8 C -1.331536 -2.120821 2.054429 0
M  V30 9 N -0.599681 0.019569 0.936535 0
M  V30 10 C 0.430791 0.246728 0.140857 0
M  V30 11 C 0.873825 1.373644 -0.488746 0
M  V30 12 C 0.189443 2.539517 -0.328110 0
M  V30 13 O -0.937640 2.710231 0.425102 0
M  V30 14 C -1.641045 3.915533 0.588239 0
M  V30 15 C 0.652356 3.685594 -0.977202 0
M  V30 16 N 1.754856 3.647839 -1.750082 0
M  V30 17 C 2.469863 2.520819 -1.943334 0
M  V30 18 C 1.998321 1.384322 -1.290785 0
M  V30 19 C 2.732503 0.228973 -1.489758 0
M  V30 20 C 2.300571 -0.934583 -0.857808 0
M  V30 21 C 3.083848 -2.111000 -1.085787 0
M  V30 22 N 3.729240 -3.050819 -1.281707 0
M  V30 23 C 1.173272 -0.901889 -0.065891 0
M  V30 24 H -2.500743 -6.076027 3.764933 0
M  V30 25 H -0.708342 -5.662797 3.842009 0
M  V30 26 H -1.489863 -6.106371 2.284544 0
M  V30 27 H 0.207434 -5.087695 1.789597 0
M  V30 28 H 1.634792 -3.746908 0.400849 0
M  V30 29 H -2.195437 -1.687217 2.547177 0
M  V30 30 H -1.348637 0.604718 1.305280 0
M  V30 31 H -0.973764 4.808949 0.670201 0
M  V30 32 H -2.256079 3.835230 1.519861 0
M  V30 33 H -2.386542 4.107033 -0.236688 0
M  V30 34 H 0.241348 4.685179 -0.964374 0
M  V30 35 H 3.355443 2.486000 -2.562896 0
M  V30 36 H 3.613852 0.234667 -2.117628 0
M  V30 END ATOM
M  V30 BEGIN BOND
M  V30 1 1 1 2
M  V30 2 1 2 3
M  V30 3 2 3 4
M  V30 4 1 4 5
M  V30 5 2 5 6
M  V30 6 1 6 7
M  V30 7 2 7 8
M  V30 8 1 7 9
M  V30 9 1 9 10
M  V30 10 2 10 11
M  V30 11 1 11 12
M  V30 12 1 12 13
M  V30 13 1 13 14
M  V30 14 2 12 15
M  V30 15 1 15 16
M  V30 16 2 16 17
M  V30 17 1 17 18
M  V30 18 2 18 19
M  V30 19 1 19 20
M  V30 20 1 20 21
M  V30 21 3 21 22
M  V30 22 2 20 23
M  V30 23 1 8 3
M  V30 24 1 23 10
M  V30 25 1 23 6
M  V30 26 1 18 11
M  V30 27 1 1 24
M  V30 28 1 1 25
M  V30 29 1 1 26
M  V30 30 1 4 27
M  V30 31 1 5 28
M  V30 32 1 8 29
M  V30 33 1 9 30
M  V30 34 1 14 31
M  V30 35 1 14 32
M  V30 36 1 14 33
M  V30 37 1 15 34
M  V30 38 1 17 35
M  V30 39 1 19 36
M  V30 END BOND
M  V30 END CTAB
M  END
>  <Dataset>  (381) 
ChEMBL_Kinases

>  <Ligand_Instance>  (381) 
nan

>  <PDB_ID>  (381) 
nan

>  <Standardized_SMILES>  (381) 
COc1ccc2c(c1)[nH]c1c3c(OC)cncc3cc(C#N)c21

>  <Name>  (381) 
nan

>  <Pocket>  (381) 
nan

>  <ATP_Site>  (381) 
nan

>  <Peripheral>  (381) 
nan

>  <Num_H_Atoms_ProtBoundConf>  (381) 
nan

>  <Num_Resolved_Atoms>  (381) 
nan

>  <Num_Not_Resolved_Atoms>  (381) 
nan

$$$$
CHEMBL3884627
     RDKit          3D

  0  0  0  0  0  0  0  0  0  0999 V3000
M  V30 BEGIN CTAB
M  V30 COUNTS 35 38 0 0 0
M  V30 BEGIN ATOM
M  V30 1 C -3.545662 -3.919962 -0.342632 0
M  V30 2 O -2.713489 -2.772388 -0.480254 0
M  V30 3 C -1.721043 -2.578345 0.483154 0
M  V30 4 C -1.537364 -3.466809 1.549451 0
M  V30 5 C -0.527209 -3.211470 2.474578 0
M  V30 6 C 0.250550 -2.086668 2.295398 0
M  V30 7 C 0.071495 -1.221068 1.256503 0
M  V30 8 C -0.925085 -1.438750 0.310609 0
M  V30 9 N -0.885191 -0.460132 -0.588718 0
M  V30 10 C 0.123469 0.384968 -0.234804 0
M  V30 11 C 0.609539 1.529482 -0.781046 0
M  V30 12 C -0.005986 1.976637 -1.926714 0
M  V30 13 C 0.365909 3.113566 -2.597399 0
M  V30 14 N 1.398093 3.837240 -2.103325 0
M  V30 15 C 2.025275 3.436977 -0.989554 0
M  V30 16 C 1.648823 2.294825 -0.319131 0
M  V30 17 C 2.252020 1.814391 0.846368 0
M  V30 18 C 1.779832 0.657420 1.421600 0
M  V30 19 C 2.459097 0.250919 2.615552 0
M  V30 20 N 3.022671 -0.258582 3.784851 0
M  V30 21 O 3.450554 0.968387 2.999098 0
M  V30 22 C 0.733651 -0.067834 0.911320 0
M  V30 23 H -4.209648 -3.822430 0.543088 0
M  V30 24 H -2.935821 -4.848161 -0.196559 0
M  V30 25 H -4.154031 -4.105528 -1.228530 0
M  V30 26 H -2.182802 -4.334310 1.634873 0
M  V30 27 H -0.428978 -3.930254 3.278204 0
M  V30 28 H 1.000680 -1.968515 3.046660 0
M  V30 29 H -1.533678 -0.400956 -1.398140 0
M  V30 30 H -0.833783 1.439180 -2.364048 0
M  V30 31 H -0.085609 3.504873 -3.498778 0
M  V30 32 H 2.858288 3.994139 -0.565734 0
M  V30 33 H 3.080274 2.441052 1.199263 0
M  V30 34 H 2.538546 -0.804610 4.506774 0
M  V30 35 H 2.450775 -0.818739 4.487311 0
M  V30 END ATOM
M  V30 BEGIN BOND
M  V30 1 1 1 2
M  V30 2 1 2 3
M  V30 3 2 3 4
M  V30 4 1 4 5
M  V30 5 2 5 6
M  V30 6 1 6 7
M  V30 7 2 7 8
M  V30 8 1 8 9
M  V30 9 1 9 10
M  V30 10 2 10 11
M  V30 11 1 11 12
M  V30 12 2 12 13
M  V30 13 1 13 14
M  V30 14 2 14 15
M  V30 15 1 15 16
M  V30 16 2 16 17
M  V30 17 1 17 18
M  V30 18 1 18 19
M  V30 19 1 19 20
M  V30 20 2 19 21
M  V30 21 2 18 22
M  V30 22 1 8 3
M  V30 23 1 22 10
M  V30 24 1 22 7
M  V30 25 1 16 11
M  V30 26 1 1 23
M  V30 27 1 1 24
M  V30 28 1 1 25
M  V30 29 1 4 26
M  V30 30 1 5 27
M  V30 31 1 6 28
M  V30 32 1 9 29
M  V30 33 1 12 30
M  V30 34 1 13 31
M  V30 35 1 15 32
M  V30 36 1 17 33
M  V30 37 1 20 34
M  V30 38 1 20 35
M  V30 END BOND
M  V30 END CTAB
M  END
>  <Dataset>  (382) 
ChEMBL_Kinases

>  <Ligand_Instance>  (382) 
nan

>  <PDB_ID>  (382) 
nan

>  <Standardized_SMILES>  (382) 
COc1cccc2c1[nH]c1c3ccncc3cc(C(N)=O)c21

>  <Name>  (382) 
nan

>  <Pocket>  (382) 
nan

>  <ATP_Site>  (382) 
nan

>  <Peripheral>  (382) 
nan

>  <Num_H_Atoms_ProtBoundConf>  (382) 
nan

>  <Num_Resolved_Atoms>  (382) 
nan

>  <Num_Not_Resolved_Atoms>  (382) 
nan

$$$$
CHEMBL4086402
     RDKit          3D

  0  0  0  0  0  0  0  0  0  0999 V3000
M  V30 BEGIN CTAB
M  V30 COUNTS 42 44 0 0 0
M  V30 BEGIN ATOM
M  V30 1 C 0.415883 -4.320227 0.627724 0
M  V30 2 C -0.477154 -3.113770 0.846579 0
M  V30 3 C -1.252630 -2.762886 -0.401641 0 CFG=1
M  V30 4 C -2.141769 -1.550347 -0.160414 0
M  V30 5 O -2.943534 -1.829572 0.971083 0
M  V30 6 N -0.379332 -2.612296 -1.530707 0
M  V30 7 C 0.650225 -1.661218 -1.566833 0
M  V30 8 C 1.500426 -1.516941 -2.669668 0
M  V30 9 C 2.518947 -0.586943 -2.723551 0
M  V30 10 C 2.747739 0.264362 -1.660443 0
M  V30 11 N 3.618607 1.252043 -1.384383 0
M  V30 12 C 3.312660 1.709279 -0.135383 0
M  V30 13 C 2.226411 0.964131 0.335019 0
M  V30 14 C 1.678435 1.241630 1.665800 0
M  V30 15 C 2.560072 1.416665 2.738261 0
M  V30 16 C 2.156150 1.681485 4.030789 0
M  V30 17 C 0.795691 1.778064 4.271748 0
M  V30 18 C -0.086810 1.607721 3.223389 0
M  V30 19 C -1.540071 1.718038 3.517606 0
M  V30 20 F -2.309589 1.062679 2.560219 0
M  V30 21 F -1.872672 3.065576 3.557981 0
M  V30 22 F -1.789412 1.214961 4.778870 0
M  V30 23 C 0.321447 1.342700 1.930648 0
M  V30 24 N 1.902995 0.082464 -0.629205 0
M  V30 25 N 0.923950 -0.804637 -0.565950 0
M  V30 26 H -0.015683 -5.209634 1.130737 0
M  V30 27 H 0.486131 -4.555529 -0.469976 0
M  V30 28 H 1.454457 -4.110093 0.980990 0
M  V30 29 H -1.154543 -3.345060 1.683974 0
M  V30 30 H 0.166744 -2.247430 1.171273 0
M  V30 31 H -1.954823 -3.610970 -0.563199 0
M  V30 32 H -2.874824 -1.419435 -0.982164 0
M  V30 33 H -1.569158 -0.620975 -0.024627 0
M  V30 34 H -3.759018 -1.261882 0.925991 0
M  V30 35 H -0.501336 -3.225467 -2.364230 0
M  V30 36 H 1.367155 -2.160606 -3.536240 0
M  V30 37 H 3.145233 -0.521500 -3.604286 0
M  V30 38 H 3.871864 2.520334 0.337793 0
M  V30 39 H 3.622038 1.337207 2.529108 0
M  V30 40 H 2.905753 1.800145 4.786645 0
M  V30 41 H 0.503322 1.986233 5.292564 0
M  V30 42 H -0.365087 1.209155 1.109822 0
M  V30 END ATOM
M  V30 BEGIN BOND
M  V30 1 1 1 2
M  V30 2 1 2 3
M  V30 3 1 3 4
M  V30 4 1 4 5
M  V30 5 1 3 6
M  V30 6 1 6 7
M  V30 7 1 7 8
M  V30 8 2 8 9
M  V30 9 1 9 10
M  V30 10 2 10 11
M  V30 11 1 11 12
M  V30 12 2 12 13
M  V30 13 1 13 14
M  V30 14 2 14 15
M  V30 15 1 15 16
M  V30 16 2 16 17
M  V30 17 1 17 18
M  V30 18 1 18 19
M  V30 19 1 19 20
M  V30 20 1 19 21
M  V30 21 1 19 22
M  V30 22 2 18 23
M  V30 23 1 13 24
M  V30 24 1 24 25
M  V30 25 2 25 7
M  V30 26 1 24 10
M  V30 27 1 23 14
M  V30 28 1 1 26
M  V30 29 1 1 27
M  V30 30 1 1 28
M  V30 31 1 2 29
M  V30 32 1 2 30
M  V30 33 1 3 31 CFG=3
M  V30 34 1 4 32
M  V30 35 1 4 33
M  V30 36 1 5 34
M  V30 37 1 6 35
M  V30 38 1 8 36
M  V30 39 1 9 37
M  V30 40 1 12 38
M  V30 41 1 15 39
M  V30 42 1 16 40
M  V30 43 1 17 41
M  V30 44 1 23 42
M  V30 END BOND
M  V30 END CTAB
M  END
>  <Dataset>  (383) 
ChEMBL_Kinases

>  <Ligand_Instance>  (383) 
nan

>  <PDB_ID>  (383) 
nan

>  <Standardized_SMILES>  (383) 
CC[C@@H](CO)Nc1ccc2ncc(-c3cccc(C(F)(F)F)c3)n2n1

>  <Name>  (383) 
nan

>  <Pocket>  (383) 
nan

>  <ATP_Site>  (383) 
nan

>  <Peripheral>  (383) 
nan

>  <Num_H_Atoms_ProtBoundConf>  (383) 
nan

>  <Num_Resolved_Atoms>  (383) 
nan

>  <Num_Not_Resolved_Atoms>  (383) 
nan

$$$$
CHEMBL4743939
     RDKit          3D

  0  0  0  0  0  0  0  0  0  0999 V3000
M  V30 BEGIN CTAB
M  V30 COUNTS 35 38 0 0 0
M  V30 BEGIN ATOM
M  V30 1 C -0.220892 -5.088868 4.045172 0
M  V30 2 O 0.841725 -4.193185 3.920882 0
M  V30 3 C 1.024779 -3.281189 2.892196 0
M  V30 4 C 0.195440 -3.090001 1.805721 0
M  V30 5 C 0.486030 -2.145893 0.842265 0
M  V30 6 C 1.641834 -1.415195 1.030837 0
M  V30 7 C 2.033503 -0.389943 0.060984 0
M  V30 8 C 3.281531 -0.159451 -0.482126 0
M  V30 9 O 3.237352 0.861362 -1.326104 0
M  V30 10 C 2.016345 1.336168 -1.382238 0
M  V30 11 C 1.413338 2.381857 -2.090473 0
M  V30 12 C 0.061173 2.595512 -1.890776 0
M  V30 13 C -0.711214 1.836848 -1.037883 0
M  V30 14 C -2.131101 2.143998 -0.897638 0
M  V30 15 C -2.840413 3.146257 -1.539659 0
M  V30 16 N -4.113453 3.061773 -1.112014 0
M  V30 17 N -4.247923 2.076345 -0.247643 0
M  V30 18 C -3.044431 1.491953 -0.094670 0
M  V30 19 N -0.091609 0.825930 -0.363468 0
M  V30 20 C 1.230116 0.580787 -0.528218 0
M  V30 21 C 2.502620 -1.568674 2.098747 0
M  V30 22 C 2.191210 -2.530923 3.065416 0
M  V30 23 H -0.896481 -5.157764 3.185864 0
M  V30 24 H 0.144362 -6.123503 4.247880 0
M  V30 25 H -0.834506 -4.761580 4.921474 0
M  V30 26 H -0.681346 -3.716400 1.758517 0
M  V30 27 H -0.168084 -2.000902 -0.006938 0
M  V30 28 H 4.148984 -0.754325 -0.226185 0
M  V30 29 H 1.985461 2.988627 -2.759820 0
M  V30 30 H -0.382067 3.406606 -2.446983 0
M  V30 31 H -2.376782 3.825748 -2.239625 0
M  V30 32 H -5.193106 1.899875 0.165289 0
M  V30 33 H -2.884182 0.653188 0.564062 0
M  V30 34 H 3.396388 -0.975948 2.207767 0
M  V30 35 H 2.879561 -2.630549 3.888677 0
M  V30 END ATOM
M  V30 BEGIN BOND
M  V30 1 1 1 2
M  V30 2 1 2 3
M  V30 3 2 3 4
M  V30 4 1 4 5
M  V30 5 2 5 6
M  V30 6 1 6 7
M  V30 7 2 7 8
M  V30 8 1 8 9
M  V30 9 1 9 10
M  V30 10 2 10 11
M  V30 11 1 11 12
M  V30 12 2 12 13
M  V30 13 1 13 14
M  V30 14 1 14 15
M  V30 15 2 15 16
M  V30 16 1 16 17
M  V30 17 1 17 18
M  V30 18 1 13 19
M  V30 19 2 19 20
M  V30 20 1 6 21
M  V30 21 2 21 22
M  V30 22 1 22 3
M  V30 23 1 20 7
M  V30 24 1 20 10
M  V30 25 2 18 14
M  V30 26 1 1 23
M  V30 27 1 1 24
M  V30 28 1 1 25
M  V30 29 1 4 26
M  V30 30 1 5 27
M  V30 31 1 8 28
M  V30 32 1 11 29
M  V30 33 1 12 30
M  V30 34 1 15 31
M  V30 35 1 17 32
M  V30 36 1 18 33
M  V30 37 1 21 34
M  V30 38 1 22 35
M  V30 END BOND
M  V30 END CTAB
M  END
>  <Dataset>  (384) 
ChEMBL_Kinases

>  <Ligand_Instance>  (384) 
nan

>  <PDB_ID>  (384) 
nan

>  <Standardized_SMILES>  (384) 
COc1ccc(-c2coc3ccc(-c4cn[nH]c4)nc23)cc1

>  <Name>  (384) 
nan

>  <Pocket>  (384) 
nan

>  <ATP_Site>  (384) 
nan

>  <Peripheral>  (384) 
nan

>  <Num_H_Atoms_ProtBoundConf>  (384) 
nan

>  <Num_Resolved_Atoms>  (384) 
nan

>  <Num_Not_Resolved_Atoms>  (384) 
nan

$$$$
CHEMBL3775393
     RDKit          3D

  0  0  0  0  0  0  0  0  0  0999 V3000
M  V30 BEGIN CTAB
M  V30 COUNTS 23 25 0 0 0
M  V30 BEGIN ATOM
M  V30 1 O 0.057608 -4.389990 0.652050 0
M  V30 2 C 0.801707 -3.483714 1.149334 0
M  V30 3 N 1.928020 -3.800071 1.959337 0
M  V30 4 C 2.687873 -2.687263 2.460029 0
M  V30 5 S 4.222057 -2.654933 2.979412 0
M  V30 6 S 1.490617 -1.324442 2.357671 0
M  V30 7 C 0.590764 -2.035996 0.950767 0
M  V30 8 C -0.081355 -1.454449 -0.030814 0
M  V30 9 C -0.174352 -0.003751 -0.046383 0
M  V30 10 C -0.073200 0.811861 -1.151665 0
M  V30 11 C -0.169087 2.169604 -1.133492 0
M  V30 12 C -0.384070 2.835143 0.054241 0
M  V30 13 N -0.491530 4.150576 0.185570 0
M  V30 14 C -0.683515 4.699468 1.276132 0
M  V30 15 S -0.762176 3.236041 2.523171 0
M  V30 16 C -0.487145 1.961929 1.196697 0
M  V30 17 C -0.389570 0.595634 1.170474 0
M  V30 18 H 2.233424 -4.782646 2.207297 0
M  V30 19 H -0.524300 -2.133880 -0.768983 0
M  V30 20 H 0.097425 0.265077 -2.091586 0
M  V30 21 H -0.065119 2.654937 -2.097833 0
M  V30 22 H -0.801937 5.660334 1.659092 0
M  V30 23 H -0.507494 0.187371 2.148594 0
M  V30 END ATOM
M  V30 BEGIN BOND
M  V30 1 2 1 2
M  V30 2 1 2 3
M  V30 3 1 3 4
M  V30 4 2 4 5
M  V30 5 1 4 6
M  V30 6 1 6 7
M  V30 7 2 7 8
M  V30 8 1 8 9
M  V30 9 2 9 10
M  V30 10 1 10 11
M  V30 11 2 11 12
M  V30 12 1 12 13
M  V30 13 2 13 14
M  V30 14 1 14 15
M  V30 15 1 15 16
M  V30 16 2 16 17
M  V30 17 1 7 2
M  V30 18 1 17 9
M  V30 19 1 16 12
M  V30 20 1 3 18
M  V30 21 1 8 19
M  V30 22 1 10 20
M  V30 23 1 11 21
M  V30 24 1 14 22
M  V30 25 1 17 23
M  V30 END BOND
M  V30 END CTAB
M  END
>  <Dataset>  (385) 
ChEMBL_Kinases

>  <Ligand_Instance>  (385) 
nan

>  <PDB_ID>  (385) 
nan

>  <Standardized_SMILES>  (385) 
O=C1NC(=S)S/C1=C\c1ccc2ncsc2c1

>  <Name>  (385) 
nan

>  <Pocket>  (385) 
nan

>  <ATP_Site>  (385) 
nan

>  <Peripheral>  (385) 
nan

>  <Num_H_Atoms_ProtBoundConf>  (385) 
nan

>  <Num_Resolved_Atoms>  (385) 
nan

>  <Num_Not_Resolved_Atoms>  (385) 
nan

$$$$
CHEMBL4085467
     RDKit          3D

  0  0  0  0  0  0  0  0  0  0999 V3000
M  V30 BEGIN CTAB
M  V30 COUNTS 27 29 0 0 0
M  V30 BEGIN ATOM
M  V30 1 F 0.884320 -4.352501 3.875599 0
M  V30 2 C 0.672411 -4.646280 2.562465 0
M  V30 3 F -0.425118 -5.485467 2.479370 0
M  V30 4 F 1.787628 -5.384325 2.149972 0
M  V30 5 C 0.446429 -3.460865 1.706821 0
M  V30 6 C -0.062703 -2.333755 2.323616 0
M  V30 7 C -0.264119 -1.236072 1.493152 0
M  V30 8 C 0.006354 -1.212825 0.140081 0
M  V30 9 C -0.276934 0.041455 -0.550647 0
M  V30 10 C -0.915651 0.253395 -1.765728 0
M  V30 11 N -0.945382 1.597430 -1.996840 0
M  V30 12 C -0.342293 2.189140 -0.953133 0
M  V30 13 C -0.064355 3.495429 -0.607360 0
M  V30 14 C 0.578103 3.911930 0.532454 0
M  V30 15 C 0.968207 2.886477 1.391799 0
M  V30 16 Cl 1.794421 3.256439 2.879324 0
M  V30 17 N 0.700589 1.594490 1.063340 0
M  V30 18 N 0.067166 1.272909 -0.072092 0
M  V30 19 C 0.513936 -2.368798 -0.421618 0
M  V30 20 C 0.735164 -3.490442 0.352045 0
M  V30 21 H -0.297154 -2.282241 3.378295 0
M  V30 22 H -0.669404 -0.348945 2.000767 0
M  V30 23 H -1.280643 -0.592017 -2.333612 0
M  V30 24 H -0.375879 4.291106 -1.290579 0
M  V30 25 H 0.764629 4.949075 0.743512 0
M  V30 26 H 0.713022 -2.309670 -1.486864 0
M  V30 27 H 1.132915 -4.379434 -0.115907 0
M  V30 END ATOM
M  V30 BEGIN BOND
M  V30 1 1 1 2
M  V30 2 1 2 3
M  V30 3 1 2 4
M  V30 4 1 2 5
M  V30 5 2 5 6
M  V30 6 1 6 7
M  V30 7 2 7 8
M  V30 8 1 8 9
M  V30 9 2 9 10
M  V30 10 1 10 11
M  V30 11 2 11 12
M  V30 12 1 12 13
M  V30 13 2 13 14
M  V30 14 1 14 15
M  V30 15 1 15 16
M  V30 16 2 15 17
M  V30 17 1 17 18
M  V30 18 1 8 19
M  V30 19 2 19 20
M  V30 20 1 20 5
M  V30 21 1 18 9
M  V30 22 1 18 12
M  V30 23 1 6 21
M  V30 24 1 7 22
M  V30 25 1 10 23
M  V30 26 1 13 24
M  V30 27 1 14 25
M  V30 28 1 19 26
M  V30 29 1 20 27
M  V30 END BOND
M  V30 END CTAB
M  END
>  <Dataset>  (386) 
ChEMBL_Kinases

>  <Ligand_Instance>  (386) 
nan

>  <PDB_ID>  (386) 
nan

>  <Standardized_SMILES>  (386) 
FC(F)(F)c1ccc(-c2cnc3ccc(Cl)nn23)cc1

>  <Name>  (386) 
nan

>  <Pocket>  (386) 
nan

>  <ATP_Site>  (386) 
nan

>  <Peripheral>  (386) 
nan

>  <Num_H_Atoms_ProtBoundConf>  (386) 
nan

>  <Num_Resolved_Atoms>  (386) 
nan

>  <Num_Not_Resolved_Atoms>  (386) 
nan

$$$$
CHEMBL2426399
     RDKit          3D

  0  0  0  0  0  0  0  0  0  0999 V3000
M  V30 BEGIN CTAB
M  V30 COUNTS 51 54 0 0 0
M  V30 BEGIN ATOM
M  V30 1 C -5.467302 1.449273 -1.895238 0
M  V30 2 O -4.535061 2.134704 -1.084590 0
M  V30 3 C -3.930171 1.467278 -0.031590 0
M  V30 4 C -4.081924 0.152249 0.406557 0
M  V30 5 C -3.352122 -0.266650 1.494191 0
M  V30 6 C -2.472008 0.531104 2.188357 0
M  V30 7 N -1.740479 0.050960 3.308357 0
M  V30 8 C -0.515776 -0.522281 2.830142 0
M  V30 9 S 0.656256 -1.200892 3.726894 0
M  V30 10 N -0.339647 -0.474241 1.409424 0
M  V30 11 C 0.868764 -1.034169 0.885806 0
M  V30 12 O 1.773588 -1.560200 1.611414 0
M  V30 13 C 1.096804 -1.009782 -0.574807 0
M  V30 14 C 0.165174 -1.790785 -1.270225 0
M  V30 15 N 0.484532 -1.683712 -2.590492 0
M  V30 16 C -0.145398 -2.280461 -3.725064 0
M  V30 17 C -0.579599 -1.659757 -4.879015 0
M  V30 18 C -1.168557 -2.363063 -5.888437 0
M  V30 19 C -1.348164 -3.718391 -5.786593 0
M  V30 20 C -0.937796 -4.419544 -4.654761 0
M  V30 21 C -0.343040 -3.643671 -3.658469 0
M  V30 22 N 1.536508 -0.896737 -2.728043 0
M  V30 23 C 1.949879 -0.457783 -1.522882 0
M  V30 24 C 2.991507 0.392251 -0.953878 0
M  V30 25 C 2.793244 1.348528 0.021135 0
M  V30 26 C 3.879480 2.087144 0.472097 0
M  V30 27 C 5.159300 1.924321 0.002410 0
M  V30 28 C 5.337281 0.963817 -0.971908 0
M  V30 29 C 4.284833 0.208614 -1.446928 0
M  V30 30 C -2.316735 1.850827 1.752438 0
M  V30 31 C -3.036052 2.280069 0.672556 0
M  V30 32 H -6.031299 0.669285 -1.368751 0
M  V30 33 H -6.228345 2.156782 -2.327299 0
M  V30 34 H -4.913655 0.930327 -2.729966 0
M  V30 35 H -4.778932 -0.400286 -0.182404 0
M  V30 36 H -3.506888 -1.304213 1.797250 0
M  V30 37 H -1.957482 0.059596 4.334170 0
M  V30 38 H -1.015151 -0.068397 0.734660 0
M  V30 39 H -0.696799 -2.420971 -1.015561 0
M  V30 40 H -0.406818 -0.576236 -4.897500 0
M  V30 41 H -1.498873 -1.851655 -6.777676 0
M  V30 42 H -1.816620 -4.271380 -6.592300 0
M  V30 43 H -1.059345 -5.489102 -4.530994 0
M  V30 44 H -0.029284 -4.213424 -2.779653 0
M  V30 45 H 1.781386 1.475289 0.390701 0
M  V30 46 H 3.683442 2.836109 1.245627 0
M  V30 47 H 5.981389 2.521235 0.380072 0
M  V30 48 H 6.360948 0.826092 -1.354742 0
M  V30 49 H 4.469157 -0.536777 -2.214246 0
M  V30 50 H -1.624653 2.448606 2.310314 0
M  V30 51 H -2.832085 3.322507 0.425200 0
M  V30 END ATOM
M  V30 BEGIN BOND
M  V30 1 1 1 2
M  V30 2 1 2 3
M  V30 3 2 3 4
M  V30 4 1 4 5
M  V30 5 2 5 6
M  V30 6 1 6 7
M  V30 7 1 7 8
M  V30 8 2 8 9
M  V30 9 1 8 10
M  V30 10 1 10 11
M  V30 11 2 11 12
M  V30 12 1 11 13
M  V30 13 2 13 14
M  V30 14 1 14 15
M  V30 15 1 15 16
M  V30 16 2 16 17
M  V30 17 1 17 18
M  V30 18 2 18 19
M  V30 19 1 19 20
M  V30 20 2 20 21
M  V30 21 1 15 22
M  V30 22 2 22 23
M  V30 23 1 23 24
M  V30 24 2 24 25
M  V30 25 1 25 26
M  V30 26 2 26 27
M  V30 27 1 27 28
M  V30 28 2 28 29
M  V30 29 1 6 30
M  V30 30 2 30 31
M  V30 31 1 31 3
M  V30 32 1 23 13
M  V30 33 1 29 24
M  V30 34 1 21 16
M  V30 35 1 1 32
M  V30 36 1 1 33
M  V30 37 1 1 34
M  V30 38 1 4 35
M  V30 39 1 5 36
M  V30 40 1 7 37
M  V30 41 1 10 38
M  V30 42 1 14 39
M  V30 43 1 17 40
M  V30 44 1 18 41
M  V30 45 1 19 42
M  V30 46 1 20 43
M  V30 47 1 21 44
M  V30 48 1 25 45
M  V30 49 1 26 46
M  V30 50 1 27 47
M  V30 51 1 28 48
M  V30 52 1 29 49
M  V30 53 1 30 50
M  V30 54 1 31 51
M  V30 END BOND
M  V30 END CTAB
M  END
>  <Dataset>  (387) 
ChEMBL_Kinases

>  <Ligand_Instance>  (387) 
nan

>  <PDB_ID>  (387) 
nan

>  <Standardized_SMILES>  (387) 
COc1ccc(NC(=S)NC(=O)c2cn(-c3ccccc3)nc2-c2ccccc2)cc1

>  <Name>  (387) 
nan

>  <Pocket>  (387) 
nan

>  <ATP_Site>  (387) 
nan

>  <Peripheral>  (387) 
nan

>  <Num_H_Atoms_ProtBoundConf>  (387) 
nan

>  <Num_Resolved_Atoms>  (387) 
nan

>  <Num_Not_Resolved_Atoms>  (387) 
nan

$$$$
CHEMBL1803081
     RDKit          3D

  0  0  0  0  0  0  0  0  0  0999 V3000
M  V30 BEGIN CTAB
M  V30 COUNTS 45 48 0 0 0
M  V30 BEGIN ATOM
M  V30 1 C 0.619224 -3.077402 -0.822307 0
M  V30 2 C -0.776103 -3.239983 -1.337087 0
M  V30 3 C -1.568973 -1.969582 -1.138652 0
M  V30 4 N -1.654479 -1.621991 0.261985 0
M  V30 5 C -0.616868 -1.144103 1.127228 0
M  V30 6 N 0.207887 -0.272127 0.633173 0
M  V30 7 C 1.164233 0.099291 1.608784 0
M  V30 8 C 2.171994 0.951373 1.560703 0
M  V30 9 C 2.423087 1.682674 0.324565 0
M  V30 10 C 2.521670 1.178784 -0.952479 0
M  V30 11 C 2.720403 2.009569 -2.050561 0
M  V30 12 C 2.824507 3.384330 -1.872131 0
M  V30 13 C 2.726202 3.896920 -0.583459 0
M  V30 14 C 2.530658 3.075440 0.504379 0
M  V30 15 O 2.856965 5.301985 -0.675706 0
M  V30 16 C 2.477801 5.644178 -2.024631 0
M  V30 17 O 3.019552 4.509260 -2.704307 0
M  V30 18 C 0.814694 -0.675436 2.798635 0
M  V30 19 O 1.359916 -0.695728 3.926277 0
M  V30 20 N -0.324554 -1.466097 2.478963 0
M  V30 21 C -1.126838 -2.394550 3.215162 0
M  V30 22 C -2.236736 -1.784478 3.761177 0
M  V30 23 C -3.147375 -2.517389 4.513893 0
M  V30 24 C -2.958590 -3.862550 4.728042 0
M  V30 25 C -1.831545 -4.472061 4.172424 0
M  V30 26 C -0.918575 -3.757250 3.422780 0
M  V30 27 H 1.251643 -3.948810 -1.113003 0
M  V30 28 H 1.061607 -2.140469 -1.209249 0
M  V30 29 H 0.610758 -3.107099 0.299956 0
M  V30 30 H -1.319768 -4.069372 -0.801839 0
M  V30 31 H -0.790901 -3.528723 -2.411806 0
M  V30 32 H -2.595904 -2.154156 -1.515080 0
M  V30 33 H -1.079239 -1.125231 -1.696706 0
M  V30 34 H -2.597899 -1.729251 0.766753 0
M  V30 35 H 2.807276 1.102476 2.431116 0
M  V30 36 H 2.442859 0.112832 -1.053686 0
M  V30 37 H 2.800723 1.615766 -3.052495 0
M  V30 38 H 2.457465 3.538359 1.497075 0
M  V30 39 H 1.389568 5.707219 -2.155072 0
M  V30 40 H 2.945925 6.571601 -2.353762 0
M  V30 41 H -2.547989 -0.752987 3.700138 0
M  V30 42 H -4.045517 -2.143889 4.985536 0
M  V30 43 H -3.623199 -4.490658 5.300100 0
M  V30 44 H -1.590957 -5.502770 4.274917 0
M  V30 45 H -0.025775 -4.110918 2.950401 0
M  V30 END ATOM
M  V30 BEGIN BOND
M  V30 1 1 1 2
M  V30 2 1 2 3
M  V30 3 1 3 4
M  V30 4 1 4 5
M  V30 5 2 5 6
M  V30 6 1 6 7
M  V30 7 2 7 8
M  V30 8 1 8 9
M  V30 9 2 9 10
M  V30 10 1 10 11
M  V30 11 2 11 12
M  V30 12 1 12 13
M  V30 13 2 13 14
M  V30 14 1 13 15
M  V30 15 1 15 16
M  V30 16 1 16 17
M  V30 17 1 7 18
M  V30 18 2 18 19
M  V30 19 1 18 20
M  V30 20 1 20 21
M  V30 21 2 21 22
M  V30 22 1 22 23
M  V30 23 2 23 24
M  V30 24 1 24 25
M  V30 25 2 25 26
M  V30 26 1 20 5
M  V30 27 1 26 21
M  V30 28 1 14 9
M  V30 29 1 17 12
M  V30 30 1 1 27
M  V30 31 1 1 28
M  V30 32 1 1 29
M  V30 33 1 2 30
M  V30 34 1 2 31
M  V30 35 1 3 32
M  V30 36 1 3 33
M  V30 37 1 4 34
M  V30 38 1 8 35
M  V30 39 1 10 36
M  V30 40 1 11 37
M  V30 41 1 14 38
M  V30 42 1 16 39
M  V30 43 1 16 40
M  V30 44 1 22 41
M  V30 45 1 23 42
M  V30 46 1 24 43
M  V30 47 1 25 44
M  V30 48 1 26 45
M  V30 END BOND
M  V30 END CTAB
M  END
>  <Dataset>  (388) 
ChEMBL_Kinases

>  <Ligand_Instance>  (388) 
nan

>  <PDB_ID>  (388) 
nan

>  <Standardized_SMILES>  (388) 
CCCNC1=N/C(=C\c2ccc3c(c2)OCO3)C(=O)N1c1ccccc1

>  <Name>  (388) 
nan

>  <Pocket>  (388) 
nan

>  <ATP_Site>  (388) 
nan

>  <Peripheral>  (388) 
nan

>  <Num_H_Atoms_ProtBoundConf>  (388) 
nan

>  <Num_Resolved_Atoms>  (388) 
nan

>  <Num_Not_Resolved_Atoms>  (388) 
nan

$$$$
CHEMBL265470
     RDKit          3D

  0  0  0  0  0  0  0  0  0  0999 V3000
M  V30 BEGIN CTAB
M  V30 COUNTS 34 38 0 0 0
M  V30 BEGIN ATOM
M  V30 1 O 3.051313 -0.918895 5.346812 0
M  V30 2 C 2.486405 -1.677360 4.553268 0
M  V30 3 O 2.713047 -2.941625 5.057950 0
M  V30 4 C 1.717595 -1.522958 3.331912 0
M  V30 5 C 1.223589 -2.629128 2.676768 0
M  V30 6 C 0.492955 -2.530289 1.515120 0
M  V30 7 C 0.183114 -1.337321 0.894656 0
M  V30 8 C 0.677827 -0.228760 1.550660 0
M  V30 9 C 1.409728 -0.331665 2.714756 0
M  V30 10 C 1.848716 0.837610 3.276353 0
M  V30 11 C 1.609735 2.089094 2.761056 0
M  V30 12 C 0.867504 2.187909 1.581121 0
M  V30 13 C 0.409825 1.018421 0.990132 0
M  V30 14 C -0.334348 1.089825 -0.189775 0
M  V30 15 O -0.578742 2.216556 -0.699764 0
M  V30 16 N -0.806850 -0.027414 -0.809861 0
M  V30 17 C -1.531221 -0.228137 -1.928392 0
M  V30 18 C -2.031640 0.699296 -2.819480 0
M  V30 19 C -2.740904 0.178335 -3.878664 0
M  V30 20 C -2.970441 -1.164560 -4.091061 0
M  V30 21 C -2.455153 -2.067275 -3.179300 0
M  V30 22 C -1.734893 -1.602765 -2.096529 0
M  V30 23 N -1.105563 -2.192040 -1.039965 0
M  V30 24 C -0.550147 -1.239626 -0.270986 0
M  V30 25 H 2.700626 -3.162634 6.033982 0
M  V30 26 H 1.411892 -3.617034 3.083051 0
M  V30 27 H 0.136761 -3.455200 1.056886 0
M  V30 28 H 2.426461 0.867282 4.183140 0
M  V30 29 H 1.963933 3.015153 3.216090 0
M  V30 30 H 0.644952 3.141871 1.124727 0
M  V30 31 H -1.871755 1.763372 -2.685822 0
M  V30 32 H -3.148711 0.874885 -4.598272 0
M  V30 33 H -3.537755 -1.521271 -4.944923 0
M  V30 34 H -2.579462 -3.127137 -3.257405 0
M  V30 END ATOM
M  V30 BEGIN BOND
M  V30 1 2 1 2
M  V30 2 1 2 3
M  V30 3 1 2 4
M  V30 4 2 4 5
M  V30 5 1 5 6
M  V30 6 2 6 7
M  V30 7 1 7 8
M  V30 8 2 8 9
M  V30 9 1 9 10
M  V30 10 2 10 11
M  V30 11 1 11 12
M  V30 12 2 12 13
M  V30 13 1 13 14
M  V30 14 2 14 15
M  V30 15 1 14 16
M  V30 16 1 16 17
M  V30 17 2 17 18
M  V30 18 1 18 19
M  V30 19 2 19 20
M  V30 20 1 20 21
M  V30 21 2 21 22
M  V30 22 1 22 23
M  V30 23 2 23 24
M  V30 24 1 9 4
M  V30 25 1 24 16
M  V30 26 1 24 7
M  V30 27 1 13 8
M  V30 28 1 22 17
M  V30 29 1 3 25
M  V30 30 1 5 26
M  V30 31 1 6 27
M  V30 32 1 10 28
M  V30 33 1 11 29
M  V30 34 1 12 30
M  V30 35 1 18 31
M  V30 36 1 19 32
M  V30 37 1 20 33
M  V30 38 1 21 34
M  V30 END BOND
M  V30 END CTAB
M  END
>  <Dataset>  (389) 
ChEMBL_Kinases

>  <Ligand_Instance>  (389) 
nan

>  <PDB_ID>  (389) 
nan

>  <Standardized_SMILES>  (389) 
O=C(O)c1ccc2c3c1cccc3c(=O)n1c3ccccc3nc21

>  <Name>  (389) 
nan

>  <Pocket>  (389) 
nan

>  <ATP_Site>  (389) 
nan

>  <Peripheral>  (389) 
nan

>  <Num_H_Atoms_ProtBoundConf>  (389) 
nan

>  <Num_Resolved_Atoms>  (389) 
nan

>  <Num_Not_Resolved_Atoms>  (389) 
nan

$$$$
CHEMBL3422092
     RDKit          2D

  0  0  0  0  0  0  0  0  0  0999 V3000
M  V30 BEGIN CTAB
M  V30 COUNTS 68 74 0 0 0
M  V30 BEGIN ATOM
M  V30 1 O -4.309298 3.590649 0.000000 0
M  V30 2 C -2.949853 4.224613 0.000000 0
M  V30 3 N -2.637986 5.691835 0.000000 0
M  V30 4 C -3.752703 6.695531 0.000000 0
M  V30 5 C -2.749007 7.810248 0.000000 0
M  V30 6 C -3.212533 9.236833 0.000000 0
M  V30 7 C -2.208837 10.351550 0.000000 0
M  V30 8 C -0.741615 10.039682 0.000000 0
M  V30 9 C -0.278090 8.613097 0.000000 0
M  V30 10 N -1.281786 7.498380 0.000000 0
M  V30 11 C -4.756399 5.580813 0.000000 0
M  V30 12 C -6.080820 4.876606 0.000000 0
M  V30 13 C -6.028471 6.375692 0.000000 0
M  V30 14 C -1.835136 3.220917 0.000000 0
M  V30 15 C -0.408551 3.684443 0.000000 0
M  V30 16 C 0.706166 2.680747 0.000000 0
M  V30 17 C 0.394298 1.213525 0.000000 0
M  V30 18 N 1.275976 0.000000 0.000000 0
M  V30 19 N 0.394298 -1.213525 0.000000 0
M  V30 20 C -1.032286 -0.750000 0.000000 0
M  V30 21 C -2.245812 -1.631678 0.000000 0
M  V30 22 C -3.616130 -1.021573 0.000000 0
M  V30 23 C -4.829656 -1.903251 0.000000 0
M  V30 24 C -4.672863 -3.395034 0.000000 0
M  V30 25 N -5.886388 -4.276712 0.000000 0
M  V30 26 C -7.312973 -3.813186 0.000000 0
M  V30 27 C -8.194651 -5.026712 0.000000 0
M  V30 28 C -7.312973 -6.240237 0.000000 0
M  V30 29 C -5.886388 -5.776712 0.000000 0
M  V30 30 C -4.572337 -5.033396 0.000000 0
M  V30 31 C -4.729130 -3.541613 0.000000 0
M  V30 32 O -4.366247 -2.086170 0.000000 0
M  V30 33 C -6.099448 -2.931508 0.000000 0
M  V30 34 C -3.302545 -4.005139 0.000000 0
M  V30 35 C -2.089019 -3.123461 0.000000 0
M  V30 36 C -1.032286 0.750000 0.000000 0
M  V30 37 C -2.147004 1.753696 0.000000 0
M  V30 38 H -1.211401 6.155360 0.000000 0
M  V30 39 H -4.736761 7.827621 0.000000 0
M  V30 40 H -4.679754 9.548700 0.000000 0
M  V30 41 H -2.672362 11.778135 0.000000 0
M  V30 42 H 0.262081 11.154399 0.000000 0
M  V30 43 H 1.189132 8.301230 0.000000 0
M  V30 44 H -3.983877 4.295042 0.000000 0
M  V30 45 H -5.617295 3.450021 0.000000 0
M  V30 46 H -7.566222 4.667846 0.000000 0
M  V30 47 H -7.495693 6.687560 0.000000 0
M  V30 48 H -5.640282 7.824591 0.000000 0
M  V30 49 H -0.096684 5.151664 0.000000 0
M  V30 50 H 2.132751 3.144272 0.000000 0
M  V30 51 H 2.775976 0.000000 0.000000 0
M  V30 52 H -3.953596 0.439973 0.000000 0
M  V30 53 H -6.264125 -1.464732 0.000000 0
M  V30 54 H -7.946937 -2.453741 0.000000 0
M  V30 55 H -9.309368 -4.023016 0.000000 0
M  V30 56 H -9.309368 -6.030407 0.000000 0
M  V30 57 H -8.612011 -6.990237 0.000000 0
M  V30 58 H -6.702868 -7.610555 0.000000 0
M  V30 59 H -4.789385 -6.799739 0.000000 0
M  V30 60 H -3.078055 -5.164250 0.000000 0
M  V30 61 H -3.755344 -6.291380 0.000000 0
M  V30 62 H -3.302570 -4.005215 0.000000 0
M  V30 63 H -5.161057 -0.814055 0.000000 0
M  V30 64 H -7.043397 -1.765764 0.000000 0
M  V30 65 H -5.762139 -1.469926 0.000000 0
M  V30 66 H -2.965079 -5.466685 0.000000 0
M  V30 67 H -0.718701 -3.733566 0.000000 0
M  V30 68 H -3.619452 1.467522 0.000000 0
M  V30 END ATOM
M  V30 BEGIN BOND
M  V30 1 2 1 2
M  V30 2 1 2 3
M  V30 3 1 3 4
M  V30 4 1 4 5
M  V30 5 2 5 6
M  V30 6 1 6 7
M  V30 7 2 7 8
M  V30 8 1 8 9
M  V30 9 2 9 10
M  V30 10 1 4 11
M  V30 11 1 11 12
M  V30 12 1 12 13
M  V30 13 1 2 14
M  V30 14 2 14 15
M  V30 15 1 15 16
M  V30 16 2 16 17
M  V30 17 1 17 18
M  V30 18 1 18 19
M  V30 19 2 19 20
M  V30 20 1 20 21
M  V30 21 2 21 22
M  V30 22 1 22 23
M  V30 23 2 23 24
M  V30 24 1 24 25
M  V30 25 1 25 26
M  V30 26 1 26 27
M  V30 27 1 27 28
M  V30 28 1 28 29
M  V30 29 1 29 30
M  V30 30 1 30 31
M  V30 31 1 31 32
M  V30 32 1 31 33
M  V30 33 1 24 34
M  V30 34 2 34 35
M  V30 35 1 20 36
M  V30 36 2 36 37
M  V30 37 1 10 5
M  V30 38 1 13 11
M  V30 39 1 37 14
M  V30 40 1 36 17
M  V30 41 1 35 21
M  V30 42 1 29 25
M  V30 43 1 33 26
M  V30 44 1 3 38
M  V30 45 1 4 39 CFG=1
M  V30 46 1 6 40
M  V30 47 1 7 41
M  V30 48 1 8 42
M  V30 49 1 9 43
M  V30 50 1 11 44
M  V30 51 1 12 45
M  V30 52 1 12 46
M  V30 53 1 13 47
M  V30 54 1 13 48
M  V30 55 1 15 49
M  V30 56 1 16 50
M  V30 57 1 18 51
M  V30 58 1 22 52
M  V30 59 1 23 53
M  V30 60 1 26 54 CFG=3
M  V30 61 1 27 55
M  V30 62 1 27 56
M  V30 63 1 28 57
M  V30 64 1 28 58
M  V30 65 1 29 59 CFG=1
M  V30 66 1 30 60
M  V30 67 1 30 61
M  V30 68 1 31 62
M  V30 69 1 32 63
M  V30 70 1 33 64
M  V30 71 1 33 65
M  V30 72 1 34 66
M  V30 73 1 35 67
M  V30 74 1 37 68
M  V30 END BOND
M  V30 END CTAB
M  END
>  <Dataset>  (390) 
ChEMBL_Kinases

>  <Ligand_Instance>  (390) 
nan

>  <PDB_ID>  (390) 
nan

>  <Standardized_SMILES>  (390) 
O=C(N[C@@H](c1ccccn1)C1CC1)c1ccc2[nH]nc(-c3ccc(N4[C@H]5CC[C@H]4CC(O)C5)cc3)c2c1

>  <Name>  (390) 
nan

>  <Pocket>  (390) 
nan

>  <ATP_Site>  (390) 
nan

>  <Peripheral>  (390) 
nan

>  <Num_H_Atoms_ProtBoundConf>  (390) 
nan

>  <Num_Resolved_Atoms>  (390) 
nan

>  <Num_Not_Resolved_Atoms>  (390) 
nan

$$$$
CHEMBL575448
     RDKit          3D

  0  0  0  0  0  0  0  0  0  0999 V3000
M  V30 BEGIN CTAB
M  V30 COUNTS 58 63 0 0 0
M  V30 BEGIN ATOM
M  V30 1 C 1.267839 2.839130 3.812545 0
M  V30 2 C 0.548077 1.661084 3.178784 0 CFG=1
M  V30 3 C 1.463391 0.683991 2.608835 0
M  V30 4 O 1.518369 0.726935 1.329824 0
M  V30 5 N 2.336069 -0.323974 3.052966 0
M  V30 6 C 2.957142 -0.908926 1.932974 0
M  V30 7 C 2.602477 -1.946970 1.113766 0
M  V30 8 C 3.468231 -2.285193 0.071018 0
M  V30 9 C 4.645685 -1.598311 -0.133968 0
M  V30 10 F 5.471106 -1.943690 -1.159224 0
M  V30 11 N 4.979216 -0.570154 0.690196 0
M  V30 12 C 4.159020 -0.214086 1.716035 0
M  V30 13 C -0.497834 1.118832 4.121744 0
M  V30 14 C -1.582201 2.207607 4.051324 0
M  V30 15 C -1.165762 3.095415 2.867256 0
M  V30 16 N -0.347753 2.151661 2.111753 0
M  V30 17 C -0.386187 1.769189 0.737853 0
M  V30 18 N -1.245608 0.729868 0.733874 0
M  V30 19 C -1.567168 0.052631 -0.409076 0
M  V30 20 N -2.414300 -1.054633 -0.654112 0
M  V30 21 C -1.791516 -2.295085 -0.950268 0
M  V30 22 C -2.440014 -3.482982 -1.215346 0
M  V30 23 C -1.520760 -4.469550 -1.475588 0
M  V30 24 C -1.803091 -5.894315 -1.822242 0
M  V30 25 C -3.139275 -6.467932 -1.665518 0
M  V30 26 C -2.766695 -6.022399 -3.030372 0
M  V30 27 N -0.307521 -3.877440 -1.365300 0
M  V30 28 N -0.477430 -2.582267 -1.052663 0
M  V30 29 C -0.952628 0.497144 -1.585065 0
M  V30 30 C -0.964127 0.128549 -2.929196 0
M  V30 31 C -0.121174 0.955890 -3.647653 0
M  V30 32 C 0.418331 1.846421 -2.742891 0
M  V30 33 N -0.101893 1.534056 -1.548512 0
M  V30 34 N 0.199316 2.185712 -0.415840 0
M  V30 35 H 1.391557 3.613124 3.016388 0
M  V30 36 H 0.598532 3.236767 4.607467 0
M  V30 37 H 2.203475 2.550116 4.300219 0
M  V30 38 H 2.299035 -0.403049 4.118450 0
M  V30 39 H 1.674354 -2.384539 1.384645 0
M  V30 40 H 3.153981 -3.099436 -0.545399 0
M  V30 41 H 4.595178 0.618011 2.252549 0
M  V30 42 H -0.876209 0.151354 3.701988 0
M  V30 43 H -0.155643 1.027615 5.171349 0
M  V30 44 H -2.559709 1.759282 3.798549 0
M  V30 45 H -1.572590 2.845546 4.945968 0
M  V30 46 H -0.622651 3.989106 3.167142 0
M  V30 47 H -2.078546 3.378067 2.290034 0
M  V30 48 H -3.433277 -0.958344 -0.613936 0
M  V30 49 H -3.505818 -3.595709 -1.214058 0
M  V30 50 H -0.879018 -6.523746 -1.916416 0
M  V30 51 H -3.904601 -5.907327 -1.108681 0
M  V30 52 H -3.216712 -7.582295 -1.557817 0
M  V30 53 H -3.193209 -5.099809 -3.447844 0
M  V30 54 H -2.465356 -6.759698 -3.805802 0
M  V30 55 H 0.279041 -1.881205 -0.902968 0
M  V30 56 H -1.553632 -0.689637 -3.324872 0
M  V30 57 H 0.012815 0.834256 -4.716543 0
M  V30 58 H 1.112278 2.597487 -3.041057 0
M  V30 END ATOM
M  V30 BEGIN BOND
M  V30 1 1 2 1 CFG=1
M  V30 2 1 2 3
M  V30 3 2 3 4
M  V30 4 1 3 5
M  V30 5 1 5 6
M  V30 6 2 6 7
M  V30 7 1 7 8
M  V30 8 2 8 9
M  V30 9 1 9 10
M  V30 10 1 9 11
M  V30 11 2 11 12
M  V30 12 1 2 13
M  V30 13 1 13 14
M  V30 14 1 14 15
M  V30 15 1 15 16
M  V30 16 1 16 17
M  V30 17 1 17 18
M  V30 18 2 18 19
M  V30 19 1 19 20
M  V30 20 1 20 21
M  V30 21 2 21 22
M  V30 22 1 22 23
M  V30 23 1 23 24
M  V30 24 1 24 25
M  V30 25 1 25 26
M  V30 26 2 23 27
M  V30 27 1 27 28
M  V30 28 1 19 29
M  V30 29 2 29 30
M  V30 30 1 30 31
M  V30 31 2 31 32
M  V30 32 1 32 33
M  V30 33 1 33 34
M  V30 34 1 16 2
M  V30 35 2 34 17
M  V30 36 1 12 6
M  V30 37 1 28 21
M  V30 38 1 33 29
M  V30 39 1 26 24
M  V30 40 1 1 35
M  V30 41 1 1 36
M  V30 42 1 1 37
M  V30 43 1 5 38
M  V30 44 1 7 39
M  V30 45 1 8 40
M  V30 46 1 12 41
M  V30 47 1 13 42
M  V30 48 1 13 43
M  V30 49 1 14 44
M  V30 50 1 14 45
M  V30 51 1 15 46
M  V30 52 1 15 47
M  V30 53 1 20 48
M  V30 54 1 22 49
M  V30 55 1 24 50
M  V30 56 1 25 51
M  V30 57 1 25 52
M  V30 58 1 26 53
M  V30 59 1 26 54
M  V30 60 1 28 55
M  V30 61 1 30 56
M  V30 62 1 31 57
M  V30 63 1 32 58
M  V30 END BOND
M  V30 END CTAB
M  END
>  <Dataset>  (391) 
ChEMBL_Kinases

>  <Ligand_Instance>  (391) 
nan

>  <PDB_ID>  (391) 
nan

>  <Standardized_SMILES>  (391) 
C[C@@]1(C(=O)Nc2ccc(F)nc2)CCCN1c1nc(Nc2cc(C3CC3)n[nH]2)c2cccn2n1

>  <Name>  (391) 
BMS-754807

>  <Pocket>  (391) 
nan

>  <ATP_Site>  (391) 
nan

>  <Peripheral>  (391) 
nan

>  <Num_H_Atoms_ProtBoundConf>  (391) 
nan

>  <Num_Resolved_Atoms>  (391) 
nan

>  <Num_Not_Resolved_Atoms>  (391) 
nan

$$$$
CHEMBL2426395
     RDKit          3D

  0  0  0  0  0  0  0  0  0  0999 V3000
M  V30 BEGIN CTAB
M  V30 COUNTS 55 58 0 0 0
M  V30 BEGIN ATOM
M  V30 1 C 3.103287 -3.581319 4.768150 0
M  V30 2 O 3.056901 -3.737379 3.342017 0
M  V30 3 C 3.393686 -2.647619 2.538239 0
M  V30 4 C 3.753121 -1.476911 3.159169 0
M  V30 5 C 4.082009 -0.409020 2.353703 0
M  V30 6 C 4.041834 -0.547345 0.958813 0
M  V30 7 N 4.405629 0.663975 0.297855 0
M  V30 8 C 3.227445 1.336853 -0.105131 0
M  V30 9 S 3.758899 2.685875 -0.831741 0
M  V30 10 N 1.973982 0.764081 0.166373 0
M  V30 11 C 0.929980 1.560934 -0.320251 0
M  V30 12 O 1.396484 2.599636 -0.872988 0
M  V30 13 C -0.493739 1.428857 -0.316429 0
M  V30 14 C -1.400863 2.408004 -0.632730 0
M  V30 15 N -2.635022 1.898799 -0.571016 0
M  V30 16 C -3.942524 2.452358 -0.787842 0
M  V30 17 C -4.269923 2.678189 -2.128648 0
M  V30 18 C -5.527851 3.227749 -2.425829 0
M  V30 19 C -6.424262 3.536351 -1.392820 0
M  V30 20 C -6.072972 3.298678 -0.056558 0
M  V30 21 C -4.841127 2.762008 0.243055 0
M  V30 22 N -2.497424 0.635704 -0.223692 0
M  V30 23 C -1.185656 0.303535 -0.053767 0
M  V30 24 C -0.942879 -1.080893 0.301024 0
M  V30 25 C -0.390959 -1.705961 1.408349 0
M  V30 26 C -0.217352 -3.070263 1.456549 0
M  V30 27 C -0.580574 -3.887874 0.408430 0
M  V30 28 O -0.356662 -5.259145 0.561254 0
M  V30 29 C -0.714572 -6.107944 -0.515924 0
M  V30 30 C -1.127349 -3.333055 -0.704060 0
M  V30 31 C -1.289581 -1.978487 -0.727170 0
M  V30 32 C 3.681910 -1.725098 0.344653 0
M  V30 33 C 3.354133 -2.784861 1.181308 0
M  V30 34 H 2.922583 -4.537398 5.268148 0
M  V30 35 H 4.150595 -3.246280 4.999238 0
M  V30 36 H 2.428265 -2.795707 5.114430 0
M  V30 37 H 3.780424 -1.397035 4.252653 0
M  V30 38 H 4.360860 0.501167 2.876885 0
M  V30 39 H 5.431454 0.746238 0.276603 0
M  V30 40 H 1.704837 -0.097176 0.632078 0
M  V30 41 H -1.232176 3.439335 -0.894535 0
M  V30 42 H -3.656959 2.475186 -2.978154 0
M  V30 43 H -5.873949 3.438714 -3.423335 0
M  V30 44 H -7.389778 3.955267 -1.642525 0
M  V30 45 H -6.746366 3.528437 0.729983 0
M  V30 46 H -4.511100 2.554238 1.266014 0
M  V30 47 H -0.150514 -0.950747 2.163118 0
M  V30 48 H 0.218699 -3.425627 2.392548 0
M  V30 49 H 0.095061 -6.081871 -1.307808 0
M  V30 50 H -0.771127 -7.163723 -0.152018 0
M  V30 51 H -1.662738 -5.852885 -0.990025 0
M  V30 52 H -1.427434 -3.948314 -1.554130 0
M  V30 53 H -1.737855 -1.605014 -1.663882 0
M  V30 54 H 3.693140 -1.690972 -0.734574 0
M  V30 55 H 3.071154 -3.695179 0.654190 0
M  V30 END ATOM
M  V30 BEGIN BOND
M  V30 1 1 1 2
M  V30 2 1 2 3
M  V30 3 2 3 4
M  V30 4 1 4 5
M  V30 5 2 5 6
M  V30 6 1 6 7
M  V30 7 1 7 8
M  V30 8 2 8 9
M  V30 9 1 8 10
M  V30 10 1 10 11
M  V30 11 2 11 12
M  V30 12 1 11 13
M  V30 13 2 13 14
M  V30 14 1 14 15
M  V30 15 1 15 16
M  V30 16 2 16 17
M  V30 17 1 17 18
M  V30 18 2 18 19
M  V30 19 1 19 20
M  V30 20 2 20 21
M  V30 21 1 15 22
M  V30 22 2 22 23
M  V30 23 1 23 24
M  V30 24 2 24 25
M  V30 25 1 25 26
M  V30 26 2 26 27
M  V30 27 1 27 28
M  V30 28 1 28 29
M  V30 29 1 27 30
M  V30 30 2 30 31
M  V30 31 1 6 32
M  V30 32 2 32 33
M  V30 33 1 33 3
M  V30 34 1 23 13
M  V30 35 1 31 24
M  V30 36 1 21 16
M  V30 37 1 1 34
M  V30 38 1 1 35
M  V30 39 1 1 36
M  V30 40 1 4 37
M  V30 41 1 5 38
M  V30 42 1 7 39
M  V30 43 1 10 40
M  V30 44 1 14 41
M  V30 45 1 17 42
M  V30 46 1 18 43
M  V30 47 1 19 44
M  V30 48 1 20 45
M  V30 49 1 21 46
M  V30 50 1 25 47
M  V30 51 1 26 48
M  V30 52 1 29 49
M  V30 53 1 29 50
M  V30 54 1 29 51
M  V30 55 1 30 52
M  V30 56 1 31 53
M  V30 57 1 32 54
M  V30 58 1 33 55
M  V30 END BOND
M  V30 END CTAB
M  END
>  <Dataset>  (392) 
ChEMBL_Kinases

>  <Ligand_Instance>  (392) 
nan

>  <PDB_ID>  (392) 
nan

>  <Standardized_SMILES>  (392) 
COc1ccc(NC(=S)NC(=O)c2cn(-c3ccccc3)nc2-c2ccc(OC)cc2)cc1

>  <Name>  (392) 
nan

>  <Pocket>  (392) 
nan

>  <ATP_Site>  (392) 
nan

>  <Peripheral>  (392) 
nan

>  <Num_H_Atoms_ProtBoundConf>  (392) 
nan

>  <Num_Resolved_Atoms>  (392) 
nan

>  <Num_Not_Resolved_Atoms>  (392) 
nan

$$$$
CHEMBL3673435
     RDKit          3D

  0  0  0  0  0  0  0  0  0  0999 V3000
M  V30 BEGIN CTAB
M  V30 COUNTS 49 51 0 0 0
M  V30 BEGIN ATOM
M  V30 1 C 1.069588 -3.088333 4.060441 0
M  V30 2 O 0.792400 -1.703497 4.002793 0
M  V30 3 C 0.272657 -0.994957 5.071779 0
M  V30 4 C 0.007001 -1.653424 6.254481 0
M  V30 5 C -0.506081 -0.909446 7.282023 0
M  V30 6 F -0.776299 -1.537380 8.458951 0
M  V30 7 C -0.762191 0.449661 7.179119 0
M  V30 8 C -0.488513 1.093913 5.981958 0
M  V30 9 C 0.028655 0.363231 4.934247 0
M  V30 10 C 0.335610 0.989012 3.651776 0
M  V30 11 C 1.004408 2.207556 3.547801 0
M  V30 12 C 1.297520 2.804297 2.338854 0
M  V30 13 N 0.915502 2.173078 1.195668 0
M  V30 14 C 0.262630 0.987049 1.232367 0
M  V30 15 N -0.152341 0.297605 0.060138 0
M  V30 16 C -1.398397 0.469803 -0.567111 0
M  V30 17 O -2.146606 1.322876 0.023852 0
M  V30 18 C -1.873896 -0.217140 -1.777670 0
M  V30 19 C -1.913963 -1.740271 -1.610604 0
M  V30 20 C -1.396017 -2.265209 -2.959409 0
M  V30 21 C -0.300440 -1.222499 -3.197923 0
M  V30 22 N 0.275355 -1.371717 -4.517210 0
M  V30 23 C 1.634191 -1.758732 -4.656940 0
M  V30 24 C 2.432212 -1.972698 -5.875216 0
M  V30 25 O 2.356894 -1.977209 -3.652714 0
M  V30 26 C -1.056840 0.037098 -3.011134 0
M  V30 27 C -0.034005 0.383353 2.451732 0
M  V30 28 H 1.705324 -3.259052 4.948767 0
M  V30 29 H 1.580167 -3.402541 3.149923 0
M  V30 30 H 0.146188 -3.697267 4.136820 0
M  V30 31 H 0.187081 -2.719297 6.395557 0
M  V30 32 H -1.171727 1.030521 8.007394 0
M  V30 33 H -0.661180 2.152918 5.823608 0
M  V30 34 H 1.280789 2.657599 4.498055 0
M  V30 35 H 1.823209 3.759055 2.313489 0
M  V30 36 H 0.519885 -0.373866 -0.346802 0
M  V30 37 H -2.938551 0.090079 -1.976253 0
M  V30 38 H -2.940102 -2.092748 -1.411271 0
M  V30 39 H -1.191158 -1.985398 -0.824231 0
M  V30 40 H -0.989027 -3.274408 -2.884256 0
M  V30 41 H -2.182464 -2.099258 -3.695107 0
M  V30 42 H 0.477871 -1.453744 -2.470011 0
M  V30 43 H -0.202427 -1.224326 -5.432644 0
M  V30 44 H 1.840928 -1.739222 -6.790097 0
M  V30 45 H 2.943708 -2.942840 -5.908900 0
M  V30 46 H 3.249918 -1.194719 -5.840798 0
M  V30 47 H -1.774794 0.109647 -3.879371 0
M  V30 48 H -0.435000 0.947464 -2.940519 0
M  V30 49 H -0.554771 -0.562072 2.470196 0
M  V30 END ATOM
M  V30 BEGIN BOND
M  V30 1 1 1 2
M  V30 2 1 2 3
M  V30 3 2 3 4
M  V30 4 1 4 5
M  V30 5 1 5 6
M  V30 6 2 5 7
M  V30 7 1 7 8
M  V30 8 2 8 9
M  V30 9 1 9 10
M  V30 10 2 10 11
M  V30 11 1 11 12
M  V30 12 2 12 13
M  V30 13 1 13 14
M  V30 14 1 14 15
M  V30 15 1 15 16
M  V30 16 2 16 17
M  V30 17 1 16 18
M  V30 18 1 18 19
M  V30 19 1 19 20
M  V30 20 1 20 21
M  V30 21 1 21 22
M  V30 22 1 22 23
M  V30 23 1 23 24
M  V30 24 2 23 25
M  V30 25 1 21 26
M  V30 26 2 14 27
M  V30 27 1 9 3
M  V30 28 1 27 10
M  V30 29 1 26 18
M  V30 30 1 1 28
M  V30 31 1 1 29
M  V30 32 1 1 30
M  V30 33 1 4 31
M  V30 34 1 7 32
M  V30 35 1 8 33
M  V30 36 1 11 34
M  V30 37 1 12 35
M  V30 38 1 15 36
M  V30 39 1 18 37
M  V30 40 1 19 38
M  V30 41 1 19 39
M  V30 42 1 20 40
M  V30 43 1 20 41
M  V30 44 1 21 42
M  V30 45 1 22 43
M  V30 46 1 24 44
M  V30 47 1 24 45
M  V30 48 1 24 46
M  V30 49 1 26 47
M  V30 50 1 26 48
M  V30 51 1 27 49
M  V30 END BOND
M  V30 END CTAB
M  END
>  <Dataset>  (393) 
ChEMBL_Kinases

>  <Ligand_Instance>  (393) 
nan

>  <PDB_ID>  (393) 
nan

>  <Standardized_SMILES>  (393) 
COc1cc(F)ccc1-c1ccnc(NC(=O)C2CCC(NC(C)=O)C2)c1

>  <Name>  (393) 
nan

>  <Pocket>  (393) 
nan

>  <ATP_Site>  (393) 
nan

>  <Peripheral>  (393) 
nan

>  <Num_H_Atoms_ProtBoundConf>  (393) 
nan

>  <Num_Resolved_Atoms>  (393) 
nan

>  <Num_Not_Resolved_Atoms>  (393) 
nan

$$$$
CHEMBL440084
     RDKit          3D

  0  0  0  0  0  0  0  0  0  0999 V3000
M  V30 BEGIN CTAB
M  V30 COUNTS 45 49 0 0 0
M  V30 BEGIN ATOM
M  V30 1 N -0.413491 -4.476255 7.228991 0
M  V30 2 C 0.541548 -3.454454 6.985106 0
M  V30 3 O 1.360545 -3.217283 7.906448 0
M  V30 4 C 0.579623 -2.705450 5.722169 0
M  V30 5 C 1.552487 -1.737253 5.584873 0
M  V30 6 C 1.600541 -1.018166 4.390409 0
M  V30 7 C 0.670997 -1.302596 3.387927 0
M  V30 8 C 0.707204 -0.560278 2.131090 0
M  V30 9 N 1.560753 0.418892 1.789435 0
M  V30 10 C 1.243946 0.827272 0.547662 0
M  V30 11 C 1.869118 1.864428 -0.256989 0
M  V30 12 C 1.256766 3.054274 -0.585727 0
M  V30 13 C 1.832594 4.052618 -1.355026 0
M  V30 14 C 3.120584 3.810712 -1.815477 0
M  V30 15 C 3.691722 2.599553 -1.457389 0
M  V30 16 N 3.115845 1.650963 -0.713189 0
M  V30 17 C 0.169639 0.110479 0.062896 0
M  V30 18 C -0.608518 0.086517 -1.172348 0
M  V30 19 C -1.430270 1.039139 -1.738041 0
M  V30 20 C -2.063308 0.771647 -2.934652 0
M  V30 21 C -1.888862 -0.435514 -3.578118 0
M  V30 22 C -1.073627 -1.400889 -3.032342 0
M  V30 23 C -0.429236 -1.141408 -1.823934 0
M  V30 24 O -1.108239 -2.492627 -3.915627 0
M  V30 25 C -2.288436 -2.385161 -4.724084 0
M  V30 26 O -2.393491 -0.955768 -4.764894 0
M  V30 27 N -0.141726 -0.748916 1.078150 0
M  V30 28 C -0.279455 -2.280877 3.579628 0
M  V30 29 C -0.359129 -3.022457 4.763014 0
M  V30 30 H -0.909756 -4.562730 8.145686 0
M  V30 31 H -0.838384 -5.288545 6.703486 0
M  V30 32 H 2.257818 -1.542512 6.382538 0
M  V30 33 H 2.347908 -0.258891 4.257891 0
M  V30 34 H 0.258807 3.259428 -0.232782 0
M  V30 35 H 1.318924 4.971538 -1.591860 0
M  V30 36 H 3.635077 4.543080 -2.421649 0
M  V30 37 H 4.704560 2.475131 -1.854086 0
M  V30 38 H -1.487752 1.928177 -1.148404 0
M  V30 39 H -2.692441 1.556597 -3.327226 0
M  V30 40 H 0.188550 -1.980665 -1.492728 0
M  V30 41 H -3.108323 -2.798676 -4.096388 0
M  V30 42 H -2.183441 -2.822557 -5.712605 0
M  V30 43 H -0.914562 -1.474365 1.101641 0
M  V30 44 H -1.029793 -2.545613 2.830876 0
M  V30 45 H -1.114484 -3.783545 4.885795 0
M  V30 END ATOM
M  V30 BEGIN BOND
M  V30 1 1 1 2
M  V30 2 2 2 3
M  V30 3 1 2 4
M  V30 4 2 4 5
M  V30 5 1 5 6
M  V30 6 2 6 7
M  V30 7 1 7 8
M  V30 8 2 8 9
M  V30 9 1 9 10
M  V30 10 1 10 11
M  V30 11 2 11 12
M  V30 12 1 12 13
M  V30 13 2 13 14
M  V30 14 1 14 15
M  V30 15 2 15 16
M  V30 16 2 10 17
M  V30 17 1 17 18
M  V30 18 2 18 19
M  V30 19 1 19 20
M  V30 20 2 20 21
M  V30 21 1 21 22
M  V30 22 2 22 23
M  V30 23 1 22 24
M  V30 24 1 24 25
M  V30 25 1 25 26
M  V30 26 1 17 27
M  V30 27 1 7 28
M  V30 28 2 28 29
M  V30 29 1 29 4
M  V30 30 1 27 8
M  V30 31 1 16 11
M  V30 32 1 23 18
M  V30 33 1 26 21
M  V30 34 1 1 30
M  V30 35 1 1 31
M  V30 36 1 5 32
M  V30 37 1 6 33
M  V30 38 1 12 34
M  V30 39 1 13 35
M  V30 40 1 14 36
M  V30 41 1 15 37
M  V30 42 1 19 38
M  V30 43 1 20 39
M  V30 44 1 23 40
M  V30 45 1 25 41
M  V30 46 1 25 42
M  V30 47 1 27 43
M  V30 48 1 28 44
M  V30 49 1 29 45
M  V30 END BOND
M  V30 END CTAB
M  END
>  <Dataset>  (394) 
ChEMBL_Kinases

>  <Ligand_Instance>  (394) 
nan

>  <PDB_ID>  (394) 
nan

>  <Standardized_SMILES>  (394) 
NC(=O)c1ccc(-c2nc(-c3ccccn3)c(-c3ccc4c(c3)OCO4)[nH]2)cc1

>  <Name>  (394) 
SB-431542

>  <Pocket>  (394) 
nan

>  <ATP_Site>  (394) 
nan

>  <Peripheral>  (394) 
nan

>  <Num_H_Atoms_ProtBoundConf>  (394) 
nan

>  <Num_Resolved_Atoms>  (394) 
nan

>  <Num_Not_Resolved_Atoms>  (394) 
nan

$$$$
CHEMBL2426391
     RDKit          3D

  0  0  0  0  0  0  0  0  0  0999 V3000
M  V30 BEGIN CTAB
M  V30 COUNTS 51 54 0 0 0
M  V30 BEGIN ATOM
M  V30 1 C 3.949527 -3.070638 5.152099 0
M  V30 2 O 3.883738 -3.339394 3.785280 0
M  V30 3 C 3.916661 -2.397683 2.776959 0
M  V30 4 C 4.025796 -1.027127 2.959936 0
M  V30 5 C 4.045285 -0.184567 1.870686 0
M  V30 6 C 3.953058 -0.719318 0.581186 0
M  V30 7 N 3.946057 0.040492 -0.624735 0
M  V30 8 C 3.041566 0.710676 -1.473318 0
M  V30 9 S 3.713866 1.461628 -2.772164 0
M  V30 10 N 1.644360 0.883927 -1.422028 0
M  V30 11 C 0.738812 0.390051 -0.464869 0
M  V30 12 O 1.174022 -0.317499 0.512897 0
M  V30 13 C -0.681437 0.418860 -0.187842 0
M  V30 14 C -1.396005 1.433807 0.445377 0
M  V30 15 N -2.686852 1.081198 0.513526 0
M  V30 16 C -3.823450 1.745772 1.059241 0
M  V30 17 C -4.093510 1.487910 2.403558 0
M  V30 18 C -5.165897 2.060666 3.085993 0
M  V30 19 C -5.975978 2.917987 2.357581 0
M  V30 20 C -5.713422 3.175790 1.029692 0
M  V30 21 C -4.649258 2.602363 0.371563 0
M  V30 22 N -2.842941 -0.111926 -0.044859 0
M  V30 23 C -1.631376 -0.556227 -0.490118 0
M  V30 24 C -1.364358 -1.826295 -1.158144 0
M  V30 25 C -1.862591 -3.047581 -0.745218 0
M  V30 26 C -1.606712 -4.241910 -1.372948 0
M  V30 27 C -0.798213 -4.200711 -2.485481 0
M  V30 28 F -0.511379 -5.340029 -3.145465 0
M  V30 29 C -0.238355 -3.030985 -2.994708 0
M  V30 30 C -0.567104 -1.899053 -2.280321 0
M  V30 31 C 3.844769 -2.098334 0.425234 0
M  V30 32 C 3.825552 -2.963612 1.522085 0
M  V30 33 H 2.944719 -3.274758 5.631660 0
M  V30 34 H 4.255499 -2.039934 5.417487 0
M  V30 35 H 4.701839 -3.757633 5.600909 0
M  V30 36 H 4.091065 -0.642461 3.962777 0
M  V30 37 H 4.126439 0.874969 1.948613 0
M  V30 38 H 4.962233 -0.015379 -0.809270 0
M  V30 39 H 1.061936 1.415121 -2.099314 0
M  V30 40 H -1.006064 2.383547 0.837654 0
M  V30 41 H -3.464635 0.823337 2.978894 0
M  V30 42 H -5.320612 1.824958 4.125175 0
M  V30 43 H -6.815942 3.382428 2.852532 0
M  V30 44 H -6.320795 3.837679 0.426513 0
M  V30 45 H -4.333526 2.723533 -0.650956 0
M  V30 46 H -2.500930 -3.041617 0.141877 0
M  V30 47 H -2.016314 -5.179641 -1.018949 0
M  V30 48 H 0.404425 -2.976378 -3.867392 0
M  V30 49 H -0.130752 -0.965086 -2.668532 0
M  V30 50 H 3.775816 -2.529637 -0.578625 0
M  V30 51 H 3.739074 -4.007994 1.302933 0
M  V30 END ATOM
M  V30 BEGIN BOND
M  V30 1 1 1 2
M  V30 2 1 2 3
M  V30 3 2 3 4
M  V30 4 1 4 5
M  V30 5 2 5 6
M  V30 6 1 6 7
M  V30 7 1 7 8
M  V30 8 2 8 9
M  V30 9 1 8 10
M  V30 10 1 10 11
M  V30 11 2 11 12
M  V30 12 1 11 13
M  V30 13 2 13 14
M  V30 14 1 14 15
M  V30 15 1 15 16
M  V30 16 2 16 17
M  V30 17 1 17 18
M  V30 18 2 18 19
M  V30 19 1 19 20
M  V30 20 2 20 21
M  V30 21 1 15 22
M  V30 22 2 22 23
M  V30 23 1 23 24
M  V30 24 2 24 25
M  V30 25 1 25 26
M  V30 26 2 26 27
M  V30 27 1 27 28
M  V30 28 1 27 29
M  V30 29 2 29 30
M  V30 30 1 6 31
M  V30 31 2 31 32
M  V30 32 1 32 3
M  V30 33 1 23 13
M  V30 34 1 30 24
M  V30 35 1 21 16
M  V30 36 1 1 33
M  V30 37 1 1 34
M  V30 38 1 1 35
M  V30 39 1 4 36
M  V30 40 1 5 37
M  V30 41 1 7 38
M  V30 42 1 10 39
M  V30 43 1 14 40
M  V30 44 1 17 41
M  V30 45 1 18 42
M  V30 46 1 19 43
M  V30 47 1 20 44
M  V30 48 1 21 45
M  V30 49 1 25 46
M  V30 50 1 26 47
M  V30 51 1 29 48
M  V30 52 1 30 49
M  V30 53 1 31 50
M  V30 54 1 32 51
M  V30 END BOND
M  V30 END CTAB
M  END
>  <Dataset>  (395) 
ChEMBL_Kinases

>  <Ligand_Instance>  (395) 
nan

>  <PDB_ID>  (395) 
nan

>  <Standardized_SMILES>  (395) 
COc1ccc(NC(=S)NC(=O)c2cn(-c3ccccc3)nc2-c2ccc(F)cc2)cc1

>  <Name>  (395) 
nan

>  <Pocket>  (395) 
nan

>  <ATP_Site>  (395) 
nan

>  <Peripheral>  (395) 
nan

>  <Num_H_Atoms_ProtBoundConf>  (395) 
nan

>  <Num_Resolved_Atoms>  (395) 
nan

>  <Num_Not_Resolved_Atoms>  (395) 
nan

$$$$
CHEMBL1801932
     RDKit          3D

  0  0  0  0  0  0  0  0  0  0999 V3000
M  V30 BEGIN CTAB
M  V30 COUNTS 60 62 0 0 0
M  V30 BEGIN ATOM
M  V30 1 C 0.034782 0.083552 -3.375682 0
M  V30 2 C 0.448048 1.171261 -2.419820 0
M  V30 3 C -0.695060 2.112483 -2.109787 0
M  V30 4 C 1.002959 0.617226 -1.156830 0
M  V30 5 C 2.357584 0.425877 -0.884550 0
M  V30 6 N 2.501846 -0.089297 0.372144 0
M  V30 7 N 1.294962 -0.230488 0.902761 0
M  V30 8 C 0.949904 -0.701764 2.114855 0
M  V30 9 N 1.879796 -1.139673 3.085039 0
M  V30 10 C 2.395982 -0.351232 4.186033 0
M  V30 11 C 3.069432 0.893567 3.763156 0
M  V30 12 C 4.393834 1.108043 3.439841 0
M  V30 13 C 4.816797 2.373027 3.072174 0
M  V30 14 C 3.955345 3.443320 3.015319 0
M  V30 15 C 2.618500 3.262150 3.333906 0
M  V30 16 C 2.211675 1.996326 3.698235 0
M  V30 17 C -0.400703 -0.735339 2.388601 0
M  V30 18 C -1.333806 -0.307454 1.464423 0
M  V30 19 N -2.731941 -0.330270 1.738513 0
M  V30 20 C -3.268323 -1.642457 1.461783 0
M  V30 21 C -3.051085 -2.027996 0.038588 0
M  V30 22 C -3.610073 -3.419579 -0.262123 0
M  V30 23 C -3.385132 -3.788069 -1.682277 0
M  V30 24 C -1.944847 -3.817055 -2.102112 0
M  V30 25 C -1.091423 -4.770200 -1.342132 0
M  V30 26 N -1.555006 -6.114504 -1.475547 0
M  V30 27 N -0.930993 0.153904 0.269074 0
M  V30 28 C 0.383576 0.186485 0.003818 0
M  V30 29 H -1.030473 -0.236005 -3.233939 0
M  V30 30 H 0.650312 -0.824896 -3.182432 0
M  V30 31 H 0.133994 0.393027 -4.434885 0
M  V30 32 H 1.262546 1.747357 -2.924593 0
M  V30 33 H -1.058934 2.643664 -3.000259 0
M  V30 34 H -1.482874 1.528042 -1.592022 0
M  V30 35 H -0.272125 2.858113 -1.374337 0
M  V30 36 H 3.212092 0.622164 -1.502005 0
M  V30 37 H 2.054788 -2.135631 2.769513 0
M  V30 38 H 1.622945 -0.139813 4.946299 0
M  V30 39 H 3.163837 -0.969276 4.705707 0
M  V30 40 H 4.996546 0.212824 3.512300 0
M  V30 41 H 5.883384 2.459346 2.829888 0
M  V30 42 H 4.308597 4.426108 2.723904 0
M  V30 43 H 1.943534 4.104450 3.287514 0
M  V30 44 H 1.145065 1.938300 3.932989 0
M  V30 45 H -0.798830 -1.092111 3.325293 0
M  V30 46 H -3.316614 0.480100 2.092723 0
M  V30 47 H -4.376899 -1.612916 1.645545 0
M  V30 48 H -2.861557 -2.369008 2.189566 0
M  V30 49 H -3.524903 -1.270757 -0.613328 0
M  V30 50 H -1.974977 -2.066419 -0.237624 0
M  V30 51 H -3.281238 -4.150047 0.472425 0
M  V30 52 H -4.718762 -3.297600 -0.136303 0
M  V30 53 H -3.861467 -4.771764 -1.931188 0
M  V30 54 H -3.908373 -3.062458 -2.338411 0
M  V30 55 H -1.476264 -2.815495 -2.113571 0
M  V30 56 H -1.920588 -4.146688 -3.177088 0
M  V30 57 H -0.081740 -4.748670 -1.850023 0
M  V30 58 H -0.889995 -4.469560 -0.292205 0
M  V30 59 H -2.316519 -6.262282 -2.156899 0
M  V30 60 H -1.584465 -6.678911 -0.615089 0
M  V30 END ATOM
M  V30 BEGIN BOND
M  V30 1 1 1 2
M  V30 2 1 2 3
M  V30 3 1 2 4
M  V30 4 1 4 5
M  V30 5 2 5 6
M  V30 6 1 6 7
M  V30 7 1 7 8
M  V30 8 1 8 9
M  V30 9 1 9 10
M  V30 10 1 10 11
M  V30 11 2 11 12
M  V30 12 1 12 13
M  V30 13 2 13 14
M  V30 14 1 14 15
M  V30 15 2 15 16
M  V30 16 2 8 17
M  V30 17 1 17 18
M  V30 18 1 18 19
M  V30 19 1 19 20
M  V30 20 1 20 21
M  V30 21 1 21 22
M  V30 22 1 22 23
M  V30 23 1 23 24
M  V30 24 1 24 25
M  V30 25 1 25 26
M  V30 26 2 18 27
M  V30 27 1 27 28
M  V30 28 2 28 4
M  V30 29 1 28 7
M  V30 30 1 16 11
M  V30 31 1 1 29
M  V30 32 1 1 30
M  V30 33 1 1 31
M  V30 34 1 2 32
M  V30 35 1 3 33
M  V30 36 1 3 34
M  V30 37 1 3 35
M  V30 38 1 5 36
M  V30 39 1 9 37
M  V30 40 1 10 38
M  V30 41 1 10 39
M  V30 42 1 12 40
M  V30 43 1 13 41
M  V30 44 1 14 42
M  V30 45 1 15 43
M  V30 46 1 16 44
M  V30 47 1 17 45
M  V30 48 1 19 46
M  V30 49 1 20 47
M  V30 50 1 20 48
M  V30 51 1 21 49
M  V30 52 1 21 50
M  V30 53 1 22 51
M  V30 54 1 22 52
M  V30 55 1 23 53
M  V30 56 1 23 54
M  V30 57 1 24 55
M  V30 58 1 24 56
M  V30 59 1 25 57
M  V30 60 1 25 58
M  V30 61 1 26 59
M  V30 62 1 26 60
M  V30 END BOND
M  V30 END CTAB
M  END
>  <Dataset>  (396) 
ChEMBL_Kinases

>  <Ligand_Instance>  (396) 
nan

>  <PDB_ID>  (396) 
nan

>  <Standardized_SMILES>  (396) 
CC(C)c1cnn2c(NCc3ccccc3)cc(NCCCCCCN)nc12

>  <Name>  (396) 
nan

>  <Pocket>  (396) 
nan

>  <ATP_Site>  (396) 
nan

>  <Peripheral>  (396) 
nan

>  <Num_H_Atoms_ProtBoundConf>  (396) 
nan

>  <Num_Resolved_Atoms>  (396) 
nan

>  <Num_Not_Resolved_Atoms>  (396) 
nan

$$$$
CHEMBL4455718
     RDKit          3D

  0  0  0  0  0  0  0  0  0  0999 V3000
M  V30 BEGIN CTAB
M  V30 COUNTS 55 58 0 0 0
M  V30 BEGIN ATOM
M  V30 1 C -1.075008 -4.829764 3.440886 0
M  V30 2 O -0.221432 -4.503353 2.335724 0
M  V30 3 C 0.899452 -3.697403 2.518388 0
M  V30 4 O 0.979747 -3.363201 3.728361 0
M  V30 5 N 1.796113 -3.326216 1.480159 0
M  V30 6 C 2.907449 -2.482346 1.854185 0
M  V30 7 C 3.645226 -1.909703 0.696555 0
M  V30 8 N 2.934727 -2.001877 -0.556438 0
M  V30 9 C 1.791887 -1.125176 -0.629025 0 CFG=1
M  V30 10 C 2.123917 0.304979 -0.458655 0
M  V30 11 C 1.273238 1.323797 -1.082838 0
M  V30 12 C 0.036578 0.916120 -1.791418 0 CFG=2
M  V30 13 N -1.175304 1.572839 -1.301870 0
M  V30 14 C -1.462349 1.333570 0.082326 0
M  V30 15 N -0.656557 0.572166 0.800455 0
M  V30 16 C -0.946876 0.359262 2.107696 0
M  V30 17 N -2.018800 0.877691 2.741567 0
M  V30 18 C -2.869687 1.661850 2.047011 0
M  V30 19 C -3.974146 2.207274 2.663591 0
M  V30 20 C -4.832532 3.007254 1.933814 0
M  V30 21 C -4.560848 3.237036 0.612189 0
M  V30 22 C -5.478891 4.073873 -0.109274 0
M  V30 23 N -6.221889 4.763018 -0.707593 0
M  V30 24 C -3.447166 2.674842 0.029855 0
M  V30 25 C -2.566194 1.872620 0.718436 0
M  V30 26 C -0.169292 -0.573352 -1.902925 0
M  V30 27 C 1.142186 -1.321862 -1.978872 0
M  V30 28 C 2.579763 -3.385905 -0.749117 0
M  V30 29 C 1.482800 -3.844546 0.160172 0
M  V30 30 H -1.180008 -3.951961 4.101098 0
M  V30 31 H -2.080048 -4.976330 2.970001 0
M  V30 32 H -0.748628 -5.741607 3.945856 0
M  V30 33 H 3.602247 -3.096431 2.461666 0
M  V30 34 H 2.585317 -1.662369 2.549676 0
M  V30 35 H 3.967573 -0.894309 0.944469 0
M  V30 36 H 4.580996 -2.487100 0.543833 0
M  V30 37 H 1.067445 -1.513543 0.113999 0
M  V30 38 H 3.175338 0.429411 -0.864163 0
M  V30 39 H 2.273672 0.462131 0.654147 0
M  V30 40 H 0.923462 2.006005 -0.245397 0
M  V30 41 H 1.882082 2.050555 -1.706003 0
M  V30 42 H 0.142352 1.251638 -2.860535 0
M  V30 43 H -1.747387 2.156074 -1.949553 0
M  V30 44 H -0.272250 -0.271888 2.688645 0
M  V30 45 H -4.111623 1.976786 3.699452 0
M  V30 46 H -5.700709 3.434737 2.422583 0
M  V30 47 H -3.309910 2.904796 -1.003981 0
M  V30 48 H -0.716677 -0.961383 -1.019824 0
M  V30 49 H -0.758559 -0.855462 -2.800030 0
M  V30 50 H 0.870496 -2.377580 -2.177908 0
M  V30 51 H 1.766303 -0.986357 -2.824646 0
M  V30 52 H 3.488566 -3.977597 -0.457049 0
M  V30 53 H 2.349681 -3.683757 -1.769117 0
M  V30 54 H 1.513115 -4.973467 0.160862 0
M  V30 55 H 0.466126 -3.595415 -0.154177 0
M  V30 END ATOM
M  V30 BEGIN BOND
M  V30 1 1 1 2
M  V30 2 1 2 3
M  V30 3 2 3 4
M  V30 4 1 3 5
M  V30 5 1 5 6
M  V30 6 1 6 7
M  V30 7 1 7 8
M  V30 8 1 8 9
M  V30 9 1 9 10
M  V30 10 1 10 11
M  V30 11 1 11 12
M  V30 12 1 12 13
M  V30 13 1 13 14
M  V30 14 2 14 15
M  V30 15 1 15 16
M  V30 16 2 16 17
M  V30 17 1 17 18
M  V30 18 2 18 19
M  V30 19 1 19 20
M  V30 20 2 20 21
M  V30 21 1 21 22
M  V30 22 3 22 23
M  V30 23 1 21 24
M  V30 24 2 24 25
M  V30 25 1 12 26
M  V30 26 1 26 27
M  V30 27 1 8 28
M  V30 28 1 28 29
M  V30 29 1 29 5
M  V30 30 1 27 9
M  V30 31 1 25 14
M  V30 32 1 25 18
M  V30 33 1 1 30
M  V30 34 1 1 31
M  V30 35 1 1 32
M  V30 36 1 6 33
M  V30 37 1 6 34
M  V30 38 1 7 35
M  V30 39 1 7 36
M  V30 40 1 9 37 CFG=1
M  V30 41 1 10 38
M  V30 42 1 10 39
M  V30 43 1 11 40
M  V30 44 1 11 41
M  V30 45 1 12 42 CFG=3
M  V30 46 1 13 43
M  V30 47 1 16 44
M  V30 48 1 19 45
M  V30 49 1 20 46
M  V30 50 1 24 47
M  V30 51 1 26 48
M  V30 52 1 26 49
M  V30 53 1 27 50
M  V30 54 1 27 51
M  V30 55 1 28 52
M  V30 56 1 28 53
M  V30 57 1 29 54
M  V30 58 1 29 55
M  V30 END BOND
M  V30 END CTAB
M  END
>  <Dataset>  (397) 
ChEMBL_Kinases

>  <Ligand_Instance>  (397) 
nan

>  <PDB_ID>  (397) 
nan

>  <Standardized_SMILES>  (397) 
COC(=O)N1CCN([C@H]2CC[C@H](Nc3ncnc4ccc(C#N)cc34)CC2)CC1

>  <Name>  (397) 
nan

>  <Pocket>  (397) 
nan

>  <ATP_Site>  (397) 
nan

>  <Peripheral>  (397) 
nan

>  <Num_H_Atoms_ProtBoundConf>  (397) 
nan

>  <Num_Resolved_Atoms>  (397) 
nan

>  <Num_Not_Resolved_Atoms>  (397) 
nan

$$$$
CHEMBL1794808
     RDKit          3D

  0  0  0  0  0  0  0  0  0  0999 V3000
M  V30 BEGIN CTAB
M  V30 COUNTS 62 65 0 0 0
M  V30 BEGIN ATOM
M  V30 1 O 2.894240 2.231174 1.868482 0
M  V30 2 C 2.919472 1.321862 2.740754 0
M  V30 3 N 3.518354 0.116611 2.270145 0
M  V30 4 C 4.029812 -0.015757 0.936583 0 CFG=1
M  V30 5 C 5.497871 -0.416281 1.091315 0
M  V30 6 C 5.402515 -1.890347 1.470034 0 CFG=1
M  V30 7 O 5.661503 -2.084427 2.825016 0
M  V30 8 C 4.004955 -2.338685 1.097747 0
M  V30 9 C 3.530248 -1.243730 0.203783 0 CFG=1
M  V30 10 O 2.148198 -1.225000 -0.051548 0
M  V30 11 C 1.604824 -1.285309 -1.312317 0
M  V30 12 O 2.504030 -1.358553 -2.188642 0
M  V30 13 C 0.197591 -1.272463 -1.683352 0
M  V30 14 C -0.085216 -1.345071 -3.025404 0
M  V30 15 C -1.409896 -1.339576 -3.467213 0
M  V30 16 O -1.600005 -1.416392 -4.846108 0
M  V30 17 C -2.444139 -1.261944 -2.564560 0
M  V30 18 C -3.805284 -1.172711 -3.018978 0
M  V30 19 O -3.750726 -0.702875 -4.209325 0
M  V30 20 C -5.160797 -1.405766 -2.637194 0
M  V30 21 C -6.100678 -0.553651 -3.232648 0
M  V30 22 O -5.775214 0.478695 -4.125672 0
M  V30 23 C -7.466149 -0.649503 -2.992775 0
M  V30 24 C -7.871025 -1.634758 -2.129557 0
M  V30 25 C -7.023581 -2.513271 -1.505261 0
M  V30 26 C -5.690354 -2.348971 -1.800974 0
M  V30 27 C -4.825925 -3.414471 -1.257843 0
M  V30 28 O -3.648781 -3.838261 -1.329564 0
M  V30 29 O -5.219447 -4.378135 -0.359328 0
M  V30 30 C -2.060496 -1.189645 -1.219720 0
M  V30 31 O -3.012755 -1.096510 -0.191769 0
M  V30 32 C -0.780210 -1.191171 -0.718378 0
M  V30 33 C 2.400275 1.450153 4.101206 0
M  V30 34 C 2.413397 0.466908 5.086289 0
M  V30 35 C 1.885659 0.729783 6.331688 0
M  V30 36 C 1.333838 1.953536 6.646792 0
M  V30 37 O 0.822130 2.122091 7.944194 0
M  V30 38 C 1.319641 2.927039 5.674912 0
M  V30 39 C 1.841006 2.688520 4.422526 0
M  V30 40 H 3.595878 -0.707806 2.904792 0
M  V30 41 H 3.912962 0.904326 0.331374 0
M  V30 42 H 5.975252 0.177346 1.890128 0
M  V30 43 H 5.948361 -0.310162 0.094803 0
M  V30 44 H 6.156211 -2.450634 0.876499 0
M  V30 45 H 5.470728 -3.039732 3.003254 0
M  V30 46 H 3.367094 -2.515265 1.995203 0
M  V30 47 H 4.091559 -3.300385 0.515262 0
M  V30 48 H 4.134755 -1.312236 -0.730367 0
M  V30 49 H 0.708233 -1.407345 -3.756052 0
M  V30 50 H -1.130012 -0.773283 -5.469151 0
M  V30 51 H -5.974700 1.425815 -3.800717 0
M  V30 52 H -8.197704 0.001504 -3.445989 0
M  V30 53 H -8.922854 -1.719383 -1.931822 0
M  V30 54 H -7.384565 -3.276093 -0.831388 0
M  V30 55 H -4.822025 -4.587289 0.549176 0
M  V30 56 H -3.220645 -0.159501 0.129008 0
M  V30 57 H -0.510553 -1.136947 0.304321 0
M  V30 58 H 2.856867 -0.477208 4.792039 0
M  V30 59 H 1.923165 -0.065816 7.051321 0
M  V30 60 H 1.374906 2.606304 8.647526 0
M  V30 61 H 0.878025 3.871763 5.963115 0
M  V30 62 H 1.768999 3.526644 3.758037 0
M  V30 END ATOM
M  V30 BEGIN BOND
M  V30 1 2 1 2
M  V30 2 1 2 3
M  V30 3 1 3 4
M  V30 4 1 4 5
M  V30 5 1 5 6
M  V30 6 1 6 7
M  V30 7 1 6 8
M  V30 8 1 8 9
M  V30 9 1 9 10
M  V30 10 1 10 11
M  V30 11 2 11 12
M  V30 12 1 11 13
M  V30 13 2 13 14
M  V30 14 1 14 15
M  V30 15 1 15 16
M  V30 16 2 15 17
M  V30 17 1 17 18
M  V30 18 2 18 19
M  V30 19 1 18 20
M  V30 20 2 20 21
M  V30 21 1 21 22
M  V30 22 1 21 23
M  V30 23 2 23 24
M  V30 24 1 24 25
M  V30 25 2 25 26
M  V30 26 1 26 27
M  V30 27 2 27 28
M  V30 28 1 27 29
M  V30 29 1 17 30
M  V30 30 1 30 31
M  V30 31 2 30 32
M  V30 32 1 2 33
M  V30 33 2 33 34
M  V30 34 1 34 35
M  V30 35 2 35 36
M  V30 36 1 36 37
M  V30 37 1 36 38
M  V30 38 2 38 39
M  V30 39 1 9 4
M  V30 40 1 32 13
M  V30 41 1 39 33
M  V30 42 1 26 20
M  V30 43 1 3 40
M  V30 44 1 4 41 CFG=3
M  V30 45 1 5 42
M  V30 46 1 5 43
M  V30 47 1 6 44 CFG=3
M  V30 48 1 7 45
M  V30 49 1 8 46
M  V30 50 1 8 47
M  V30 51 1 9 48 CFG=3
M  V30 52 1 14 49
M  V30 53 1 16 50
M  V30 54 1 22 51
M  V30 55 1 23 52
M  V30 56 1 24 53
M  V30 57 1 25 54
M  V30 58 1 29 55
M  V30 59 1 31 56
M  V30 60 1 32 57
M  V30 61 1 34 58
M  V30 62 1 35 59
M  V30 63 1 37 60
M  V30 64 1 38 61
M  V30 65 1 39 62
M  V30 END BOND
M  V30 END CTAB
M  END
>  <Dataset>  (398) 
ChEMBL_Kinases

>  <Ligand_Instance>  (398) 
nan

>  <PDB_ID>  (398) 
nan

>  <Standardized_SMILES>  (398) 
O=C(N[C@H]1C[C@@H](O)C[C@H]1OC(=O)c1cc(O)c(C(=O)c2c(O)cccc2C(=O)O)c(O)c1)c1ccc(O)cc1

>  <Name>  (398) 
nan

>  <Pocket>  (398) 
nan

>  <ATP_Site>  (398) 
nan

>  <Peripheral>  (398) 
nan

>  <Num_H_Atoms_ProtBoundConf>  (398) 
nan

>  <Num_Resolved_Atoms>  (398) 
nan

>  <Num_Not_Resolved_Atoms>  (398) 
nan

$$$$
CHEMBL573107
     RDKit          3D

  0  0  0  0  0  0  0  0  0  0999 V3000
M  V30 BEGIN CTAB
M  V30 COUNTS 51 53 0 0 0
M  V30 BEGIN ATOM
M  V30 1 C -0.439741 -0.773218 4.233567 0
M  V30 2 C -0.075693 -0.030896 2.968436 0
M  V30 3 C 0.437477 1.332202 3.444263 0
M  V30 4 C 1.031096 -0.707669 2.205479 0
M  V30 5 C 0.721924 -2.078859 1.763680 0
M  V30 6 N -0.338079 -2.304691 0.854304 0
M  V30 7 C -0.952923 -1.287212 0.065781 0
M  V30 8 N -0.268123 -0.188109 -0.222536 0
M  V30 9 C -0.820581 0.787731 -0.961705 0
M  V30 10 N -0.061929 1.980804 -1.261407 0
M  V30 11 C 1.325672 2.052951 -0.962231 0
M  V30 12 C 1.992855 3.167771 -0.517613 0
M  V30 13 C 3.344532 3.141041 -0.291957 0
M  V30 14 F 3.960117 4.263229 0.152598 0
M  V30 15 C 4.015145 1.958388 -0.526583 0
M  V30 16 O 5.389891 2.007610 -0.276019 0
M  V30 17 C 3.374250 0.802928 -0.977189 0
M  V30 18 F 4.201515 -0.257393 -1.148833 0
M  V30 19 C 1.998688 0.858155 -1.199182 0
M  V30 20 N -2.077903 0.647432 -1.414172 0
M  V30 21 C -2.806662 -0.461924 -1.140085 0
M  V30 22 C -2.239129 -1.463361 -0.380578 0
M  V30 23 N -2.955519 -2.656591 -0.056894 0
M  V30 24 C -4.316076 -2.821344 -0.539125 0
M  V30 25 C -2.326683 -3.668827 0.732945 0
M  V30 26 O -3.027905 -4.465558 1.397133 0
M  V30 27 C -0.823214 -3.659773 0.676019 0
M  V30 28 C -0.283123 -4.368828 -0.521165 0
M  V30 29 H 0.312934 -0.547921 5.012245 0
M  V30 30 H -0.641466 -1.830343 4.080717 0
M  V30 31 H -1.412327 -0.327713 4.595967 0
M  V30 32 H -0.993363 0.163951 2.400328 0
M  V30 33 H 0.522594 2.056725 2.614111 0
M  V30 34 H -0.154949 1.707169 4.310188 0
M  V30 35 H 1.479277 1.169049 3.831558 0
M  V30 36 H 1.888480 -0.794375 2.932151 0
M  V30 37 H 1.409061 -0.009210 1.445788 0
M  V30 38 H 0.529401 -2.713128 2.670431 0
M  V30 39 H 1.663933 -2.503487 1.341090 0
M  V30 40 H -0.537873 2.803151 -1.699938 0
M  V30 41 H 1.365023 4.021617 -0.367867 0
M  V30 42 H 6.057758 1.346645 -0.671049 0
M  V30 43 H 1.660728 -0.093794 -1.546303 0
M  V30 44 H -3.817129 -0.581822 -1.497353 0
M  V30 45 H -4.585310 -3.912603 -0.431730 0
M  V30 46 H -4.989493 -2.278455 0.172561 0
M  V30 47 H -4.447636 -2.528193 -1.588299 0
M  V30 48 H -0.522366 -4.248464 1.590143 0
M  V30 49 H -1.127485 -4.657306 -1.221805 0
M  V30 50 H 0.431468 -3.810225 -1.135656 0
M  V30 51 H 0.176562 -5.363964 -0.209549 0
M  V30 END ATOM
M  V30 BEGIN BOND
M  V30 1 1 1 2
M  V30 2 1 2 3
M  V30 3 1 2 4
M  V30 4 1 4 5
M  V30 5 1 5 6
M  V30 6 1 6 7
M  V30 7 2 7 8
M  V30 8 1 8 9
M  V30 9 1 9 10
M  V30 10 1 10 11
M  V30 11 2 11 12
M  V30 12 1 12 13
M  V30 13 1 13 14
M  V30 14 2 13 15
M  V30 15 1 15 16
M  V30 16 1 15 17
M  V30 17 1 17 18
M  V30 18 2 17 19
M  V30 19 2 9 20
M  V30 20 1 20 21
M  V30 21 2 21 22
M  V30 22 1 22 23
M  V30 23 1 23 24
M  V30 24 1 23 25
M  V30 25 2 25 26
M  V30 26 1 25 27
M  V30 27 1 27 28
M  V30 28 1 27 6
M  V30 29 1 22 7
M  V30 30 1 19 11
M  V30 31 1 1 29
M  V30 32 1 1 30
M  V30 33 1 1 31
M  V30 34 1 2 32
M  V30 35 1 3 33
M  V30 36 1 3 34
M  V30 37 1 3 35
M  V30 38 1 4 36
M  V30 39 1 4 37
M  V30 40 1 5 38
M  V30 41 1 5 39
M  V30 42 1 10 40
M  V30 43 1 12 41
M  V30 44 1 16 42
M  V30 45 1 19 43
M  V30 46 1 21 44
M  V30 47 1 24 45
M  V30 48 1 24 46
M  V30 49 1 24 47
M  V30 50 1 27 48
M  V30 51 1 28 49
M  V30 52 1 28 50
M  V30 53 1 28 51
M  V30 END BOND
M  V30 END CTAB
M  END
>  <Dataset>  (399) 
ChEMBL_Kinases

>  <Ligand_Instance>  (399) 
nan

>  <PDB_ID>  (399) 
nan

>  <Standardized_SMILES>  (399) 
CC(C)CCN1c2nc(Nc3cc(F)c(O)c(F)c3)ncc2N(C)C(=O)C1C

>  <Name>  (399) 
nan

>  <Pocket>  (399) 
nan

>  <ATP_Site>  (399) 
nan

>  <Peripheral>  (399) 
nan

>  <Num_H_Atoms_ProtBoundConf>  (399) 
nan

>  <Num_Resolved_Atoms>  (399) 
nan

>  <Num_Not_Resolved_Atoms>  (399) 
nan

$$$$
CHEMBL4081668
     RDKit          3D

  0  0  0  0  0  0  0  0  0  0999 V3000
M  V30 BEGIN CTAB
M  V30 COUNTS 26 28 0 0 0
M  V30 BEGIN ATOM
M  V30 1 O -0.849928 -5.696031 1.900663 0
M  V30 2 C -0.813877 -4.626050 1.262206 0
M  V30 3 C -0.055405 -3.414953 1.459628 0
M  V30 4 C 0.805572 -3.356269 2.525966 0
M  V30 5 C 1.509338 -2.166164 2.666669 0
M  V30 6 C 1.332334 -1.127031 1.774722 0
M  V30 7 C 0.443747 -1.229510 0.701011 0
M  V30 8 C 0.243380 -0.140993 -0.252475 0
M  V30 9 C 0.176483 -0.198204 -1.632156 0
M  V30 10 N -0.020612 1.073043 -2.063958 0
M  V30 11 C -0.076045 1.900809 -0.998896 0
M  V30 12 C -0.263328 3.277580 -0.983198 0
M  V30 13 C -0.273909 3.850807 0.267845 0
M  V30 14 C -0.108003 3.094190 1.422282 0
M  V30 15 F -0.125443 3.704143 2.639302 0
M  V30 16 N 0.064439 1.769159 1.263117 0
M  V30 17 N 0.086763 1.148273 0.108624 0
M  V30 18 C -0.276271 -2.418311 0.538635 0
M  V30 19 H -1.524109 -4.812282 0.470814 0
M  V30 20 H 0.895783 -4.211213 3.188757 0
M  V30 21 H 2.202344 -2.095477 3.509962 0
M  V30 22 H 1.891430 -0.210709 1.905152 0
M  V30 23 H 0.275836 -1.133682 -2.157882 0
M  V30 24 H -0.390902 3.849812 -1.895074 0
M  V30 25 H -0.415942 4.933889 0.378095 0
M  V30 26 H -0.957717 -2.501755 -0.281666 0
M  V30 END ATOM
M  V30 BEGIN BOND
M  V30 1 2 1 2
M  V30 2 1 2 3
M  V30 3 2 3 4
M  V30 4 1 4 5
M  V30 5 2 5 6
M  V30 6 1 6 7
M  V30 7 1 7 8
M  V30 8 2 8 9
M  V30 9 1 9 10
M  V30 10 2 10 11
M  V30 11 1 11 12
M  V30 12 2 12 13
M  V30 13 1 13 14
M  V30 14 1 14 15
M  V30 15 2 14 16
M  V30 16 1 16 17
M  V30 17 2 7 18
M  V30 18 1 18 3
M  V30 19 1 17 8
M  V30 20 1 17 11
M  V30 21 1 2 19
M  V30 22 1 4 20
M  V30 23 1 5 21
M  V30 24 1 6 22
M  V30 25 1 9 23
M  V30 26 1 12 24
M  V30 27 1 13 25
M  V30 28 1 18 26
M  V30 END BOND
M  V30 END CTAB
M  END
>  <Dataset>  (400) 
ChEMBL_Kinases

>  <Ligand_Instance>  (400) 
nan

>  <PDB_ID>  (400) 
nan

>  <Standardized_SMILES>  (400) 
O=Cc1cccc(-c2cnc3ccc(F)nn23)c1

>  <Name>  (400) 
nan

>  <Pocket>  (400) 
nan

>  <ATP_Site>  (400) 
nan

>  <Peripheral>  (400) 
nan

>  <Num_H_Atoms_ProtBoundConf>  (400) 
nan

>  <Num_Resolved_Atoms>  (400) 
nan

>  <Num_Not_Resolved_Atoms>  (400) 
nan

$$$$
CHEMBL1236620
     RDKit          3D

  0  0  0  0  0  0  0  0  0  0999 V3000
M  V30 BEGIN CTAB
M  V30 COUNTS 35 36 0 0 0
M  V30 BEGIN ATOM
M  V30 1 C -1.346481 -4.145128 1.332434 0
M  V30 2 C -0.120223 -3.860070 2.201374 0
M  V30 3 O 0.804166 -3.067473 1.533855 0
M  V30 4 C 0.589781 -1.824170 1.063256 0
M  V30 5 O 0.704616 -2.951245 1.517769 0
M  V30 6 C 0.240650 -0.503283 0.618472 0
M  V30 7 C 1.083038 0.276929 -0.095009 0
M  V30 8 C 2.449912 0.292723 -0.546120 0
M  V30 9 C 2.991196 1.126263 -1.591430 0
M  V30 10 N 3.441240 1.794354 -2.461505 0
M  V30 11 C 3.426259 -0.481044 -0.118587 0
M  V30 12 N 3.308165 -1.472796 0.872080 0
M  V30 13 C 0.276357 1.361755 -0.304388 0
M  V30 14 C 0.395675 2.582075 -0.936013 0
M  V30 15 C -0.587841 3.536600 -1.002358 0
M  V30 16 C -1.797746 3.283646 -0.400423 0
M  V30 17 Cl -3.070341 4.483858 -0.467056 0
M  V30 18 C -2.017816 2.098734 0.254806 0
M  V30 19 Cl -3.567773 1.848182 0.981705 0
M  V30 20 C -0.957890 1.193585 0.267721 0
M  V30 21 N -0.979285 -0.003193 0.860544 0
M  V30 22 C -2.060172 -0.619520 1.605872 0
M  V30 23 H -1.242593 -3.569800 0.387204 0
M  V30 24 H -2.249286 -3.700617 1.840036 0
M  V30 25 H -1.465697 -5.212049 1.152786 0
M  V30 26 H 0.367885 -4.843099 2.391976 0
M  V30 27 H -0.462120 -3.410273 3.178829 0
M  V30 28 H 4.455201 -0.579340 -0.356334 0
M  V30 29 H 3.670395 -1.684981 1.817113 0
M  V30 30 H 3.670923 -1.685429 1.818660 0
M  V30 31 H 1.288476 2.890130 -1.428137 0
M  V30 32 H -0.472729 4.469823 -1.495157 0
M  V30 33 H -1.587726 -1.420727 2.235266 0
M  V30 34 H -2.519417 0.051107 2.361617 0
M  V30 35 H -2.764635 -1.126981 0.938433 0
M  V30 END ATOM
M  V30 BEGIN BOND
M  V30 1 1 1 2
M  V30 2 1 2 3
M  V30 3 1 3 4
M  V30 4 2 4 5
M  V30 5 1 4 6
M  V30 6 2 6 7
M  V30 7 1 7 8
M  V30 8 1 8 9
M  V30 9 3 9 10
M  V30 10 2 8 11
M  V30 11 1 11 12
M  V30 12 1 7 13
M  V30 13 2 13 14
M  V30 14 1 14 15
M  V30 15 2 15 16
M  V30 16 1 16 17
M  V30 17 1 16 18
M  V30 18 1 18 19
M  V30 19 2 18 20
M  V30 20 1 20 21
M  V30 21 1 21 22
M  V30 22 1 21 6
M  V30 23 1 20 13
M  V30 24 1 1 23
M  V30 25 1 1 24
M  V30 26 1 1 25
M  V30 27 1 2 26
M  V30 28 1 2 27
M  V30 29 1 11 28
M  V30 30 1 12 29
M  V30 31 1 12 30
M  V30 32 1 14 31
M  V30 33 1 15 32
M  V30 34 1 22 33
M  V30 35 1 22 34
M  V30 36 1 22 35
M  V30 END BOND
M  V30 END CTAB
M  END
>  <Dataset>  (401) 
ChEMBL_Kinases

>  <Ligand_Instance>  (401) 
nan

>  <PDB_ID>  (401) 
nan

>  <Standardized_SMILES>  (401) 
CCOC(=O)c1c(/C(C#N)=C\N)c2ccc(Cl)c(Cl)c2n1C

>  <Name>  (401) 
nan

>  <Pocket>  (401) 
nan

>  <ATP_Site>  (401) 
nan

>  <Peripheral>  (401) 
nan

>  <Num_H_Atoms_ProtBoundConf>  (401) 
nan

>  <Num_Resolved_Atoms>  (401) 
nan

>  <Num_Not_Resolved_Atoms>  (401) 
nan

$$$$
CHEMBL3589775
     RDKit          3D

  0  0  0  0  0  0  0  0  0  0999 V3000
M  V30 BEGIN CTAB
M  V30 COUNTS 29 32 0 0 0
M  V30 BEGIN ATOM
M  V30 1 O 1.730596 -1.076835 4.356318 0
M  V30 2 C 0.784285 -0.937315 3.535801 0
M  V30 3 O 0.390012 -1.043967 4.841297 0
M  V30 4 C 1.098397 -0.816263 2.135046 0
M  V30 5 N 2.403080 -0.863634 1.853863 0
M  V30 6 C 2.837695 -0.759693 0.562339 0
M  V30 7 C 4.158145 -0.796596 0.167624 0
M  V30 8 C 4.500289 -0.683224 -1.164428 0
M  V30 9 C 3.456146 -0.533917 -2.054026 0
M  V30 10 N 2.179304 -0.502071 -1.633978 0
M  V30 11 C 1.811298 -0.609632 -0.345101 0
M  V30 12 C 0.458601 -0.556541 -0.093895 0
M  V30 13 N -0.613801 -0.416515 -0.878623 0
M  V30 14 C -1.695573 -0.434320 -0.078789 0
M  V30 15 C -3.050127 -0.332681 -0.321743 0
M  V30 16 Br -3.715639 -0.115838 -2.108796 0
M  V30 17 C -3.962473 -0.386617 0.737496 0
M  V30 18 C -3.523291 -0.543683 2.056104 0
M  V30 19 C -2.167830 -0.644646 2.291933 0
M  V30 20 C -1.293541 -0.588316 1.231161 0
M  V30 21 C 0.079544 -0.666431 1.224638 0
M  V30 22 H -0.483317 -0.713708 5.237219 0
M  V30 23 H 4.856379 -0.917716 0.975349 0
M  V30 24 H 5.546370 -0.716326 -1.438501 0
M  V30 25 H 3.691436 -0.440898 -3.120688 0
M  V30 26 H -0.617968 -0.310737 -1.934600 0
M  V30 27 H -5.016525 -0.300870 0.482062 0
M  V30 28 H -4.271282 -0.579150 2.836815 0
M  V30 29 H -1.847316 -0.764259 3.296795 0
M  V30 END ATOM
M  V30 BEGIN BOND
M  V30 1 2 1 2
M  V30 2 1 2 3
M  V30 3 1 2 4
M  V30 4 2 4 5
M  V30 5 1 5 6
M  V30 6 2 6 7
M  V30 7 1 7 8
M  V30 8 2 8 9
M  V30 9 1 9 10
M  V30 10 2 10 11
M  V30 11 1 11 12
M  V30 12 1 12 13
M  V30 13 1 13 14
M  V30 14 2 14 15
M  V30 15 1 15 16
M  V30 16 1 15 17
M  V30 17 2 17 18
M  V30 18 1 18 19
M  V30 19 2 19 20
M  V30 20 1 20 21
M  V30 21 1 21 4
M  V30 22 1 11 6
M  V30 23 2 21 12
M  V30 24 1 20 14
M  V30 25 1 3 22
M  V30 26 1 7 23
M  V30 27 1 8 24
M  V30 28 1 9 25
M  V30 29 1 13 26
M  V30 30 1 17 27
M  V30 31 1 18 28
M  V30 32 1 19 29
M  V30 END BOND
M  V30 END CTAB
M  END
>  <Dataset>  (402) 
ChEMBL_Kinases

>  <Ligand_Instance>  (402) 
nan

>  <PDB_ID>  (402) 
nan

>  <Standardized_SMILES>  (402) 
O=C(O)c1nc2cccnc2c2[nH]c3c(Br)cccc3c12

>  <Name>  (402) 
nan

>  <Pocket>  (402) 
nan

>  <ATP_Site>  (402) 
nan

>  <Peripheral>  (402) 
nan

>  <Num_H_Atoms_ProtBoundConf>  (402) 
nan

>  <Num_Resolved_Atoms>  (402) 
nan

>  <Num_Not_Resolved_Atoms>  (402) 
nan

$$$$
CHEMBL3883448
     RDKit          3D

  0  0  0  0  0  0  0  0  0  0999 V3000
M  V30 BEGIN CTAB
M  V30 COUNTS 28 30 0 0 0
M  V30 BEGIN ATOM
M  V30 1 C -3.120586 -2.939384 3.946094 0
M  V30 2 O -2.946677 -1.668848 3.361588 0
M  V30 3 C -1.856435 -1.385091 2.524367 0
M  V30 4 C -1.827333 -0.097218 2.030799 0
M  V30 5 C -0.765909 0.212186 1.203516 0
M  V30 6 C 0.166895 -0.760533 0.934578 0
M  V30 7 C 1.322758 -0.758330 0.156911 0
M  V30 8 C 1.846269 0.372142 -0.610973 0
M  V30 9 C 2.259969 0.041248 -1.902107 0
M  V30 10 C 2.764060 1.073702 -2.672831 0
M  V30 11 N 2.858409 2.334750 -2.220194 0
M  V30 12 C 2.462622 2.664802 -0.977423 0
M  V30 13 C 1.948263 1.657581 -0.165135 0
M  V30 14 C 1.913687 -2.014643 0.222140 0
M  V30 15 N 1.145441 -2.782409 1.021062 0
M  V30 16 C 0.101225 -2.052735 1.454320 0
M  V30 17 N -0.949953 -2.343706 2.267927 0
M  V30 18 H -2.566244 -3.667807 3.297464 0
M  V30 19 H -4.189104 -3.251275 3.974419 0
M  V30 20 H -2.687512 -3.034970 4.949487 0
M  V30 21 H -2.569625 0.642692 2.257390 0
M  V30 22 H -0.709902 1.211622 0.797988 0
M  V30 23 H 2.230689 -0.937835 -2.371118 0
M  V30 24 H 3.114386 0.916919 -3.697178 0
M  V30 25 H 2.498673 3.643319 -0.526835 0
M  V30 26 H 1.609056 1.828288 0.837294 0
M  V30 27 H 2.820226 -2.364926 -0.258224 0
M  V30 28 H 1.332254 -3.792529 1.267282 0
M  V30 END ATOM
M  V30 BEGIN BOND
M  V30 1 1 1 2
M  V30 2 1 2 3
M  V30 3 2 3 4
M  V30 4 1 4 5
M  V30 5 2 5 6
M  V30 6 1 6 7
M  V30 7 1 7 8
M  V30 8 2 8 9
M  V30 9 1 9 10
M  V30 10 2 10 11
M  V30 11 1 11 12
M  V30 12 2 12 13
M  V30 13 2 7 14
M  V30 14 1 14 15
M  V30 15 1 15 16
M  V30 16 2 16 17
M  V30 17 1 17 3
M  V30 18 1 16 6
M  V30 19 1 13 8
M  V30 20 1 1 18
M  V30 21 1 1 19
M  V30 22 1 1 20
M  V30 23 1 4 21
M  V30 24 1 5 22
M  V30 25 1 9 23
M  V30 26 1 10 24
M  V30 27 1 12 25
M  V30 28 1 13 26
M  V30 29 1 14 27
M  V30 30 1 15 28
M  V30 END BOND
M  V30 END CTAB
M  END
>  <Dataset>  (403) 
ChEMBL_Kinases

>  <Ligand_Instance>  (403) 
nan

>  <PDB_ID>  (403) 
nan

>  <Standardized_SMILES>  (403) 
COc1ccc2c(-c3ccncc3)c[nH]c2n1

>  <Name>  (403) 
nan

>  <Pocket>  (403) 
nan

>  <ATP_Site>  (403) 
nan

>  <Peripheral>  (403) 
nan

>  <Num_H_Atoms_ProtBoundConf>  (403) 
nan

>  <Num_Resolved_Atoms>  (403) 
nan

>  <Num_Not_Resolved_Atoms>  (403) 
nan

$$$$
CHEMBL3883639
     RDKit          3D

  0  0  0  0  0  0  0  0  0  0999 V3000
M  V30 BEGIN CTAB
M  V30 COUNTS 32 35 0 0 0
M  V30 BEGIN ATOM
M  V30 1 C -1.634683 -3.399853 4.533033 0
M  V30 2 O -1.182489 -4.089303 3.386093 0
M  V30 3 C -0.690892 -3.404047 2.291208 0
M  V30 4 C -0.282328 -4.194769 1.237164 0
M  V30 5 C 0.219199 -3.596982 0.109432 0
M  V30 6 C 0.327387 -2.229489 -0.002637 0
M  V30 7 N 0.777658 -1.418068 -0.986031 0
M  V30 8 C 0.660129 -0.143092 -0.571871 0
M  V30 9 C 0.970125 1.048599 -1.181861 0
M  V30 10 C 1.507626 1.042254 -2.459016 0
M  V30 11 C 1.792512 2.280024 -3.004481 0
M  V30 12 N 1.575725 3.462746 -2.364375 0
M  V30 13 C 1.055204 3.503313 -1.123918 0
M  V30 14 C 0.775924 2.266556 -0.591663 0
M  V30 15 C 0.231706 2.207419 0.694529 0
M  V30 16 C -0.100803 1.041788 1.360746 0
M  V30 17 C -0.648827 1.118844 2.670384 0
M  V30 18 N -1.092051 1.201386 3.730967 0
M  V30 19 C 0.127732 -0.122247 0.694714 0
M  V30 20 C -0.080322 -1.430571 1.050241 0
M  V30 21 C -0.583110 -2.036058 2.180151 0
M  V30 22 H -1.729738 -4.157714 5.348430 0
M  V30 23 H -0.951781 -2.584054 4.845362 0
M  V30 24 H -2.632458 -2.996016 4.315034 0
M  V30 25 H -0.335963 -5.279660 1.249590 0
M  V30 26 H 0.543706 -4.210496 -0.726201 0
M  V30 27 H 1.145785 -1.771353 -1.897721 0
M  V30 28 H 1.705056 0.160156 -3.021307 0
M  V30 29 H 2.219269 2.296107 -4.016252 0
M  V30 30 H 0.874634 4.420331 -0.597950 0
M  V30 31 H 0.056597 3.161207 1.211388 0
M  V30 32 H -0.922642 -1.491254 3.044195 0
M  V30 END ATOM
M  V30 BEGIN BOND
M  V30 1 1 1 2
M  V30 2 1 2 3
M  V30 3 2 3 4
M  V30 4 1 4 5
M  V30 5 2 5 6
M  V30 6 1 6 7
M  V30 7 1 7 8
M  V30 8 2 8 9
M  V30 9 1 9 10
M  V30 10 2 10 11
M  V30 11 1 11 12
M  V30 12 2 12 13
M  V30 13 1 13 14
M  V30 14 2 14 15
M  V30 15 1 15 16
M  V30 16 1 16 17
M  V30 17 3 17 18
M  V30 18 2 16 19
M  V30 19 1 19 20
M  V30 20 2 20 21
M  V30 21 1 21 3
M  V30 22 1 20 6
M  V30 23 1 19 8
M  V30 24 1 14 9
M  V30 25 1 1 22
M  V30 26 1 1 23
M  V30 27 1 1 24
M  V30 28 1 4 25
M  V30 29 1 5 26
M  V30 30 1 7 27
M  V30 31 1 10 28
M  V30 32 1 11 29
M  V30 33 1 13 30
M  V30 34 1 15 31
M  V30 35 1 21 32
M  V30 END BOND
M  V30 END CTAB
M  END
>  <Dataset>  (404) 
ChEMBL_Kinases

>  <Ligand_Instance>  (404) 
nan

>  <PDB_ID>  (404) 
nan

>  <Standardized_SMILES>  (404) 
COc1ccc2[nH]c3c4ccncc4cc(C#N)c3c2c1

>  <Name>  (404) 
nan

>  <Pocket>  (404) 
nan

>  <ATP_Site>  (404) 
nan

>  <Peripheral>  (404) 
nan

>  <Num_H_Atoms_ProtBoundConf>  (404) 
nan

>  <Num_Resolved_Atoms>  (404) 
nan

>  <Num_Not_Resolved_Atoms>  (404) 
nan

$$$$
CHEMBL4740998
     RDKit          3D

  0  0  0  0  0  0  0  0  0  0999 V3000
M  V30 BEGIN CTAB
M  V30 COUNTS 41 45 0 0 0
M  V30 BEGIN ATOM
M  V30 1 C -0.884060 -4.205052 3.765913 0
M  V30 2 C 0.556611 -3.848697 3.552338 0
M  V30 3 C 0.871948 -2.956249 2.415628 0
M  V30 4 C 1.158605 -3.419667 1.147795 0
M  V30 5 C 1.457478 -2.618043 0.062357 0
M  V30 6 C 1.461170 -1.238215 0.301053 0
M  V30 7 C 1.780389 -0.412752 -0.863855 0
M  V30 8 C 2.794864 -0.616150 -1.780177 0
M  V30 9 O 2.754298 0.345385 -2.683106 0
M  V30 10 C 1.766092 1.172231 -2.410109 0
M  V30 11 C 1.277530 2.320794 -3.004188 0
M  V30 12 C 0.197493 3.026544 -2.510763 0
M  V30 13 C -0.427892 2.548494 -1.351203 0
M  V30 14 C -1.575384 3.275213 -0.804187 0
M  V30 15 C -2.127542 4.426668 -1.331102 0
M  V30 16 N -3.144177 4.718254 -0.499317 0
M  V30 17 N -3.212595 3.822869 0.458391 0
M  V30 18 C -2.244671 2.866925 0.334944 0
M  V30 19 N 0.069693 1.426764 -0.793500 0
M  V30 20 C 1.109313 0.732993 -1.254237 0
M  V30 21 C 1.183701 -0.700168 1.544711 0
M  V30 22 C 0.897161 -1.584416 2.564062 0
M  V30 23 C 1.321148 -3.523594 4.862880 0
M  V30 24 C 1.638779 -4.740914 4.044751 0
M  V30 25 H -1.187660 -4.069620 4.813493 0
M  V30 26 H -1.508590 -3.533089 3.137663 0
M  V30 27 H -1.093197 -5.269796 3.505491 0
M  V30 28 H 1.150526 -4.486561 0.984804 0
M  V30 29 H 1.675305 -3.021392 -0.910475 0
M  V30 30 H 3.491762 -1.441638 -1.733831 0
M  V30 31 H 1.770659 2.684687 -3.905655 0
M  V30 32 H -0.183733 3.933178 -2.984583 0
M  V30 33 H -1.838951 4.989089 -2.203054 0
M  V30 34 H -3.918563 3.808087 1.250104 0
M  V30 35 H -2.080142 2.023990 0.984530 0
M  V30 36 H 1.199194 0.372925 1.678270 0
M  V30 37 H 0.680605 -1.159977 3.535563 0
M  V30 38 H 0.772479 -3.649266 5.811721 0
M  V30 39 H 1.965212 -2.634432 4.845808 0
M  V30 40 H 1.373508 -5.742652 4.468019 0
M  V30 41 H 2.604467 -4.718802 3.508133 0
M  V30 END ATOM
M  V30 BEGIN BOND
M  V30 1 1 1 2
M  V30 2 1 2 3
M  V30 3 2 3 4
M  V30 4 1 4 5
M  V30 5 2 5 6
M  V30 6 1 6 7
M  V30 7 2 7 8
M  V30 8 1 8 9
M  V30 9 1 9 10
M  V30 10 2 10 11
M  V30 11 1 11 12
M  V30 12 2 12 13
M  V30 13 1 13 14
M  V30 14 1 14 15
M  V30 15 2 15 16
M  V30 16 1 16 17
M  V30 17 1 17 18
M  V30 18 1 13 19
M  V30 19 2 19 20
M  V30 20 1 6 21
M  V30 21 2 21 22
M  V30 22 1 2 23
M  V30 23 1 23 24
M  V30 24 1 24 2
M  V30 25 1 22 3
M  V30 26 1 20 7
M  V30 27 1 20 10
M  V30 28 2 18 14
M  V30 29 1 1 25
M  V30 30 1 1 26
M  V30 31 1 1 27
M  V30 32 1 4 28
M  V30 33 1 5 29
M  V30 34 1 8 30
M  V30 35 1 11 31
M  V30 36 1 12 32
M  V30 37 1 15 33
M  V30 38 1 17 34
M  V30 39 1 18 35
M  V30 40 1 21 36
M  V30 41 1 22 37
M  V30 42 1 23 38
M  V30 43 1 23 39
M  V30 44 1 24 40
M  V30 45 1 24 41
M  V30 END BOND
M  V30 END CTAB
M  END
>  <Dataset>  (405) 
ChEMBL_Kinases

>  <Ligand_Instance>  (405) 
nan

>  <PDB_ID>  (405) 
nan

>  <Standardized_SMILES>  (405) 
CC1(c2ccc(-c3coc4ccc(-c5cn[nH]c5)nc34)cc2)CC1

>  <Name>  (405) 
nan

>  <Pocket>  (405) 
nan

>  <ATP_Site>  (405) 
nan

>  <Peripheral>  (405) 
nan

>  <Num_H_Atoms_ProtBoundConf>  (405) 
nan

>  <Num_Resolved_Atoms>  (405) 
nan

>  <Num_Not_Resolved_Atoms>  (405) 
nan

$$$$
CHEMBL242237
     RDKit          3D

  0  0  0  0  0  0  0  0  0  0999 V3000
M  V30 BEGIN CTAB
M  V30 COUNTS 39 41 0 0 0
M  V30 BEGIN ATOM
M  V30 1 N -0.135293 -5.577071 -1.476579 0
M  V30 2 C 0.095272 -4.192375 -1.347583 0
M  V30 3 O -0.704977 -4.059771 -2.293771 0
M  V30 4 C 0.984126 -3.627200 -0.369030 0
M  V30 5 C 1.643559 -4.473991 0.481881 0
M  V30 6 C 2.467466 -3.811133 1.370154 0
M  V30 7 C 2.618839 -2.434470 1.404828 0
M  V30 8 C 1.912646 -1.630308 0.503565 0
M  V30 9 C 1.082446 -2.258119 -0.394334 0
M  V30 10 N 0.335004 -1.505661 -1.332099 0
M  V30 11 C 0.429276 -0.091047 -1.389591 0
M  V30 12 C 0.868305 0.569944 -2.511743 0
M  V30 13 C 0.936018 1.936051 -2.480450 0
M  V30 14 N 0.576781 2.572143 -1.370130 0
M  V30 15 C 0.139549 1.980494 -0.239496 0
M  V30 16 N -0.215861 2.767746 0.886874 0
M  V30 17 C -0.666024 2.317702 2.152439 0
M  V30 18 C -0.831926 1.013213 2.548575 0
M  V30 19 C -1.269151 0.607998 3.789468 0
M  V30 20 C -1.565168 1.589307 4.710582 0
M  V30 21 C -1.419530 2.905610 4.373923 0
M  V30 22 O -1.719131 3.888927 5.307606 0
M  V30 23 C -0.979886 3.244738 3.122285 0
M  V30 24 N 0.089963 0.643744 -0.318732 0
M  V30 25 H -0.303721 -6.584469 -1.583820 0
M  V30 26 H -0.227422 -6.363739 -0.772866 0
M  V30 27 H 1.567220 -5.543596 0.501882 0
M  V30 28 H 3.045295 -4.369819 2.095608 0
M  V30 29 H 3.266806 -1.933934 2.106929 0
M  V30 30 H 2.012672 -0.562263 0.509792 0
M  V30 31 H -0.339142 -1.775747 -2.067655 0
M  V30 32 H 1.159104 0.035109 -3.405518 0
M  V30 33 H 1.275578 2.531847 -3.333522 0
M  V30 34 H -0.130744 3.809287 0.759114 0
M  V30 35 H -0.610751 0.236078 1.857366 0
M  V30 36 H -1.374665 -0.457225 4.026202 0
M  V30 37 H -1.913291 1.315520 5.698578 0
M  V30 38 H -2.628484 4.347032 5.308692 0
M  V30 39 H -0.883790 4.298643 2.916690 0
M  V30 END ATOM
M  V30 BEGIN BOND
M  V30 1 1 1 2
M  V30 2 2 2 3
M  V30 3 1 2 4
M  V30 4 2 4 5
M  V30 5 1 5 6
M  V30 6 2 6 7
M  V30 7 1 7 8
M  V30 8 2 8 9
M  V30 9 1 9 10
M  V30 10 1 10 11
M  V30 11 2 11 12
M  V30 12 1 12 13
M  V30 13 2 13 14
M  V30 14 1 14 15
M  V30 15 1 15 16
M  V30 16 1 16 17
M  V30 17 2 17 18
M  V30 18 1 18 19
M  V30 19 2 19 20
M  V30 20 1 20 21
M  V30 21 1 21 22
M  V30 22 2 21 23
M  V30 23 2 15 24
M  V30 24 1 9 4
M  V30 25 1 24 11
M  V30 26 1 23 17
M  V30 27 1 1 25
M  V30 28 1 1 26
M  V30 29 1 5 27
M  V30 30 1 6 28
M  V30 31 1 7 29
M  V30 32 1 8 30
M  V30 33 1 10 31
M  V30 34 1 12 32
M  V30 35 1 13 33
M  V30 36 1 16 34
M  V30 37 1 18 35
M  V30 38 1 19 36
M  V30 39 1 20 37
M  V30 40 1 22 38
M  V30 41 1 23 39
M  V30 END BOND
M  V30 END CTAB
M  END
>  <Dataset>  (406) 
ChEMBL_Kinases

>  <Ligand_Instance>  (406) 
nan

>  <PDB_ID>  (406) 
nan

>  <Standardized_SMILES>  (406) 
NC(=O)c1ccccc1Nc1ccnc(Nc2cccc(O)c2)n1

>  <Name>  (406) 
nan

>  <Pocket>  (406) 
nan

>  <ATP_Site>  (406) 
nan

>  <Peripheral>  (406) 
nan

>  <Num_H_Atoms_ProtBoundConf>  (406) 
nan

>  <Num_Resolved_Atoms>  (406) 
nan

>  <Num_Not_Resolved_Atoms>  (406) 
nan

$$$$
CHEMBL3883820
     RDKit          3D

  0  0  0  0  0  0  0  0  0  0999 V3000
M  V30 BEGIN CTAB
M  V30 COUNTS 28 31 0 0 0
M  V30 BEGIN ATOM
M  V30 1 N 0.473910 -4.222475 2.795514 0
M  V30 2 C 0.720074 -3.224970 2.265924 0
M  V30 3 C 1.049068 -1.993753 1.615183 0
M  V30 4 C 2.391932 -1.644004 1.578623 0
M  V30 5 C 2.805111 -0.473004 0.971609 0
M  V30 6 C 4.153451 -0.100741 0.923089 0
M  V30 7 C 4.482820 1.084965 0.297890 0
M  V30 8 N 3.538062 1.872212 -0.255303 0
M  V30 9 C 2.227260 1.547569 -0.229006 0
M  V30 10 C 1.861853 0.366795 0.389152 0
M  V30 11 C 0.504830 0.019905 0.422428 0
M  V30 12 N -0.589726 0.640877 -0.055386 0
M  V30 13 C -1.649304 -0.132006 0.251862 0
M  V30 14 C -2.997498 0.083000 -0.028609 0
M  V30 15 C -3.909505 -0.882077 0.403837 0
M  V30 16 C -3.518772 -2.016313 1.085671 0
M  V30 17 C -2.170043 -2.201161 1.349307 0
M  V30 18 C -1.247988 -1.265628 0.934608 0
M  V30 19 C 0.121588 -1.156083 1.035791 0
M  V30 20 H 3.204038 -2.238873 2.008291 0
M  V30 21 H 4.901037 -0.741868 1.371014 0
M  V30 22 H 5.523627 1.386914 0.252261 0
M  V30 23 H 1.472783 2.192170 -0.679699 0
M  V30 24 H -0.621012 1.534612 -0.559816 0
M  V30 25 H -3.396617 0.923836 -0.547060 0
M  V30 26 H -4.986640 -0.762940 0.209250 0
M  V30 27 H -4.246208 -2.757315 1.414487 0
M  V30 28 H -1.892527 -3.092633 1.881697 0
M  V30 END ATOM
M  V30 BEGIN BOND
M  V30 1 3 1 2
M  V30 2 1 2 3
M  V30 3 2 3 4
M  V30 4 1 4 5
M  V30 5 2 5 6
M  V30 6 1 6 7
M  V30 7 2 7 8
M  V30 8 1 8 9
M  V30 9 2 9 10
M  V30 10 1 10 11
M  V30 11 1 11 12
M  V30 12 1 12 13
M  V30 13 2 13 14
M  V30 14 1 14 15
M  V30 15 2 15 16
M  V30 16 1 16 17
M  V30 17 2 17 18
M  V30 18 1 18 19
M  V30 19 1 19 3
M  V30 20 1 10 5
M  V30 21 2 19 11
M  V30 22 1 18 13
M  V30 23 1 4 20
M  V30 24 1 6 21
M  V30 25 1 7 22
M  V30 26 1 9 23
M  V30 27 1 12 24
M  V30 28 1 14 25
M  V30 29 1 15 26
M  V30 30 1 16 27
M  V30 31 1 17 28
M  V30 END BOND
M  V30 END CTAB
M  END
>  <Dataset>  (407) 
ChEMBL_Kinases

>  <Ligand_Instance>  (407) 
nan

>  <PDB_ID>  (407) 
nan

>  <Standardized_SMILES>  (407) 
N#Cc1cc2ccncc2c2[nH]c3ccccc3c12

>  <Name>  (407) 
nan

>  <Pocket>  (407) 
nan

>  <ATP_Site>  (407) 
nan

>  <Peripheral>  (407) 
nan

>  <Num_H_Atoms_ProtBoundConf>  (407) 
nan

>  <Num_Resolved_Atoms>  (407) 
nan

>  <Num_Not_Resolved_Atoms>  (407) 
nan

$$$$
CHEMBL3883660
     RDKit          3D

  0  0  0  0  0  0  0  0  0  0999 V3000
M  V30 BEGIN CTAB
M  V30 COUNTS 32 35 0 0 0
M  V30 BEGIN ATOM
M  V30 1 C 0.860295 -4.261465 4.653604 0
M  V30 2 O 0.361382 -4.573165 3.344774 0
M  V30 3 C 0.208047 -3.559829 2.401906 0
M  V30 4 C -0.285185 -3.971786 1.158585 0
M  V30 5 C -0.462337 -3.010536 0.171374 0
M  V30 6 C -0.165996 -1.683562 0.392224 0
M  V30 7 C 0.320881 -1.287387 1.624631 0
M  V30 8 C 0.507612 -2.231479 2.631526 0
M  V30 9 N 0.546996 0.054922 1.632391 0
M  V30 10 C 0.204606 0.499523 0.413214 0
M  V30 11 C 0.224463 1.764078 -0.145013 0
M  V30 12 C 0.646723 2.881579 0.546618 0
M  V30 13 C 0.696446 4.153943 0.072034 0
M  V30 14 N 0.282379 4.312070 -1.217365 0
M  V30 15 C -0.139974 3.255702 -1.939063 0
M  V30 16 C -0.192062 1.964541 -1.462243 0
M  V30 17 C -0.630879 0.916839 -2.236368 0
M  V30 18 C -0.652230 -0.358126 -1.677441 0
M  V30 19 C -1.117896 -1.415439 -2.525492 0
M  V30 20 N -1.496360 -2.254946 -3.224448 0
M  V30 21 C -0.238239 -0.541925 -0.375751 0
M  V30 22 H 1.900657 -3.907140 4.469268 0
M  V30 23 H 0.315882 -3.440839 5.135346 0
M  V30 24 H 0.945949 -5.174558 5.238558 0
M  V30 25 H -0.520629 -4.999332 0.970091 0
M  V30 26 H -0.843265 -3.370663 -0.768402 0
M  V30 27 H 0.884504 -2.000160 3.622262 0
M  V30 28 H 0.915273 0.633736 2.428531 0
M  V30 29 H 0.968719 2.706700 1.574611 0
M  V30 30 H 1.049770 4.955088 0.716024 0
M  V30 31 H -0.446731 3.491575 -2.952172 0
M  V30 32 H -0.950916 1.107745 -3.266442 0
M  V30 END ATOM
M  V30 BEGIN BOND
M  V30 1 1 1 2
M  V30 2 1 2 3
M  V30 3 2 3 4
M  V30 4 1 4 5
M  V30 5 2 5 6
M  V30 6 1 6 7
M  V30 7 2 7 8
M  V30 8 1 7 9
M  V30 9 1 9 10
M  V30 10 2 10 11
M  V30 11 1 11 12
M  V30 12 2 12 13
M  V30 13 1 13 14
M  V30 14 2 14 15
M  V30 15 1 15 16
M  V30 16 2 16 17
M  V30 17 1 17 18
M  V30 18 1 18 19
M  V30 19 3 19 20
M  V30 20 2 18 21
M  V30 21 1 8 3
M  V30 22 1 21 10
M  V30 23 1 21 6
M  V30 24 1 16 11
M  V30 25 1 1 22
M  V30 26 1 1 23
M  V30 27 1 1 24
M  V30 28 1 4 25
M  V30 29 1 5 26
M  V30 30 1 8 27
M  V30 31 1 9 28
M  V30 32 1 12 29
M  V30 33 1 13 30
M  V30 34 1 15 31
M  V30 35 1 17 32
M  V30 END BOND
M  V30 END CTAB
M  END
>  <Dataset>  (408) 
ChEMBL_Kinases

>  <Ligand_Instance>  (408) 
nan

>  <PDB_ID>  (408) 
nan

>  <Standardized_SMILES>  (408) 
COc1ccc2c(c1)[nH]c1c3ccncc3cc(C#N)c21

>  <Name>  (408) 
nan

>  <Pocket>  (408) 
nan

>  <ATP_Site>  (408) 
nan

>  <Peripheral>  (408) 
nan

>  <Num_H_Atoms_ProtBoundConf>  (408) 
nan

>  <Num_Resolved_Atoms>  (408) 
nan

>  <Num_Not_Resolved_Atoms>  (408) 
nan

$$$$
CHEMBL577784
     RDKit          3D

  0  0  0  0  0  0  0  0  0  0999 V3000
M  V30 BEGIN CTAB
M  V30 COUNTS 60 63 0 0 0
M  V30 BEGIN ATOM
M  V30 1 O -0.069684 -2.753540 3.564961 0
M  V30 2 C -0.022460 -1.507708 3.596566 0
M  V30 3 N 1.135632 -0.804497 3.185097 0
M  V30 4 C 2.324091 -1.511396 2.709013 0
M  V30 5 C 3.347212 -0.469295 2.358686 0
M  V30 6 C 4.646134 -1.049800 1.854079 0
M  V30 7 N 4.496904 -1.851061 0.661444 0
M  V30 8 C 3.948684 -1.383287 -0.558789 0
M  V30 9 N 3.490948 -0.132359 -0.737064 0
M  V30 10 C 2.965126 0.322734 -1.886359 0
M  V30 11 N 2.538707 1.677177 -1.835693 0
M  V30 12 C 1.153990 1.941558 -1.528375 0
M  V30 13 C 0.682553 3.242631 -1.418199 0
M  V30 14 C -0.652458 3.426703 -1.132308 0
M  V30 15 C -1.499447 2.359382 -0.959702 0
M  V30 16 C -1.084353 1.067770 -1.057750 0
M  V30 17 N -2.009023 0.011806 -0.875273 0
M  V30 18 C -1.845683 -1.395773 -0.911735 0
M  V30 19 O -0.695263 -1.830463 -1.141159 0
M  V30 20 N -2.922588 -2.299392 -0.701101 0
M  V30 21 C -4.362479 -2.193629 -0.418613 0
M  V30 22 C -4.898778 -2.949877 -1.630668 0
M  V30 23 C -3.856659 -4.066215 -1.797154 0
M  V30 24 C -2.805791 -3.745009 -0.724676 0
M  V30 25 C 0.252681 0.918068 -1.343726 0
M  V30 26 N 2.884759 -0.509721 -2.930816 0
M  V30 27 C 3.307155 -1.779421 -2.876926 0
M  V30 28 C 3.835992 -2.200513 -1.684836 0
M  V30 29 I 4.516187 -4.179756 -1.538292 0
M  V30 30 C -1.183622 -0.778470 4.066707 0
M  V30 31 C -1.449948 0.552476 4.224626 0
M  V30 32 C -2.655242 0.960101 4.700831 0
M  V30 33 C -3.586736 -0.114736 5.010014 0
M  V30 34 S -2.587300 -1.661282 4.563700 0
M  V30 35 H 1.092344 0.250151 3.241307 0
M  V30 36 H 2.058361 -2.128041 1.815333 0
M  V30 37 H 2.659002 -2.171043 3.518872 0
M  V30 38 H 2.950187 0.194103 1.556477 0
M  V30 39 H 3.568053 0.135579 3.264409 0
M  V30 40 H 5.126045 -1.664789 2.656947 0
M  V30 41 H 5.366024 -0.230729 1.657295 0
M  V30 42 H 4.811601 -2.862770 0.674506 0
M  V30 43 H 3.152949 2.498662 -2.004237 0
M  V30 44 H 1.358717 4.064937 -1.556090 0
M  V30 45 H -1.045936 4.429007 -1.040678 0
M  V30 46 H -2.539717 2.579085 -0.736274 0
M  V30 47 H -3.012759 0.282815 -0.673644 0
M  V30 48 H -4.549233 -2.847609 0.456741 0
M  V30 49 H -4.717881 -1.170559 -0.338995 0
M  V30 50 H -5.868286 -3.415159 -1.439762 0
M  V30 51 H -4.979442 -2.311821 -2.514507 0
M  V30 52 H -4.265855 -5.062828 -1.592909 0
M  V30 53 H -3.341360 -3.961112 -2.775389 0
M  V30 54 H -3.141003 -4.135307 0.252426 0
M  V30 55 H -1.801958 -4.104874 -1.012199 0
M  V30 56 H 0.676498 -0.061092 -1.441147 0
M  V30 57 H 3.238370 -2.438264 -3.719755 0
M  V30 58 H -0.640733 1.208856 3.944502 0
M  V30 59 H -2.890544 2.004291 4.835062 0
M  V30 60 H -4.646007 0.260340 5.430066 0
M  V30 END ATOM
M  V30 BEGIN BOND
M  V30 1 2 1 2
M  V30 2 1 2 3
M  V30 3 1 3 4
M  V30 4 1 4 5
M  V30 5 1 5 6
M  V30 6 1 6 7
M  V30 7 1 7 8
M  V30 8 2 8 9
M  V30 9 1 9 10
M  V30 10 1 10 11
M  V30 11 1 11 12
M  V30 12 2 12 13
M  V30 13 1 13 14
M  V30 14 2 14 15
M  V30 15 1 15 16
M  V30 16 1 16 17
M  V30 17 1 17 18
M  V30 18 2 18 19
M  V30 19 1 18 20
M  V30 20 1 20 21
M  V30 21 1 21 22
M  V30 22 1 22 23
M  V30 23 1 23 24
M  V30 24 2 16 25
M  V30 25 2 10 26
M  V30 26 1 26 27
M  V30 27 2 27 28
M  V30 28 1 28 29
M  V30 29 1 2 30
M  V30 30 2 30 31
M  V30 31 1 31 32
M  V30 32 2 32 33
M  V30 33 1 33 34
M  V30 34 1 28 8
M  V30 35 1 34 30
M  V30 36 1 25 12
M  V30 37 1 24 20
M  V30 38 1 3 35
M  V30 39 1 4 36
M  V30 40 1 4 37
M  V30 41 1 5 38
M  V30 42 1 5 39
M  V30 43 1 6 40
M  V30 44 1 6 41
M  V30 45 1 7 42
M  V30 46 1 11 43
M  V30 47 1 13 44
M  V30 48 1 14 45
M  V30 49 1 15 46
M  V30 50 1 17 47
M  V30 51 1 21 48
M  V30 52 1 21 49
M  V30 53 1 22 50
M  V30 54 1 22 51
M  V30 55 1 23 52
M  V30 56 1 23 53
M  V30 57 1 24 54
M  V30 58 1 24 55
M  V30 59 1 25 56
M  V30 60 1 27 57
M  V30 61 1 31 58
M  V30 62 1 32 59
M  V30 63 1 33 60
M  V30 END BOND
M  V30 END CTAB
M  END
>  <Dataset>  (409) 
ChEMBL_Kinases

>  <Ligand_Instance>  (409) 
nan

>  <PDB_ID>  (409) 
nan

>  <Standardized_SMILES>  (409) 
O=C(NCCCNc1nc(Nc2cccc(NC(=O)N3CCCC3)c2)ncc1I)c1cccs1

>  <Name>  (409) 
BX-795

>  <Pocket>  (409) 
nan

>  <ATP_Site>  (409) 
nan

>  <Peripheral>  (409) 
nan

>  <Num_H_Atoms_ProtBoundConf>  (409) 
nan

>  <Num_Resolved_Atoms>  (409) 
nan

>  <Num_Not_Resolved_Atoms>  (409) 
nan

$$$$
CHEMBL156277
     RDKit          3D

  0  0  0  0  0  0  0  0  0  0999 V3000
M  V30 BEGIN CTAB
M  V30 COUNTS 36 38 0 0 0
M  V30 BEGIN ATOM
M  V30 1 C 0.472053 -5.330369 0.498118 0
M  V30 2 O 0.220001 -3.958904 0.440775 0
M  V30 3 C 0.811065 -2.997838 1.228249 0
M  V30 4 C 1.742737 -3.370888 2.171357 0
M  V30 5 C 2.373344 -2.478693 2.985978 0
M  V30 6 C 2.075680 -1.146627 2.871043 0
M  V30 7 C 1.136252 -0.748673 1.922428 0
M  V30 8 C 0.498361 -1.638184 1.102382 0
M  V30 9 C -0.508484 -1.325781 0.114804 0
M  V30 10 C -0.532803 -0.395946 -0.819081 0
M  V30 11 N 0.286011 0.670650 -1.318652 0
M  V30 12 C 0.272519 1.930873 -0.642401 0
M  V30 13 C -0.873650 2.727246 -0.620742 0
M  V30 14 C -0.976374 3.967031 0.001514 0
M  V30 15 C 0.168454 4.400763 0.631713 0
M  V30 16 C 1.347544 3.692519 0.668060 0
M  V30 17 Cl 2.782245 4.281890 1.480758 0
M  V30 18 C 1.344947 2.475457 0.021357 0
M  V30 19 C -1.810996 -0.491989 -1.563921 0
M  V30 20 O -2.333288 0.145930 -2.539673 0
M  V30 21 N -2.593053 -1.557172 -1.023294 0
M  V30 22 C -1.779989 -2.080464 0.028083 0
M  V30 23 O -2.163517 -3.048921 0.737225 0
M  V30 24 H -0.421243 -5.881399 0.096933 0
M  V30 25 H 0.692557 -5.708648 1.513162 0
M  V30 26 H 1.325574 -5.616426 -0.152368 0
M  V30 27 H 2.037626 -4.411471 2.330113 0
M  V30 28 H 3.107320 -2.767917 3.730112 0
M  V30 29 H 2.572622 -0.440733 3.511343 0
M  V30 30 H 0.891811 0.281764 1.823633 0
M  V30 31 H 0.863148 0.446500 -2.173069 0
M  V30 32 H -1.782304 2.403108 -1.111413 0
M  V30 33 H -1.881135 4.528505 -0.016034 0
M  V30 34 H 0.142115 5.357854 1.133383 0
M  V30 35 H 2.259603 1.880131 0.022796 0
M  V30 36 H -3.553088 -1.920044 -1.289690 0
M  V30 END ATOM
M  V30 BEGIN BOND
M  V30 1 1 1 2
M  V30 2 1 2 3
M  V30 3 2 3 4
M  V30 4 1 4 5
M  V30 5 2 5 6
M  V30 6 1 6 7
M  V30 7 2 7 8
M  V30 8 1 8 9
M  V30 9 2 9 10
M  V30 10 1 10 11
M  V30 11 1 11 12
M  V30 12 2 12 13
M  V30 13 1 13 14
M  V30 14 2 14 15
M  V30 15 1 15 16
M  V30 16 1 16 17
M  V30 17 2 16 18
M  V30 18 1 10 19
M  V30 19 2 19 20
M  V30 20 1 19 21
M  V30 21 1 21 22
M  V30 22 2 22 23
M  V30 23 1 8 3
M  V30 24 1 22 9
M  V30 25 1 18 12
M  V30 26 1 1 24
M  V30 27 1 1 25
M  V30 28 1 1 26
M  V30 29 1 4 27
M  V30 30 1 5 28
M  V30 31 1 6 29
M  V30 32 1 7 30
M  V30 33 1 11 31
M  V30 34 1 13 32
M  V30 35 1 14 33
M  V30 36 1 15 34
M  V30 37 1 18 35
M  V30 38 1 21 36
M  V30 END BOND
M  V30 END CTAB
M  END
>  <Dataset>  (410) 
ChEMBL_Kinases

>  <Ligand_Instance>  (410) 
nan

>  <PDB_ID>  (410) 
nan

>  <Standardized_SMILES>  (410) 
COc1ccccc1C1=C(Nc2cccc(Cl)c2)C(=O)NC1=O

>  <Name>  (410) 
nan

>  <Pocket>  (410) 
nan

>  <ATP_Site>  (410) 
nan

>  <Peripheral>  (410) 
nan

>  <Num_H_Atoms_ProtBoundConf>  (410) 
nan

>  <Num_Resolved_Atoms>  (410) 
nan

>  <Num_Not_Resolved_Atoms>  (410) 
nan

$$$$
CHEMBL4082775
     RDKit          3D

  0  0  0  0  0  0  0  0  0  0999 V3000
M  V30 BEGIN CTAB
M  V30 COUNTS 49 52 0 0 0
M  V30 BEGIN ATOM
M  V30 1 O 1.299037 -2.053882 -0.018446 0
M  V30 2 C 1.448040 -2.220710 1.221234 0
M  V30 3 N 1.841728 -3.502258 1.684206 0
M  V30 4 C 2.100092 -4.675178 0.861651 0
M  V30 5 C 3.414291 -4.612605 0.175775 0
M  V30 6 C 3.641713 -4.083139 -1.071405 0
M  V30 7 C 4.896483 -4.053096 -1.657539 0
M  V30 8 C 5.978326 -4.576613 -0.967204 0
M  V30 9 C 5.739471 -5.105042 0.282098 0
M  V30 10 C 4.494348 -5.128620 0.850084 0
M  V30 11 C 1.212740 -1.102488 2.126923 0
M  V30 12 C 1.351942 -1.156147 3.496675 0
M  V30 13 C 1.114070 -0.063031 4.298981 0
M  V30 14 C 0.724204 1.129091 3.737527 0
M  V30 15 C 0.564797 1.247755 2.352318 0
M  V30 16 N 0.170382 2.492479 1.802814 0
M  V30 17 C -0.097942 2.925378 0.449697 0
M  V30 18 C -1.306810 2.222414 -0.077748 0
M  V30 19 N -2.465508 2.846926 0.247704 0
M  V30 20 C -3.468889 2.130965 -0.286788 0
M  V30 21 C -4.941882 2.204496 -0.341186 0
M  V30 22 C -5.655693 3.179319 -0.998109 0
M  V30 23 C -7.042212 3.077022 -0.932564 0
M  V30 24 N -7.680292 2.103705 -0.280073 0
M  V30 25 C -7.000438 1.137958 0.370530 0
M  V30 26 C -5.617868 1.186791 0.341077 0
M  V30 27 N -2.939326 1.072860 -0.937550 0
M  V30 28 N -1.625217 1.144302 -0.800300 0
M  V30 29 C 0.819842 0.119778 1.624775 0
M  V30 30 H 1.963306 -3.642648 2.691682 0
M  V30 31 H 1.305102 -4.678967 0.067357 0
M  V30 32 H 1.966891 -5.601151 1.423051 0
M  V30 33 H 2.819625 -3.681033 -1.609266 0
M  V30 34 H 5.022522 -3.623236 -2.644654 0
M  V30 35 H 6.943162 -4.526322 -1.476077 0
M  V30 36 H 6.595670 -5.507658 0.803293 0
M  V30 37 H 4.417057 -5.573644 1.850434 0
M  V30 38 H 1.657471 -2.083427 3.950380 0
M  V30 39 H 1.225123 -0.111265 5.366971 0
M  V30 40 H 0.542110 1.976986 4.388564 0
M  V30 41 H 0.033154 3.283815 2.482875 0
M  V30 42 H 0.758717 2.469880 -0.150105 0
M  V30 43 H -0.112717 4.002113 0.318074 0
M  V30 44 H -5.110418 3.936948 -1.506236 0
M  V30 45 H -7.627084 3.828487 -1.439298 0
M  V30 46 H -7.560713 0.370644 0.884816 0
M  V30 47 H -5.074043 0.423064 0.854801 0
M  V30 48 H -0.851922 0.551480 -1.138233 0
M  V30 49 H 0.710459 0.190055 0.572014 0
M  V30 END ATOM
M  V30 BEGIN BOND
M  V30 1 2 1 2
M  V30 2 1 2 3
M  V30 3 1 3 4
M  V30 4 1 4 5
M  V30 5 2 5 6
M  V30 6 1 6 7
M  V30 7 2 7 8
M  V30 8 1 8 9
M  V30 9 2 9 10
M  V30 10 1 2 11
M  V30 11 2 11 12
M  V30 12 1 12 13
M  V30 13 2 13 14
M  V30 14 1 14 15
M  V30 15 1 15 16
M  V30 16 1 16 17
M  V30 17 1 17 18
M  V30 18 2 18 19
M  V30 19 1 19 20
M  V30 20 1 20 21
M  V30 21 2 21 22
M  V30 22 1 22 23
M  V30 23 2 23 24
M  V30 24 1 24 25
M  V30 25 2 25 26
M  V30 26 2 20 27
M  V30 27 1 27 28
M  V30 28 2 15 29
M  V30 29 1 10 5
M  V30 30 1 29 11
M  V30 31 1 28 18
M  V30 32 1 26 21
M  V30 33 1 3 30
M  V30 34 1 4 31
M  V30 35 1 4 32
M  V30 36 1 6 33
M  V30 37 1 7 34
M  V30 38 1 8 35
M  V30 39 1 9 36
M  V30 40 1 10 37
M  V30 41 1 12 38
M  V30 42 1 13 39
M  V30 43 1 14 40
M  V30 44 1 16 41
M  V30 45 1 17 42
M  V30 46 1 17 43
M  V30 47 1 22 44
M  V30 48 1 23 45
M  V30 49 1 25 46
M  V30 50 1 26 47
M  V30 51 1 28 48
M  V30 52 1 29 49
M  V30 END BOND
M  V30 END CTAB
M  END
>  <Dataset>  (411) 
ChEMBL_Kinases

>  <Ligand_Instance>  (411) 
nan

>  <PDB_ID>  (411) 
nan

>  <Standardized_SMILES>  (411) 
O=C(NCc1ccccc1)c1cccc(NCc2nc(-c3ccncc3)n[nH]2)c1

>  <Name>  (411) 
nan

>  <Pocket>  (411) 
nan

>  <ATP_Site>  (411) 
nan

>  <Peripheral>  (411) 
nan

>  <Num_H_Atoms_ProtBoundConf>  (411) 
nan

>  <Num_Resolved_Atoms>  (411) 
nan

>  <Num_Not_Resolved_Atoms>  (411) 
nan

$$$$
CHEMBL1233528
     RDKit          3D

  0  0  0  0  0  0  0  0  0  0999 V3000
M  V30 BEGIN CTAB
M  V30 COUNTS 95 100 0 0 0
M  V30 BEGIN ATOM
M  V30 1 C -1.697361 -7.560687 5.687249 0
M  V30 2 C -0.454273 -8.059349 5.031204 0
M  V30 3 C 0.651711 -7.077419 4.882063 0 CFG=2
M  V30 4 C 1.006601 -6.627943 6.275902 0
M  V30 5 O 0.500310 -7.127468 7.311432 0
M  V30 6 N 1.963229 -5.586487 6.406353 0
M  V30 7 C 2.741449 -5.431864 7.638115 0
M  V30 8 C 2.131808 -4.708807 5.299787 0
M  V30 9 C 3.053960 -3.708650 5.445888 0
M  V30 10 N 3.195863 -2.896280 4.407396 0
M  V30 11 C 2.485117 -3.035251 3.276338 0
M  V30 12 N 2.860966 -1.997493 2.363723 0
M  V30 13 C 2.105079 -1.056858 1.576481 0
M  V30 14 C 0.731036 -1.128243 1.511093 0
M  V30 15 C -0.083228 -0.260571 0.773280 0
M  V30 16 C 0.534143 0.745925 0.055974 0
M  V30 17 C -0.188851 1.704373 -0.773003 0
M  V30 18 O -1.357807 1.358353 -1.158416 0
M  V30 19 N 0.406267 2.957212 -1.115659 0
M  V30 20 C -0.275520 3.918137 -1.937716 0 CFG=1
M  V30 21 C -1.171433 4.870792 -1.160604 0
M  V30 22 C -2.265747 5.279610 -2.135578 0
M  V30 23 C -1.667533 5.725034 -3.455468 0 CFG=2
M  V30 24 N -1.994874 4.804390 -4.485786 0
M  V30 25 C -3.413575 4.689241 -4.702613 0
M  V30 26 C -3.686685 3.305991 -5.274415 0
M  V30 27 N -2.468758 2.867042 -5.908213 0
M  V30 28 C -2.705943 1.705784 -6.693662 0
M  V30 29 C -3.029709 0.502112 -5.797650 0
M  V30 30 C -1.993998 0.089555 -4.810779 0
M  V30 31 C -2.209146 -0.731667 -6.031373 0
M  V30 32 C -1.821228 3.884245 -6.667701 0
M  V30 33 C -1.381559 5.051719 -5.768989 0
M  V30 34 C -0.175623 5.951435 -3.311061 0
M  V30 35 C 0.544566 4.697295 -2.879640 0
M  V30 36 C 1.903412 0.806609 0.129709 0
M  V30 37 C 2.716373 -0.030383 0.841997 0
M  V30 38 O 4.096366 0.057513 0.892572 0
M  V30 39 C 4.761567 1.085597 0.158030 0
M  V30 40 N 1.590080 -4.020764 3.155877 0
M  V30 41 C 1.375156 -4.893581 4.152360 0
M  V30 42 N 0.413159 -5.955018 4.036092 0
M  V30 43 C -0.687749 -5.866713 3.113871 0
M  V30 44 C -0.662261 -6.926652 2.035161 0
M  V30 45 C -0.864845 -4.468751 2.587717 0
M  V30 46 H -2.633342 -7.695739 5.080311 0
M  V30 47 H -1.947904 -8.124685 6.640032 0
M  V30 48 H -1.573846 -6.518897 6.016733 0
M  V30 49 H -0.664001 -8.660400 4.107118 0
M  V30 50 H -0.043557 -8.851055 5.739405 0
M  V30 51 H 1.537682 -7.653112 4.489934 0
M  V30 52 H 3.823536 -5.565292 7.481713 0
M  V30 53 H 2.363654 -6.164315 8.357620 0
M  V30 54 H 2.540817 -4.417235 8.075374 0
M  V30 55 H 3.618671 -3.620813 6.379202 0
M  V30 56 H 3.910994 -1.869829 2.192531 0
M  V30 57 H 0.160446 -1.876808 2.042522 0
M  V30 58 H -1.158543 -0.349580 0.744097 0
M  V30 59 H 1.357243 3.241103 -0.793529 0
M  V30 60 H -1.024371 3.295140 -2.519291 0
M  V30 61 H -0.644512 5.761146 -0.810643 0
M  V30 62 H -1.584976 4.298961 -0.310532 0
M  V30 63 H -2.873087 4.375176 -2.309645 0
M  V30 64 H -2.905039 6.034596 -1.651778 0
M  V30 65 H -2.112733 6.703269 -3.694772 0
M  V30 66 H -4.046519 4.938446 -3.848273 0
M  V30 67 H -3.655953 5.462389 -5.489408 0
M  V30 68 H -4.540875 3.373921 -5.970387 0
M  V30 69 H -3.920472 2.648263 -4.406796 0
M  V30 70 H -3.618813 1.841036 -7.341582 0
M  V30 71 H -1.877246 1.414315 -7.348454 0
M  V30 72 H -4.093200 0.408045 -5.506067 0
M  V30 73 H -1.059813 0.684720 -4.778211 0
M  V30 74 H -2.312479 -0.293341 -3.828194 0
M  V30 75 H -2.659292 -1.735139 -5.849898 0
M  V30 76 H -1.434360 -0.725879 -6.817221 0
M  V30 77 H -0.920362 3.450789 -7.149553 0
M  V30 78 H -2.459956 4.239858 -7.489828 0
M  V30 79 H -0.284352 5.035323 -5.712282 0
M  V30 80 H -1.809629 5.959808 -6.213763 0
M  V30 81 H -0.020462 6.734307 -2.539741 0
M  V30 82 H 0.256739 6.299923 -4.242466 0
M  V30 83 H 1.541232 4.983425 -2.436016 0
M  V30 84 H 0.809057 4.065597 -3.766259 0
M  V30 85 H 2.473846 1.572435 -0.408121 0
M  V30 86 H 5.862706 0.989860 0.257262 0
M  V30 87 H 4.406989 1.128858 -0.893189 0
M  V30 88 H 4.509546 2.073752 0.611997 0
M  V30 89 H -1.642831 -6.084922 3.687442 0
M  V30 90 H 0.258278 -7.537663 2.204222 0
M  V30 91 H -1.560160 -7.572240 2.022461 0
M  V30 92 H -0.612854 -6.383414 1.052471 0
M  V30 93 H -0.711886 -3.730857 3.389604 0
M  V30 94 H -1.923241 -4.308143 2.216142 0
M  V30 95 H -0.235820 -4.344152 1.695294 0
M  V30 END ATOM
M  V30 BEGIN BOND
M  V30 1 1 1 2
M  V30 2 1 2 3
M  V30 3 1 3 4
M  V30 4 2 4 5
M  V30 5 1 4 6
M  V30 6 1 6 7
M  V30 7 1 6 8
M  V30 8 2 8 9
M  V30 9 1 9 10
M  V30 10 2 10 11
M  V30 11 1 11 12
M  V30 12 1 12 13
M  V30 13 2 13 14
M  V30 14 1 14 15
M  V30 15 2 15 16
M  V30 16 1 16 17
M  V30 17 2 17 18
M  V30 18 1 17 19
M  V30 19 1 19 20
M  V30 20 1 20 21
M  V30 21 1 21 22
M  V30 22 1 22 23
M  V30 23 1 23 24
M  V30 24 1 24 25
M  V30 25 1 25 26
M  V30 26 1 26 27
M  V30 27 1 27 28
M  V30 28 1 28 29
M  V30 29 1 29 30
M  V30 30 1 30 31
M  V30 31 1 27 32
M  V30 32 1 32 33
M  V30 33 1 23 34
M  V30 34 1 34 35
M  V30 35 1 16 36
M  V30 36 2 36 37
M  V30 37 1 37 38
M  V30 38 1 38 39
M  V30 39 1 11 40
M  V30 40 2 40 41
M  V30 41 1 41 42
M  V30 42 1 42 43
M  V30 43 1 43 44
M  V30 44 1 43 45
M  V30 45 1 42 3
M  V30 46 1 41 8
M  V30 47 1 37 13
M  V30 48 1 35 20
M  V30 49 1 33 24
M  V30 50 1 31 29
M  V30 51 1 1 46
M  V30 52 1 1 47
M  V30 53 1 1 48
M  V30 54 1 2 49
M  V30 55 1 2 50
M  V30 56 1 3 51 CFG=3
M  V30 57 1 7 52
M  V30 58 1 7 53
M  V30 59 1 7 54
M  V30 60 1 9 55
M  V30 61 1 12 56
M  V30 62 1 14 57
M  V30 63 1 15 58
M  V30 64 1 19 59
M  V30 65 1 20 60 CFG=3
M  V30 66 1 21 61
M  V30 67 1 21 62
M  V30 68 1 22 63
M  V30 69 1 22 64
M  V30 70 1 23 65 CFG=3
M  V30 71 1 25 66
M  V30 72 1 25 67
M  V30 73 1 26 68
M  V30 74 1 26 69
M  V30 75 1 28 70
M  V30 76 1 28 71
M  V30 77 1 29 72
M  V30 78 1 30 73
M  V30 79 1 30 74
M  V30 80 1 31 75
M  V30 81 1 31 76
M  V30 82 1 32 77
M  V30 83 1 32 78
M  V30 84 1 33 79
M  V30 85 1 33 80
M  V30 86 1 34 81
M  V30 87 1 34 82
M  V30 88 1 35 83
M  V30 89 1 35 84
M  V30 90 1 36 85
M  V30 91 1 39 86
M  V30 92 1 39 87
M  V30 93 1 39 88
M  V30 94 1 43 89
M  V30 95 1 44 90
M  V30 96 1 44 91
M  V30 97 1 44 92
M  V30 98 1 45 93
M  V30 99 1 45 94
M  V30 100 1 45 95
M  V30 END BOND
M  V30 END CTAB
M  END
>  <Dataset>  (412) 
ChEMBL_Kinases

>  <Ligand_Instance>  (412) 
nan

>  <PDB_ID>  (412) 
nan

>  <Standardized_SMILES>  (412) 
CC[C@@H]1C(=O)N(C)c2cnc(Nc3ccc(C(=O)N[C@H]4CC[C@H](N5CCN(CC6CC6)CC5)CC4)cc3OC)nc2N1C(C)C

>  <Name>  (412) 
VOLASERTIB

>  <Pocket>  (412) 
nan

>  <ATP_Site>  (412) 
nan

>  <Peripheral>  (412) 
nan

>  <Num_H_Atoms_ProtBoundConf>  (412) 
nan

>  <Num_Resolved_Atoms>  (412) 
nan

>  <Num_Not_Resolved_Atoms>  (412) 
nan

$$$$
CHEMBL1173655
     RDKit          3D

  0  0  0  0  0  0  0  0  0  0999 V3000
M  V30 BEGIN CTAB
M  V30 COUNTS 59 62 0 0 0
M  V30 BEGIN ATOM
M  V30 1 C 4.292612 -0.903594 3.958333 0
M  V30 2 N 4.632462 0.094808 2.978042 0
M  V30 3 C 3.723399 1.215720 3.149548 0
M  V30 4 C 4.607304 -0.395910 1.614158 0
M  V30 5 C 3.201514 -0.713597 1.202789 0
M  V30 6 C 2.685091 -0.079245 0.180473 0
M  V30 7 C 1.310968 -0.462032 -0.137965 0
M  V30 8 O 0.709016 -1.347988 0.555220 0
M  V30 9 N 0.488822 0.057480 -1.196342 0
M  V30 10 C -0.770142 -0.638090 -1.088138 0
M  V30 11 C -1.685208 0.015614 -0.255267 0
M  V30 12 C -2.933579 -0.527425 -0.048712 0
M  V30 13 C -3.859659 0.087921 0.766051 0
M  V30 14 N -3.507066 1.309897 1.396444 0
M  V30 15 C -2.880340 1.665798 2.618666 0
M  V30 16 C -2.743270 3.000185 2.901523 0
M  V30 17 C -2.118781 3.273322 4.111045 0
M  V30 18 C -1.661042 2.332822 4.982156 0
M  V30 19 F -1.061737 2.722271 6.144224 0
M  V30 20 C -1.837236 0.991495 4.623872 0
M  V30 21 Cl -1.232472 -0.192287 5.774944 0
M  V30 22 C -2.447981 0.648560 3.439881 0
M  V30 23 N -5.051667 -0.530065 0.900681 0
M  V30 24 C -5.346192 -1.689428 0.281298 0
M  V30 25 N -4.434189 -2.279690 -0.511018 0
M  V30 26 C -3.225452 -1.713394 -0.686538 0
M  V30 27 C -2.335850 -2.366461 -1.507751 0
M  V30 28 C -1.086460 -1.833195 -1.721208 0
M  V30 29 O -0.049088 -2.292640 -2.483012 0
M  V30 30 C -0.043003 -3.469143 -3.241621 0 CFG=1
M  V30 31 C 0.151918 -3.144667 -4.730513 0
M  V30 32 C 0.825638 -4.425698 -5.175805 0
M  V30 33 O 1.757576 -4.655394 -4.168449 0
M  V30 34 C 1.157510 -4.312009 -2.969631 0
M  V30 35 H 4.500560 -1.939441 3.639114 0
M  V30 36 H 3.186017 -0.821341 4.140008 0
M  V30 37 H 4.776269 -0.641466 4.925771 0
M  V30 38 H 2.719750 1.002464 2.725379 0
M  V30 39 H 3.597264 1.380378 4.227828 0
M  V30 40 H 4.159808 2.085813 2.623571 0
M  V30 41 H 5.147257 -1.373255 1.642839 0
M  V30 42 H 5.098316 0.317287 0.954386 0
M  V30 43 H 2.726825 -1.468176 1.815234 0
M  V30 44 H 3.175569 0.660784 -0.405736 0
M  V30 45 H 0.962217 0.797093 -1.791183 0
M  V30 46 H -1.469214 0.945272 0.250453 0
M  V30 47 H -3.847025 1.990658 0.683789 0
M  V30 48 H -3.107637 3.745207 2.208842 0
M  V30 49 H -1.985146 4.328895 4.383699 0
M  V30 50 H -2.565714 -0.411122 3.197471 0
M  V30 51 H -6.352443 -2.036581 0.508337 0
M  V30 52 H -2.505852 -3.294970 -2.033018 0
M  V30 53 H -0.995090 -4.059603 -3.162455 0
M  V30 54 H 0.856715 -2.306860 -4.841486 0
M  V30 55 H -0.833972 -2.990596 -5.211997 0
M  V30 56 H 0.071870 -5.252090 -5.234165 0
M  V30 57 H 1.272298 -4.207074 -6.160232 0
M  V30 58 H 1.877982 -3.693813 -2.361977 0
M  V30 59 H 0.968827 -5.216342 -2.372305 0
M  V30 END ATOM
M  V30 BEGIN BOND
M  V30 1 1 1 2
M  V30 2 1 2 3
M  V30 3 1 2 4
M  V30 4 1 4 5
M  V30 5 2 5 6
M  V30 6 1 6 7
M  V30 7 2 7 8
M  V30 8 1 7 9
M  V30 9 1 9 10
M  V30 10 2 10 11
M  V30 11 1 11 12
M  V30 12 2 12 13
M  V30 13 1 13 14
M  V30 14 1 14 15
M  V30 15 2 15 16
M  V30 16 1 16 17
M  V30 17 2 17 18
M  V30 18 1 18 19
M  V30 19 1 18 20
M  V30 20 1 20 21
M  V30 21 2 20 22
M  V30 22 1 13 23
M  V30 23 2 23 24
M  V30 24 1 24 25
M  V30 25 2 25 26
M  V30 26 1 26 27
M  V30 27 2 27 28
M  V30 28 1 28 29
M  V30 29 1 29 30
M  V30 30 1 30 31
M  V30 31 1 31 32
M  V30 32 1 32 33
M  V30 33 1 33 34
M  V30 34 1 28 10
M  V30 35 1 34 30
M  V30 36 1 26 12
M  V30 37 1 22 15
M  V30 38 1 1 35
M  V30 39 1 1 36
M  V30 40 1 1 37
M  V30 41 1 3 38
M  V30 42 1 3 39
M  V30 43 1 3 40
M  V30 44 1 4 41
M  V30 45 1 4 42
M  V30 46 1 5 43
M  V30 47 1 6 44
M  V30 48 1 9 45
M  V30 49 1 11 46
M  V30 50 1 14 47
M  V30 51 1 16 48
M  V30 52 1 17 49
M  V30 53 1 22 50
M  V30 54 1 24 51
M  V30 55 1 27 52
M  V30 56 1 30 53 CFG=3
M  V30 57 1 31 54
M  V30 58 1 31 55
M  V30 59 1 32 56
M  V30 60 1 32 57
M  V30 61 1 34 58
M  V30 62 1 34 59
M  V30 END BOND
M  V30 END CTAB
M  END
>  <Dataset>  (413) 
ChEMBL_Kinases

>  <Ligand_Instance>  (413) 
nan

>  <PDB_ID>  (413) 
nan

>  <Standardized_SMILES>  (413) 
CN(C)C/C=C/C(=O)Nc1cc2c(Nc3ccc(F)c(Cl)c3)ncnc2cc1O[C@H]1CCOC1

>  <Name>  (413) 
AFATINIB

>  <Pocket>  (413) 
nan

>  <ATP_Site>  (413) 
nan

>  <Peripheral>  (413) 
nan

>  <Num_H_Atoms_ProtBoundConf>  (413) 
nan

>  <Num_Resolved_Atoms>  (413) 
nan

>  <Num_Not_Resolved_Atoms>  (413) 
nan

$$$$
CHEMBL4752776
     RDKit          3D

  0  0  0  0  0  0  0  0  0  0999 V3000
M  V30 BEGIN CTAB
M  V30 COUNTS 33 36 0 0 0
M  V30 BEGIN ATOM
M  V30 1 O 0.732294 -4.252723 3.874476 0
M  V30 2 C 1.866847 -4.748468 3.623647 0
M  V30 3 O 1.783155 -5.778990 4.541898 0
M  V30 4 C 2.504161 -3.959528 2.581619 0
M  V30 5 S 3.102981 -2.323591 3.157271 0
M  V30 6 C 3.722955 -1.551327 1.629372 0
M  V30 7 N 4.982208 -1.559277 1.079708 0
M  V30 8 C 5.070259 -0.904509 -0.116567 0
M  V30 9 N 4.110036 -0.273041 -0.800231 0
M  V30 10 C 2.826350 -0.221475 -0.315082 0
M  V30 11 C 1.737614 0.355593 -0.865114 0
M  V30 12 C 0.608704 0.257529 -0.199295 0
M  V30 13 C -0.755570 0.740306 -0.456236 0
M  V30 14 C -1.870735 0.624550 0.240475 0
M  V30 15 C -3.017868 1.187612 -0.253303 0
M  V30 16 C -4.294547 1.173363 0.335966 0
M  V30 17 C -5.313358 1.793054 -0.315525 0
M  V30 18 C -5.237777 2.465231 -1.543883 0
M  V30 19 C -3.983221 2.468855 -2.108410 0
M  V30 20 C -2.934455 1.836588 -1.447786 0
M  V30 21 S -1.190024 1.649653 -1.881356 0
M  V30 22 S 0.971909 -0.647789 1.243127 0
M  V30 23 C 2.738085 -0.880614 0.887841 0
M  V30 24 H 1.212249 -6.608689 4.389878 0
M  V30 25 H 1.824742 -3.727256 1.721293 0
M  V30 26 H 3.400945 -4.490753 2.188273 0
M  V30 27 H 6.108009 -0.949661 -0.487921 0
M  V30 28 H 1.736686 0.883560 -1.802702 0
M  V30 29 H -1.819490 0.079698 1.188993 0
M  V30 30 H -4.505856 0.690141 1.286322 0
M  V30 31 H -6.311716 1.781160 0.148098 0
M  V30 32 H -6.070022 2.943890 -2.023601 0
M  V30 33 H -3.794571 2.964837 -3.066137 0
M  V30 END ATOM
M  V30 BEGIN BOND
M  V30 1 2 1 2
M  V30 2 1 2 3
M  V30 3 1 2 4
M  V30 4 1 4 5
M  V30 5 1 5 6
M  V30 6 2 6 7
M  V30 7 1 7 8
M  V30 8 2 8 9
M  V30 9 1 9 10
M  V30 10 1 10 11
M  V30 11 2 11 12
M  V30 12 1 12 13
M  V30 13 2 13 14
M  V30 14 1 14 15
M  V30 15 2 15 16
M  V30 16 1 16 17
M  V30 17 2 17 18
M  V30 18 1 18 19
M  V30 19 2 19 20
M  V30 20 1 20 21
M  V30 21 1 12 22
M  V30 22 1 22 23
M  V30 23 1 23 6
M  V30 24 2 23 10
M  V30 25 1 21 13
M  V30 26 1 20 15
M  V30 27 1 3 24
M  V30 28 1 4 25
M  V30 29 1 4 26
M  V30 30 1 8 27
M  V30 31 1 11 28
M  V30 32 1 14 29
M  V30 33 1 16 30
M  V30 34 1 17 31
M  V30 35 1 18 32
M  V30 36 1 19 33
M  V30 END BOND
M  V30 END CTAB
M  END
>  <Dataset>  (414) 
ChEMBL_Kinases

>  <Ligand_Instance>  (414) 
nan

>  <PDB_ID>  (414) 
nan

>  <Standardized_SMILES>  (414) 
O=C(O)CSc1ncnc2cc(-c3cc4ccccc4s3)sc12

>  <Name>  (414) 
nan

>  <Pocket>  (414) 
nan

>  <ATP_Site>  (414) 
nan

>  <Peripheral>  (414) 
nan

>  <Num_H_Atoms_ProtBoundConf>  (414) 
nan

>  <Num_Resolved_Atoms>  (414) 
nan

>  <Num_Not_Resolved_Atoms>  (414) 
nan

$$$$
CHEMBL4750420
     RDKit          3D

  0  0  0  0  0  0  0  0  0  0999 V3000
M  V30 BEGIN CTAB
M  V30 COUNTS 37 41 0 0 0
M  V30 BEGIN ATOM
M  V30 1 C 0.441741 -5.012137 3.819194 0
M  V30 2 C 0.854582 -5.740154 2.698906 0
M  V30 3 C 1.245380 -5.011130 1.571949 0
M  V30 4 C 1.204991 -3.630662 1.620172 0
M  V30 5 C 1.595900 -2.934180 0.494433 0
M  V30 6 C 1.565984 -1.542868 0.512852 0
M  V30 7 C 1.937256 -0.631955 -0.568021 0
M  V30 8 C 3.008948 -0.617317 -1.419760 0
M  V30 9 O 2.915529 0.421927 -2.248131 0
M  V30 10 C 1.840281 1.096800 -1.991741 0
M  V30 11 C 1.210173 2.224320 -2.476513 0
M  V30 12 C 0.008720 2.725232 -1.970405 0
M  V30 13 C -0.583004 2.051224 -0.922452 0
M  V30 14 C -1.840097 2.534927 -0.357820 0
M  V30 15 C -2.557491 3.661428 -0.773379 0
M  V30 16 N -3.638629 3.716388 0.025457 0
M  V30 17 N -3.604848 2.705716 0.875792 0
M  V30 18 C -2.516854 1.936128 0.691546 0
M  V30 19 N 0.018245 0.950841 -0.438631 0
M  V30 20 C 1.183988 0.485347 -0.947505 0
M  V30 21 C 1.139637 -0.886589 1.674264 0
M  V30 22 C 0.744534 -1.562955 2.810793 0
M  V30 23 C 0.792308 -2.940320 2.741784 0
M  V30 24 C 0.400139 -3.634057 3.870920 0
M  V30 25 H 0.132442 -5.550356 4.709319 0
M  V30 26 H 0.864030 -6.827931 2.723482 0
M  V30 27 H 1.573749 -5.536736 0.678358 0
M  V30 28 H 1.930075 -3.354709 -0.420280 0
M  V30 29 H 3.804879 -1.362523 -1.396456 0
M  V30 30 H 1.664747 2.764584 -3.301076 0
M  V30 31 H -0.444133 3.617492 -2.389876 0
M  V30 32 H -2.283991 4.348965 -1.583981 0
M  V30 33 H -4.318977 2.497137 1.615896 0
M  V30 34 H -2.264751 1.046541 1.265898 0
M  V30 35 H 1.092925 0.210621 1.753418 0
M  V30 36 H 0.418098 -1.027903 3.698514 0
M  V30 37 H 0.061142 -3.147560 4.796052 0
M  V30 END ATOM
M  V30 BEGIN BOND
M  V30 1 2 1 2
M  V30 2 1 2 3
M  V30 3 2 3 4
M  V30 4 1 4 5
M  V30 5 2 5 6
M  V30 6 1 6 7
M  V30 7 2 7 8
M  V30 8 1 8 9
M  V30 9 1 9 10
M  V30 10 2 10 11
M  V30 11 1 11 12
M  V30 12 2 12 13
M  V30 13 1 13 14
M  V30 14 1 14 15
M  V30 15 2 15 16
M  V30 16 1 16 17
M  V30 17 1 17 18
M  V30 18 1 13 19
M  V30 19 2 19 20
M  V30 20 1 6 21
M  V30 21 2 21 22
M  V30 22 1 22 23
M  V30 23 2 23 24
M  V30 24 1 24 1
M  V30 25 1 23 4
M  V30 26 1 20 7
M  V30 27 1 20 10
M  V30 28 2 18 14
M  V30 29 1 1 25
M  V30 30 1 2 26
M  V30 31 1 3 27
M  V30 32 1 5 28
M  V30 33 1 8 29
M  V30 34 1 11 30
M  V30 35 1 12 31
M  V30 36 1 15 32
M  V30 37 1 17 33
M  V30 38 1 18 34
M  V30 39 1 21 35
M  V30 40 1 22 36
M  V30 41 1 24 37
M  V30 END BOND
M  V30 END CTAB
M  END
>  <Dataset>  (415) 
ChEMBL_Kinases

>  <Ligand_Instance>  (415) 
nan

>  <PDB_ID>  (415) 
nan

>  <Standardized_SMILES>  (415) 
c1ccc2cc(-c3coc4ccc(-c5cn[nH]c5)nc34)ccc2c1

>  <Name>  (415) 
nan

>  <Pocket>  (415) 
nan

>  <ATP_Site>  (415) 
nan

>  <Peripheral>  (415) 
nan

>  <Num_H_Atoms_ProtBoundConf>  (415) 
nan

>  <Num_Resolved_Atoms>  (415) 
nan

>  <Num_Not_Resolved_Atoms>  (415) 
nan

$$$$
CHEMBL3577124
     RDKit          3D

  0  0  0  0  0  0  0  0  0  0999 V3000
M  V30 BEGIN CTAB
M  V30 COUNTS 60 62 0 0 0
M  V30 BEGIN ATOM
M  V30 1 C 3.758514 -5.570209 6.949087 0
M  V30 2 N 4.840074 -4.837086 6.283457 0
M  V30 3 C 4.599014 -4.139836 5.064223 0
M  V30 4 N 5.565066 -3.445686 4.407153 0
M  V30 5 C 5.328135 -2.789721 3.255413 0
M  V30 6 C 4.043978 -2.846484 2.752797 0
M  V30 7 C 3.817383 -2.171133 1.575020 0
M  V30 8 C 2.550398 -2.196019 1.029673 0
M  V30 9 C 2.069486 -1.564230 -0.196312 0
M  V30 10 C 1.578589 -0.283648 -0.039583 0
M  V30 11 C 1.103509 0.384843 -1.152360 0
M  V30 12 N 0.555600 1.721399 -1.182961 0
M  V30 13 C -0.831680 1.734099 -0.977145 0
M  V30 14 O -1.364613 0.611177 -0.803309 0
M  V30 15 N -1.619089 2.886715 -0.956571 0
M  V30 16 C -3.054079 2.987141 -0.752773 0
M  V30 17 C -3.722543 2.216339 -1.842670 0
M  V30 18 C -5.228195 2.236895 -1.755385 0
M  V30 19 C -5.692950 1.640329 -0.451737 0
M  V30 20 C -5.747997 1.316426 -2.856559 0
M  V30 21 C -5.833007 3.588059 -1.982935 0
M  V30 22 C 1.115032 -0.210814 -2.408904 0
M  V30 23 F 0.663712 0.390590 -3.540570 0
M  V30 24 C 1.615990 -1.493079 -2.514434 0
M  V30 25 C 2.094936 -2.184332 -1.430980 0
M  V30 26 C 2.638896 -3.550061 -1.486630 0
M  V30 27 C 1.533702 -2.902352 1.682733 0
M  V30 28 C 0.124372 -3.010916 1.204657 0
M  V30 29 N 1.799011 -3.559668 2.849725 0
M  V30 30 C 3.033638 -3.540710 3.389548 0
M  V30 31 N 3.368410 -4.163819 4.534241 0
M  V30 32 H 3.113820 -4.870126 7.549509 0
M  V30 33 H 3.084570 -5.992619 6.182230 0
M  V30 34 H 4.176401 -6.340020 7.627984 0
M  V30 35 H 5.781616 -4.843078 6.727657 0
M  V30 36 H 6.129538 -2.240152 2.752062 0
M  V30 37 H 4.526500 -1.597478 0.990805 0
M  V30 38 H 1.520587 0.276459 0.884455 0
M  V30 39 H 1.062248 2.634458 -1.335233 0
M  V30 40 H -1.086989 3.789461 -1.110299 0
M  V30 41 H -3.240556 2.412907 0.199391 0
M  V30 42 H -3.377716 4.019081 -0.656647 0
M  V30 43 H -3.415614 1.154244 -1.752116 0
M  V30 44 H -3.359173 2.542422 -2.834729 0
M  V30 45 H -4.922060 0.870000 -0.158993 0
M  V30 46 H -5.702685 2.361574 0.392683 0
M  V30 47 H -6.650592 1.088000 -0.542272 0
M  V30 48 H -5.013357 0.488969 -2.940805 0
M  V30 49 H -6.743713 0.906006 -2.591908 0
M  V30 50 H -5.731567 1.903376 -3.783138 0
M  V30 51 H -5.926007 4.146099 -1.023266 0
M  V30 52 H -6.881655 3.421636 -2.361291 0
M  V30 53 H -5.279636 4.129903 -2.763354 0
M  V30 54 H 1.658475 -2.027700 -3.466741 0
M  V30 55 H 2.124128 -4.095228 -2.322546 0
M  V30 56 H 3.733701 -3.573449 -1.662849 0
M  V30 57 H 2.430159 -4.136110 -0.580225 0
M  V30 58 H -0.197455 -4.054268 1.103076 0
M  V30 59 H -0.586738 -2.450159 1.876395 0
M  V30 60 H 0.027153 -2.523379 0.219128 0
M  V30 END ATOM
M  V30 BEGIN BOND
M  V30 1 1 1 2
M  V30 2 1 2 3
M  V30 3 2 3 4
M  V30 4 1 4 5
M  V30 5 2 5 6
M  V30 6 1 6 7
M  V30 7 2 7 8
M  V30 8 1 8 9
M  V30 9 2 9 10
M  V30 10 1 10 11
M  V30 11 1 11 12
M  V30 12 1 12 13
M  V30 13 2 13 14
M  V30 14 1 13 15
M  V30 15 1 15 16
M  V30 16 1 16 17
M  V30 17 1 17 18
M  V30 18 1 18 19
M  V30 19 1 18 20
M  V30 20 1 18 21
M  V30 21 2 11 22
M  V30 22 1 22 23
M  V30 23 1 22 24
M  V30 24 2 24 25
M  V30 25 1 25 26
M  V30 26 1 8 27
M  V30 27 1 27 28
M  V30 28 2 27 29
M  V30 29 1 29 30
M  V30 30 2 30 31
M  V30 31 1 31 3
M  V30 32 1 30 6
M  V30 33 1 25 9
M  V30 34 1 1 32
M  V30 35 1 1 33
M  V30 36 1 1 34
M  V30 37 1 2 35
M  V30 38 1 5 36
M  V30 39 1 7 37
M  V30 40 1 10 38
M  V30 41 1 12 39
M  V30 42 1 15 40
M  V30 43 1 16 41
M  V30 44 1 16 42
M  V30 45 1 17 43
M  V30 46 1 17 44
M  V30 47 1 19 45
M  V30 48 1 19 46
M  V30 49 1 19 47
M  V30 50 1 20 48
M  V30 51 1 20 49
M  V30 52 1 20 50
M  V30 53 1 21 51
M  V30 54 1 21 52
M  V30 55 1 21 53
M  V30 56 1 24 54
M  V30 57 1 26 55
M  V30 58 1 26 56
M  V30 59 1 26 57
M  V30 60 1 28 58
M  V30 61 1 28 59
M  V30 62 1 28 60
M  V30 END BOND
M  V30 END CTAB
M  END
>  <Dataset>  (416) 
ChEMBL_Kinases

>  <Ligand_Instance>  (416) 
nan

>  <PDB_ID>  (416) 
nan

>  <Standardized_SMILES>  (416) 
CNc1ncc2cc(-c3cc(NC(=O)NCCC(C)(C)C)c(F)cc3C)c(C)nc2n1

>  <Name>  (416) 
LY-3009120

>  <Pocket>  (416) 
nan

>  <ATP_Site>  (416) 
nan

>  <Peripheral>  (416) 
nan

>  <Num_H_Atoms_ProtBoundConf>  (416) 
nan

>  <Num_Resolved_Atoms>  (416) 
nan

>  <Num_Not_Resolved_Atoms>  (416) 
nan

$$$$
CHEMBL3884015
     RDKit          3D

  0  0  0  0  0  0  0  0  0  0999 V3000
M  V30 BEGIN CTAB
M  V30 COUNTS 27 30 0 0 0
M  V30 BEGIN ATOM
M  V30 1 N -0.610294 -4.434071 1.749326 0
M  V30 2 C -0.127124 -3.405869 1.556976 0
M  V30 3 C 0.494515 -2.135836 1.328766 0
M  V30 4 C 1.804460 -1.952841 1.743939 0
M  V30 5 C 2.475623 -0.758090 1.560952 0
M  V30 6 C 3.780832 -0.564334 1.970502 0
M  V30 7 N 4.410058 0.609252 1.779706 0
M  V30 8 C 3.770669 1.635917 1.175964 0
M  V30 9 C 2.449607 1.502723 0.738830 0
M  V30 10 C 1.808148 0.282210 0.941999 0
M  V30 11 C 0.502954 0.150825 0.510022 0
M  V30 12 N -0.363130 0.981754 -0.106598 0
M  V30 13 C -1.542413 0.326019 -0.303892 0
M  V30 14 N -2.686504 0.750737 -0.876585 0
M  V30 15 C -3.770340 -0.072515 -0.978629 0
M  V30 16 C -3.661707 -1.354045 -0.478159 0
M  V30 17 C -2.483070 -1.796822 0.113709 0
M  V30 18 C -1.400662 -0.948393 0.206180 0
M  V30 19 C -0.127110 -1.071550 0.718025 0
M  V30 20 H 2.374340 -2.751352 2.240156 0
M  V30 21 H 4.315339 -1.373746 2.457656 0
M  V30 22 H 4.297495 2.570097 1.033621 0
M  V30 23 H 1.933556 2.317666 0.256467 0
M  V30 24 H -0.118608 1.961738 -0.369033 0
M  V30 25 H -4.710916 0.224227 -1.430610 0
M  V30 26 H -4.503741 -2.038972 -0.541137 0
M  V30 27 H -2.466319 -2.799092 0.480082 0
M  V30 END ATOM
M  V30 BEGIN BOND
M  V30 1 3 1 2
M  V30 2 1 2 3
M  V30 3 2 3 4
M  V30 4 1 4 5
M  V30 5 2 5 6
M  V30 6 1 6 7
M  V30 7 2 7 8
M  V30 8 1 8 9
M  V30 9 2 9 10
M  V30 10 1 10 11
M  V30 11 1 11 12
M  V30 12 1 12 13
M  V30 13 2 13 14
M  V30 14 1 14 15
M  V30 15 2 15 16
M  V30 16 1 16 17
M  V30 17 2 17 18
M  V30 18 1 18 19
M  V30 19 1 19 3
M  V30 20 1 10 5
M  V30 21 2 19 11
M  V30 22 1 18 13
M  V30 23 1 4 20
M  V30 24 1 6 21
M  V30 25 1 8 22
M  V30 26 1 9 23
M  V30 27 1 12 24
M  V30 28 1 15 25
M  V30 29 1 16 26
M  V30 30 1 17 27
M  V30 END BOND
M  V30 END CTAB
M  END
>  <Dataset>  (417) 
ChEMBL_Kinases

>  <Ligand_Instance>  (417) 
nan

>  <PDB_ID>  (417) 
nan

>  <Standardized_SMILES>  (417) 
N#Cc1cc2cnccc2c2[nH]c3ncccc3c12

>  <Name>  (417) 
nan

>  <Pocket>  (417) 
nan

>  <ATP_Site>  (417) 
nan

>  <Peripheral>  (417) 
nan

>  <Num_H_Atoms_ProtBoundConf>  (417) 
nan

>  <Num_Resolved_Atoms>  (417) 
nan

>  <Num_Not_Resolved_Atoms>  (417) 
nan

$$$$
CHEMBL2380845
     RDKit          3D

  0  0  0  0  0  0  0  0  0  0999 V3000
M  V30 BEGIN CTAB
M  V30 COUNTS 49 53 0 0 0
M  V30 BEGIN ATOM
M  V30 1 O -0.774885 -3.918812 3.721877 0
M  V30 2 C -1.788960 -3.807761 2.985825 0
M  V30 3 N -1.750463 -3.058362 1.776883 0
M  V30 4 C -0.639299 -2.356614 1.232467 0
M  V30 5 C 0.229414 -2.987869 0.370110 0
M  V30 6 C 1.327204 -2.390262 -0.203341 0
M  V30 7 C 1.554891 -1.074051 0.118944 0
M  V30 8 N 2.636734 -0.244566 -0.350194 0
M  V30 9 C 3.047732 1.069896 -0.232165 0
M  V30 10 C 4.184547 1.015870 0.606185 0
M  V30 11 C 4.824868 2.193523 0.993079 0
M  V30 12 N 4.363286 3.378238 0.570176 0
M  V30 13 C 3.301810 3.456770 -0.219162 0
M  V30 14 N 2.841302 4.644378 -0.645284 0
M  V30 15 C 1.773666 4.773987 -1.452764 0
M  V30 16 O 1.392267 5.901725 -1.811567 0
M  V30 17 C 1.145004 3.584761 -1.845848 0
M  V30 18 C 0.088099 3.729893 -2.715540 0
M  V30 19 C -0.491723 2.557221 -3.146901 0
M  V30 20 C -0.085549 1.275172 -2.769696 0
M  V30 21 C 0.976269 1.294952 -1.899796 0
M  V30 22 C 1.610415 2.386589 -1.414172 0
M  V30 23 C 2.672906 2.319556 -0.604361 0
M  V30 24 C 0.676214 -0.425474 0.994906 0
M  V30 25 C -0.423419 -1.033870 1.565652 0
M  V30 26 C -3.004435 -4.481044 3.427158 0
M  V30 27 C -2.965425 -5.188737 4.609808 0
M  V30 28 C -4.048629 -5.880851 5.155083 0
M  V30 29 C -5.237027 -5.830290 4.424336 0
M  V30 30 C -5.289437 -5.125678 3.239405 0
M  V30 31 C -4.196737 -4.455941 2.735961 0
M  V30 32 H -2.586062 -2.960356 1.159188 0
M  V30 33 H 0.077987 -4.024933 0.095963 0
M  V30 34 H 2.044065 -2.823539 -0.883258 0
M  V30 35 H 3.279181 -0.840231 -0.963011 0
M  V30 36 H 4.724013 0.183034 1.060799 0
M  V30 37 H 5.693109 2.287225 1.623385 0
M  V30 38 H 3.344829 5.524777 -0.329175 0
M  V30 39 H -0.240140 4.693762 -3.018996 0
M  V30 40 H -1.330235 2.702149 -3.834847 0
M  V30 41 H -0.668829 0.489346 -3.220740 0
M  V30 42 H 1.191843 0.276533 -1.776772 0
M  V30 43 H 0.817711 0.611386 1.276088 0
M  V30 44 H -1.082249 -0.506429 2.237662 0
M  V30 45 H -2.054150 -5.259984 5.223257 0
M  V30 46 H -3.966233 -6.422182 6.088080 0
M  V30 47 H -6.122223 -6.359092 4.809688 0
M  V30 48 H -6.222712 -5.085555 2.665180 0
M  V30 49 H -4.257642 -3.915710 1.816049 0
M  V30 END ATOM
M  V30 BEGIN BOND
M  V30 1 2 1 2
M  V30 2 1 2 3
M  V30 3 1 3 4
M  V30 4 2 4 5
M  V30 5 1 5 6
M  V30 6 2 6 7
M  V30 7 1 7 8
M  V30 8 1 8 9
M  V30 9 2 9 10
M  V30 10 1 10 11
M  V30 11 2 11 12
M  V30 12 1 12 13
M  V30 13 1 13 14
M  V30 14 1 14 15
M  V30 15 2 15 16
M  V30 16 1 15 17
M  V30 17 2 17 18
M  V30 18 1 18 19
M  V30 19 2 19 20
M  V30 20 1 20 21
M  V30 21 2 21 22
M  V30 22 1 22 23
M  V30 23 1 7 24
M  V30 24 2 24 25
M  V30 25 1 2 26
M  V30 26 2 26 27
M  V30 27 1 27 28
M  V30 28 2 28 29
M  V30 29 1 29 30
M  V30 30 2 30 31
M  V30 31 1 25 4
M  V30 32 1 31 26
M  V30 33 1 23 9
M  V30 34 2 23 13
M  V30 35 1 22 17
M  V30 36 1 3 32
M  V30 37 1 5 33
M  V30 38 1 6 34
M  V30 39 1 8 35
M  V30 40 1 10 36
M  V30 41 1 11 37
M  V30 42 1 14 38
M  V30 43 1 18 39
M  V30 44 1 19 40
M  V30 45 1 20 41
M  V30 46 1 21 42
M  V30 47 1 24 43
M  V30 48 1 25 44
M  V30 49 1 27 45
M  V30 50 1 28 46
M  V30 51 1 29 47
M  V30 52 1 30 48
M  V30 53 1 31 49
M  V30 END BOND
M  V30 END CTAB
M  END
>  <Dataset>  (418) 
ChEMBL_Kinases

>  <Ligand_Instance>  (418) 
nan

>  <PDB_ID>  (418) 
nan

>  <Standardized_SMILES>  (418) 
O=C(Nc1ccc(Nc2ccnc3[nH]c(=O)c4ccccc4c23)cc1)c1ccccc1

>  <Name>  (418) 
nan

>  <Pocket>  (418) 
nan

>  <ATP_Site>  (418) 
nan

>  <Peripheral>  (418) 
nan

>  <Num_H_Atoms_ProtBoundConf>  (418) 
nan

>  <Num_Resolved_Atoms>  (418) 
nan

>  <Num_Not_Resolved_Atoms>  (418) 
nan

$$$$
CHEMBL4777288
     RDKit          3D

  0  0  0  0  0  0  0  0  0  0999 V3000
M  V30 BEGIN CTAB
M  V30 COUNTS 43 46 0 0 0
M  V30 BEGIN ATOM
M  V30 1 C 1.471176 -5.383987 1.156494 0
M  V30 2 C 0.391545 -4.484499 0.583905 0
M  V30 3 C -0.757049 -4.479770 1.601574 0
M  V30 4 C -0.144607 -5.113237 -0.685981 0
M  V30 5 C 0.905779 -3.105088 0.374566 0
M  V30 6 C 0.768317 -2.208683 1.442115 0
M  V30 7 C 1.253157 -0.931082 1.226432 0
M  V30 8 C 1.849327 -0.483779 0.062744 0
M  V30 9 C 2.322606 0.894915 -0.042547 0
M  V30 10 C 3.495949 1.477131 -0.529474 0
M  V30 11 O 3.414481 2.779758 -0.388679 0
M  V30 12 C 2.279032 3.122923 0.154741 0
M  V30 13 C 1.717935 4.335892 0.506401 0
M  V30 14 C 0.456088 4.395390 1.084686 0
M  V30 15 C -0.243146 3.227476 1.309468 0
M  V30 16 C -1.567765 3.312585 1.918371 0
M  V30 17 C -2.271161 4.409271 2.325451 0
M  V30 18 N -3.469321 4.018937 2.839038 0
M  V30 19 N -3.542210 2.682795 2.765779 0
M  V30 20 C -2.388407 2.220129 2.204434 0
M  V30 21 N 0.313550 2.036293 0.961539 0
M  V30 22 C 1.553887 1.983242 0.393547 0
M  V30 23 C 1.971297 -1.404855 -0.985000 0
M  V30 24 C 1.496910 -2.690039 -0.802054 0
M  V30 25 H 1.956524 -4.866523 2.012727 0
M  V30 26 H 0.952123 -6.315576 1.501463 0
M  V30 27 H 2.207845 -5.696386 0.390932 0
M  V30 28 H -1.320223 -3.518860 1.548765 0
M  V30 29 H -1.489529 -5.283794 1.380606 0
M  V30 30 H -0.312869 -4.591024 2.617655 0
M  V30 31 H -1.206630 -5.464380 -0.563283 0
M  V30 32 H 0.490725 -5.934392 -1.072519 0
M  V30 33 H -0.215040 -4.295615 -1.430359 0
M  V30 34 H 0.320140 -2.469898 2.376928 0
M  V30 35 H 1.144549 -0.233503 2.061360 0
M  V30 36 H 4.239335 0.796111 -0.921605 0
M  V30 37 H 2.284835 5.240871 0.320816 0
M  V30 38 H 0.000041 5.350530 1.368060 0
M  V30 39 H -1.930075 5.452089 2.253435 0
M  V30 40 H -4.350281 2.098797 3.086613 0
M  V30 41 H -2.109805 1.185453 1.995399 0
M  V30 42 H 2.435247 -1.060045 -1.893224 0
M  V30 43 H 1.600686 -3.384954 -1.622527 0
M  V30 END ATOM
M  V30 BEGIN BOND
M  V30 1 1 1 2
M  V30 2 1 2 3
M  V30 3 1 2 4
M  V30 4 1 2 5
M  V30 5 2 5 6
M  V30 6 1 6 7
M  V30 7 2 7 8
M  V30 8 1 8 9
M  V30 9 2 9 10
M  V30 10 1 10 11
M  V30 11 1 11 12
M  V30 12 2 12 13
M  V30 13 1 13 14
M  V30 14 2 14 15
M  V30 15 1 15 16
M  V30 16 1 16 17
M  V30 17 2 17 18
M  V30 18 1 18 19
M  V30 19 1 19 20
M  V30 20 1 15 21
M  V30 21 2 21 22
M  V30 22 1 8 23
M  V30 23 2 23 24
M  V30 24 1 24 5
M  V30 25 1 22 9
M  V30 26 1 22 12
M  V30 27 2 20 16
M  V30 28 1 1 25
M  V30 29 1 1 26
M  V30 30 1 1 27
M  V30 31 1 3 28
M  V30 32 1 3 29
M  V30 33 1 3 30
M  V30 34 1 4 31
M  V30 35 1 4 32
M  V30 36 1 4 33
M  V30 37 1 6 34
M  V30 38 1 7 35
M  V30 39 1 10 36
M  V30 40 1 13 37
M  V30 41 1 14 38
M  V30 42 1 17 39
M  V30 43 1 19 40
M  V30 44 1 20 41
M  V30 45 1 23 42
M  V30 46 1 24 43
M  V30 END BOND
M  V30 END CTAB
M  END
>  <Dataset>  (419) 
ChEMBL_Kinases

>  <Ligand_Instance>  (419) 
nan

>  <PDB_ID>  (419) 
nan

>  <Standardized_SMILES>  (419) 
CC(C)(C)c1ccc(-c2coc3ccc(-c4cn[nH]c4)nc23)cc1

>  <Name>  (419) 
nan

>  <Pocket>  (419) 
nan

>  <ATP_Site>  (419) 
nan

>  <Peripheral>  (419) 
nan

>  <Num_H_Atoms_ProtBoundConf>  (419) 
nan

>  <Num_Resolved_Atoms>  (419) 
nan

>  <Num_Not_Resolved_Atoms>  (419) 
nan

$$$$
CHEMBL4089217
     RDKit          3D

  0  0  0  0  0  0  0  0  0  0999 V3000
M  V30 BEGIN CTAB
M  V30 COUNTS 55 60 0 0 0
M  V30 BEGIN ATOM
M  V30 1 C 5.306021 -2.795662 -1.486035 0
M  V30 2 N 3.884841 -2.759500 -1.225495 0
M  V30 3 C 3.307005 -2.656418 -0.026430 0
M  V30 4 C 1.935337 -2.643999 -0.047240 0
M  V30 5 C 0.822330 -2.510390 0.862512 0
M  V30 6 C 0.499136 -1.625162 1.789767 0
M  V30 7 C 1.005297 -0.404224 2.383124 0
M  V30 8 C 2.153485 -0.172571 3.099365 0
M  V30 9 Cl 3.126311 -1.575747 3.472377 0
M  V30 10 C 2.595230 1.033045 3.588520 0
M  V30 11 C 1.803903 2.131688 3.337479 0
M  V30 12 C 0.645872 2.012956 2.638596 0
M  V30 13 C -0.060701 3.158865 2.442194 0
M  V30 14 C -1.244135 3.110550 1.736186 0
M  V30 15 C -1.692110 1.894056 1.239349 0
M  V30 16 C -2.961649 1.874209 0.488240 0
M  V30 17 N -4.135030 1.653475 1.303919 0
M  V30 18 C -5.308250 1.659255 0.451756 0
M  V30 19 C -5.845170 0.473422 1.181440 0
M  V30 20 C -4.415626 0.295473 1.643489 0
M  V30 21 C -0.932189 0.767352 1.471081 0
M  V30 22 C 0.256439 0.761685 2.170148 0
M  V30 23 C -0.766050 -2.040341 2.431760 0
M  V30 24 O -1.508795 -1.572122 3.356813 0
M  V30 25 N -1.230548 -3.263873 1.843572 0
M  V30 26 C -0.234288 -3.551899 0.865175 0
M  V30 27 O -0.316518 -4.594889 0.128268 0
M  V30 28 C 1.681566 -2.752783 -1.420268 0
M  V30 29 C 0.576897 -2.801076 -2.239743 0
M  V30 30 C 0.624816 -2.907668 -3.610654 0
M  V30 31 C 1.849811 -2.972490 -4.238959 0
M  V30 32 C 2.997062 -2.928951 -3.482905 0
M  V30 33 C 2.875901 -2.820391 -2.101896 0
M  V30 34 H 5.661681 -1.805330 -1.884355 0
M  V30 35 H 5.896043 -2.989864 -0.568744 0
M  V30 36 H 5.563237 -3.596889 -2.218772 0
M  V30 37 H 3.868731 -2.593946 0.885724 0
M  V30 38 H 3.506897 1.102618 4.133802 0
M  V30 39 H 2.151066 3.081323 3.722154 0
M  V30 40 H 0.245075 4.115609 2.805100 0
M  V30 41 H -1.814406 4.012322 1.573561 0
M  V30 42 H -2.948023 1.124384 -0.332086 0
M  V30 43 H -3.106380 2.865006 0.012995 0
M  V30 44 H -5.916187 2.585125 0.513860 0
M  V30 45 H -5.070968 1.372917 -0.606587 0
M  V30 46 H -6.571110 0.773899 1.969691 0
M  V30 47 H -6.213310 -0.360211 0.531345 0
M  V30 48 H -3.888737 -0.474312 1.038495 0
M  V30 49 H -4.448071 0.065370 2.735719 0
M  V30 50 H -1.342125 -0.114351 1.053801 0
M  V30 51 H -2.079332 -3.854060 2.034808 0
M  V30 52 H -0.409732 -2.747204 -1.829649 0
M  V30 53 H -0.266428 -2.942456 -4.215297 0
M  V30 54 H 1.880047 -3.056388 -5.315012 0
M  V30 55 H 3.950913 -2.980370 -3.978810 0
M  V30 END ATOM
M  V30 BEGIN BOND
M  V30 1 1 1 2
M  V30 2 1 2 3
M  V30 3 2 3 4
M  V30 4 1 4 5
M  V30 5 2 5 6
M  V30 6 1 6 7
M  V30 7 2 7 8
M  V30 8 1 8 9
M  V30 9 1 8 10
M  V30 10 2 10 11
M  V30 11 1 11 12
M  V30 12 2 12 13
M  V30 13 1 13 14
M  V30 14 2 14 15
M  V30 15 1 15 16
M  V30 16 1 16 17
M  V30 17 1 17 18
M  V30 18 1 18 19
M  V30 19 1 19 20
M  V30 20 1 15 21
M  V30 21 2 21 22
M  V30 22 1 6 23
M  V30 23 2 23 24
M  V30 24 1 23 25
M  V30 25 1 25 26
M  V30 26 2 26 27
M  V30 27 1 4 28
M  V30 28 2 28 29
M  V30 29 1 29 30
M  V30 30 2 30 31
M  V30 31 1 31 32
M  V30 32 2 32 33
M  V30 33 1 33 2
M  V30 34 1 26 5
M  V30 35 1 33 28
M  V30 36 1 22 7
M  V30 37 1 22 12
M  V30 38 1 20 17
M  V30 39 1 1 34
M  V30 40 1 1 35
M  V30 41 1 1 36
M  V30 42 1 3 37
M  V30 43 1 10 38
M  V30 44 1 11 39
M  V30 45 1 13 40
M  V30 46 1 14 41
M  V30 47 1 16 42
M  V30 48 1 16 43
M  V30 49 1 18 44
M  V30 50 1 18 45
M  V30 51 1 19 46
M  V30 52 1 19 47
M  V30 53 1 20 48
M  V30 54 1 20 49
M  V30 55 1 21 50
M  V30 56 1 25 51
M  V30 57 1 29 52
M  V30 58 1 30 53
M  V30 59 1 31 54
M  V30 60 1 32 55
M  V30 END BOND
M  V30 END CTAB
M  END
>  <Dataset>  (420) 
ChEMBL_Kinases

>  <Ligand_Instance>  (420) 
nan

>  <PDB_ID>  (420) 
nan

>  <Standardized_SMILES>  (420) 
Cn1cc(C2=C(c3c(Cl)ccc4ccc(CN5CCC5)cc34)C(=O)NC2=O)c2ccccc21

>  <Name>  (420) 
nan

>  <Pocket>  (420) 
nan

>  <ATP_Site>  (420) 
nan

>  <Peripheral>  (420) 
nan

>  <Num_H_Atoms_ProtBoundConf>  (420) 
nan

>  <Num_Resolved_Atoms>  (420) 
nan

>  <Num_Not_Resolved_Atoms>  (420) 
nan

$$$$
CHEMBL4778370
     RDKit          3D

  0  0  0  0  0  0  0  0  0  0999 V3000
M  V30 BEGIN CTAB
M  V30 COUNTS 41 45 0 0 0
M  V30 BEGIN ATOM
M  V30 1 C 1.387391 -6.811319 1.829412 0
M  V30 2 C 2.163217 -5.823825 2.428365 0
M  V30 3 C 2.178737 -4.502184 1.974740 0
M  V30 4 C 1.389287 -4.172163 0.887772 0
M  V30 5 C 1.313802 -2.832009 0.315394 0
M  V30 6 C 1.077892 -2.648060 -1.033048 0
M  V30 7 C 1.000005 -1.397662 -1.610393 0
M  V30 8 C 1.167389 -0.302848 -0.789794 0
M  V30 9 C 1.121002 1.110079 -1.206003 0
M  V30 10 C 1.670247 1.799241 -2.273317 0
M  V30 11 O 1.336386 3.049100 -2.199490 0
M  V30 12 C 0.586388 3.309819 -1.156077 0
M  V30 13 C -0.048140 4.384926 -0.567773 0
M  V30 14 C -0.791709 4.285013 0.590194 0
M  V30 15 C -0.916572 3.054561 1.202891 0
M  V30 16 C -1.693664 2.903903 2.430257 0
M  V30 17 C -2.394134 3.838154 3.166463 0
M  V30 18 N -2.961037 3.217571 4.239102 0
M  V30 19 N -2.644114 1.932624 4.204599 0
M  V30 20 C -1.868798 1.714235 3.107261 0
M  V30 21 N -0.301391 2.000735 0.636434 0
M  V30 22 C 0.423834 2.090180 -0.490217 0
M  V30 23 C 1.406593 -0.489200 0.577498 0
M  V30 24 C 1.482392 -1.762864 1.145805 0
M  V30 25 C 0.623431 -5.166674 0.303607 0
M  V30 26 C 0.608695 -6.469570 0.751541 0
M  V30 27 H 1.399986 -7.826180 2.207935 0
M  V30 28 H 2.766614 -6.095441 3.265644 0
M  V30 29 H 2.774797 -3.739437 2.433412 0
M  V30 30 H 0.940905 -3.504842 -1.709555 0
M  V30 31 H 0.819812 -1.179396 -2.648291 0
M  V30 32 H 2.274610 1.282342 -3.008462 0
M  V30 33 H 0.095619 5.330597 -1.111102 0
M  V30 34 H -1.257075 5.179022 0.985651 0
M  V30 35 H -2.466104 4.892397 2.910302 0
M  V30 36 H -2.869700 1.112183 4.830071 0
M  V30 37 H -1.430261 0.760582 2.774524 0
M  V30 38 H 1.544487 0.363078 1.258138 0
M  V30 39 H 1.670239 -1.840915 2.212627 0
M  V30 40 H -0.008870 -4.937253 -0.554776 0
M  V30 41 H -0.019356 -7.204549 0.243741 0
M  V30 END ATOM
M  V30 BEGIN BOND
M  V30 1 2 1 2
M  V30 2 1 2 3
M  V30 3 2 3 4
M  V30 4 1 4 5
M  V30 5 2 5 6
M  V30 6 1 6 7
M  V30 7 2 7 8
M  V30 8 1 8 9
M  V30 9 2 9 10
M  V30 10 1 10 11
M  V30 11 1 11 12
M  V30 12 2 12 13
M  V30 13 1 13 14
M  V30 14 2 14 15
M  V30 15 1 15 16
M  V30 16 1 16 17
M  V30 17 2 17 18
M  V30 18 1 18 19
M  V30 19 1 19 20
M  V30 20 1 15 21
M  V30 21 2 21 22
M  V30 22 1 8 23
M  V30 23 2 23 24
M  V30 24 1 4 25
M  V30 25 2 25 26
M  V30 26 1 26 1
M  V30 27 1 24 5
M  V30 28 1 22 9
M  V30 29 1 22 12
M  V30 30 2 20 16
M  V30 31 1 1 27
M  V30 32 1 2 28
M  V30 33 1 3 29
M  V30 34 1 6 30
M  V30 35 1 7 31
M  V30 36 1 10 32
M  V30 37 1 13 33
M  V30 38 1 14 34
M  V30 39 1 17 35
M  V30 40 1 19 36
M  V30 41 1 20 37
M  V30 42 1 23 38
M  V30 43 1 24 39
M  V30 44 1 25 40
M  V30 45 1 26 41
M  V30 END BOND
M  V30 END CTAB
M  END
>  <Dataset>  (421) 
ChEMBL_Kinases

>  <Ligand_Instance>  (421) 
nan

>  <PDB_ID>  (421) 
nan

>  <Standardized_SMILES>  (421) 
c1ccc(-c2ccc(-c3coc4ccc(-c5cn[nH]c5)nc34)cc2)cc1

>  <Name>  (421) 
nan

>  <Pocket>  (421) 
nan

>  <ATP_Site>  (421) 
nan

>  <Peripheral>  (421) 
nan

>  <Num_H_Atoms_ProtBoundConf>  (421) 
nan

>  <Num_Resolved_Atoms>  (421) 
nan

>  <Num_Not_Resolved_Atoms>  (421) 
nan

$$$$
CHEMBL573578
     RDKit          3D

  0  0  0  0  0  0  0  0  0  0999 V3000
M  V30 BEGIN CTAB
M  V30 COUNTS 46 49 0 0 0
M  V30 BEGIN ATOM
M  V30 1 C 0.965410 -4.126353 1.477048 0
M  V30 2 C -0.413806 -3.778142 1.009373 0
M  V30 3 C -1.338403 -3.788412 2.214473 0
M  V30 4 C -0.923298 -4.836445 0.053747 0
M  V30 5 N -0.431493 -2.476947 0.329771 0
M  V30 6 N 0.600984 -1.723363 0.185461 0
M  V30 7 C 0.314576 -0.566966 -0.482381 0
M  V30 8 C 1.244596 0.518087 -0.800745 0
M  V30 9 C 1.250605 1.691088 0.055346 0
M  V30 10 C 0.677657 2.917725 -0.215413 0
M  V30 11 C 0.659633 4.035611 0.587163 0
M  V30 12 C 1.277047 3.966290 1.816951 0
M  V30 13 C 1.880232 2.781615 2.176681 0
M  V30 14 C 2.498011 2.766341 3.407089 0
M  V30 15 C 3.139804 1.624059 3.833241 0
M  V30 16 C 3.156320 0.508992 3.021526 0
M  V30 17 C 2.514069 0.607924 1.806107 0
M  V30 18 C 1.851822 1.708836 1.311647 0
M  V30 19 C -1.029495 -0.719019 -0.726093 0
M  V30 20 C -1.960801 0.048010 -1.360214 0
M  V30 21 N -1.585155 1.262340 -1.932284 0
M  V30 22 N -3.241676 -0.324155 -1.482509 0
M  V30 23 C -3.680339 -1.511245 -0.968423 0
M  V30 24 N -2.804848 -2.303288 -0.336750 0
M  V30 25 C -1.520913 -1.923434 -0.218140 0
M  V30 26 H 1.098183 -5.226383 1.417093 0
M  V30 27 H 1.743456 -3.701948 0.800534 0
M  V30 28 H 1.127974 -3.801551 2.524078 0
M  V30 29 H -1.337570 -4.850284 2.564796 0
M  V30 30 H -0.962680 -3.180441 3.054096 0
M  V30 31 H -2.381877 -3.563103 1.926213 0
M  V30 32 H -1.345333 -5.681376 0.650773 0
M  V30 33 H -0.104440 -5.163854 -0.612132 0
M  V30 34 H -1.751605 -4.448282 -0.570513 0
M  V30 35 H 2.304043 0.125696 -0.797996 0
M  V30 36 H 1.129869 0.863877 -1.876292 0
M  V30 37 H 0.184887 3.094115 -1.158031 0
M  V30 38 H 0.191438 4.967168 0.315902 0
M  V30 39 H 1.284954 4.819895 2.475439 0
M  V30 40 H 2.490405 3.631121 4.047137 0
M  V30 41 H 3.612644 1.650270 4.804778 0
M  V30 42 H 3.657532 -0.361826 3.368318 0
M  V30 43 H 2.587595 -0.293280 1.221973 0
M  V30 44 H -1.096730 1.628909 -2.784347 0
M  V30 45 H -1.944994 1.961245 -1.216959 0
M  V30 46 H -4.699992 -1.875584 -1.029631 0
M  V30 END ATOM
M  V30 BEGIN BOND
M  V30 1 1 1 2
M  V30 2 1 2 3
M  V30 3 1 2 4
M  V30 4 1 2 5
M  V30 5 1 5 6
M  V30 6 2 6 7
M  V30 7 1 7 8
M  V30 8 1 8 9
M  V30 9 2 9 10
M  V30 10 1 10 11
M  V30 11 2 11 12
M  V30 12 1 12 13
M  V30 13 2 13 14
M  V30 14 1 14 15
M  V30 15 2 15 16
M  V30 16 1 16 17
M  V30 17 2 17 18
M  V30 18 1 7 19
M  V30 19 2 19 20
M  V30 20 1 20 21
M  V30 21 1 20 22
M  V30 22 2 22 23
M  V30 23 1 23 24
M  V30 24 2 24 25
M  V30 25 1 25 5
M  V30 26 1 18 9
M  V30 27 1 25 19
M  V30 28 1 18 13
M  V30 29 1 1 26
M  V30 30 1 1 27
M  V30 31 1 1 28
M  V30 32 1 3 29
M  V30 33 1 3 30
M  V30 34 1 3 31
M  V30 35 1 4 32
M  V30 36 1 4 33
M  V30 37 1 4 34
M  V30 38 1 8 35
M  V30 39 1 8 36
M  V30 40 1 10 37
M  V30 41 1 11 38
M  V30 42 1 12 39
M  V30 43 1 14 40
M  V30 44 1 15 41
M  V30 45 1 16 42
M  V30 46 1 17 43
M  V30 47 1 21 44
M  V30 48 1 21 45
M  V30 49 1 23 46
M  V30 END BOND
M  V30 END CTAB
M  END
>  <Dataset>  (422) 
ChEMBL_Kinases

>  <Ligand_Instance>  (422) 
nan

>  <PDB_ID>  (422) 
nan

>  <Standardized_SMILES>  (422) 
CC(C)(C)n1nc(Cc2cccc3ccccc23)c2c(N)ncnc21

>  <Name>  (422) 
nan

>  <Pocket>  (422) 
nan

>  <ATP_Site>  (422) 
nan

>  <Peripheral>  (422) 
nan

>  <Num_H_Atoms_ProtBoundConf>  (422) 
nan

>  <Num_Resolved_Atoms>  (422) 
nan

>  <Num_Not_Resolved_Atoms>  (422) 
nan

$$$$
CHEMBL4228654
     RDKit          3D

  0  0  0  0  0  0  0  0  0  0999 V3000
M  V30 BEGIN CTAB
M  V30 COUNTS 47 50 0 0 0
M  V30 BEGIN ATOM
M  V30 1 C 0.357192 -3.304966 2.146706 0
M  V30 2 C 1.427532 -3.364736 3.198959 0
M  V30 3 C 1.169274 -2.291530 4.231661 0
M  V30 4 N 2.772032 -3.264837 2.656829 0
M  V30 5 C 3.257666 -2.138594 1.938428 0
M  V30 6 C 4.553922 -2.063082 1.415682 0
M  V30 7 C 5.003455 -0.958658 0.724840 0
M  V30 8 C 4.189146 0.134205 0.514345 0
M  V30 9 C 4.382297 1.339699 -0.127981 0
M  V30 10 N 3.203747 1.993069 0.006105 0
M  V30 11 N 2.344001 1.272196 0.669885 0
M  V30 12 C 1.016817 1.689630 0.971304 0
M  V30 13 C 0.800997 2.598099 1.992022 0
M  V30 14 N -0.449831 3.021630 2.310871 0
M  V30 15 C -1.484512 2.521757 1.591779 0
M  V30 16 C -1.307060 1.615238 0.568074 0
M  V30 17 C -2.398463 1.059163 -0.223795 0
M  V30 18 C -2.071893 0.160731 -1.217843 0
M  V30 19 C -3.082661 -0.401418 -2.005829 0
M  V30 20 C -4.415244 -0.058920 -1.791933 0
M  V30 21 C -5.515306 -0.608501 -2.577648 0
M  V30 22 O -6.729459 -0.292181 -2.377810 0
M  V30 23 O -5.219260 -1.516194 -3.586658 0
M  V30 24 C -4.739278 0.840795 -0.796052 0
M  V30 25 C -3.725411 1.382259 -0.031555 0
M  V30 26 N -0.057496 1.214212 0.275075 0
M  V30 27 C 2.902770 0.095930 1.015836 0
M  V30 28 C 2.499029 -1.013519 1.691893 0
M  V30 29 H -0.328765 -2.485739 2.378904 0
M  V30 30 H -0.204160 -4.279632 2.078176 0
M  V30 31 H 0.836435 -3.082271 1.162538 0
M  V30 32 H 1.364502 -4.382540 3.684852 0
M  V30 33 H 2.046267 -1.625719 4.328343 0
M  V30 34 H 0.238302 -1.709501 3.996253 0
M  V30 35 H 0.956083 -2.771835 5.208652 0
M  V30 36 H 3.481961 -4.049249 2.771930 0
M  V30 37 H 5.221449 -2.907178 1.563765 0
M  V30 38 H 6.031234 -0.982941 0.350131 0
M  V30 39 H 5.302201 1.610715 -0.601756 0
M  V30 40 H 1.603941 3.012618 2.580812 0
M  V30 41 H -2.464235 2.850350 1.837893 0
M  V30 42 H -1.089645 -0.172012 -1.468321 0
M  V30 43 H -2.889127 -1.103345 -2.790871 0
M  V30 44 H -5.909741 -1.756778 -4.300270 0
M  V30 45 H -5.776820 1.107500 -0.629470 0
M  V30 46 H -3.994117 2.078379 0.736510 0
M  V30 47 H 1.480318 -0.956571 2.050336 0
M  V30 END ATOM
M  V30 BEGIN BOND
M  V30 1 1 1 2
M  V30 2 1 2 3
M  V30 3 1 2 4
M  V30 4 1 4 5
M  V30 5 2 5 6
M  V30 6 1 6 7
M  V30 7 2 7 8
M  V30 8 1 8 9
M  V30 9 2 9 10
M  V30 10 1 10 11
M  V30 11 1 11 12
M  V30 12 2 12 13
M  V30 13 1 13 14
M  V30 14 2 14 15
M  V30 15 1 15 16
M  V30 16 1 16 17
M  V30 17 2 17 18
M  V30 18 1 18 19
M  V30 19 2 19 20
M  V30 20 1 20 21
M  V30 21 2 21 22
M  V30 22 1 21 23
M  V30 23 1 20 24
M  V30 24 2 24 25
M  V30 25 2 16 26
M  V30 26 1 11 27
M  V30 27 2 27 28
M  V30 28 1 28 5
M  V30 29 1 27 8
M  V30 30 1 26 12
M  V30 31 1 25 17
M  V30 32 1 1 29
M  V30 33 1 1 30
M  V30 34 1 1 31
M  V30 35 1 2 32
M  V30 36 1 3 33
M  V30 37 1 3 34
M  V30 38 1 3 35
M  V30 39 1 4 36
M  V30 40 1 6 37
M  V30 41 1 7 38
M  V30 42 1 9 39
M  V30 43 1 13 40
M  V30 44 1 15 41
M  V30 45 1 18 42
M  V30 46 1 19 43
M  V30 47 1 23 44
M  V30 48 1 24 45
M  V30 49 1 25 46
M  V30 50 1 28 47
M  V30 END BOND
M  V30 END CTAB
M  END
>  <Dataset>  (423) 
ChEMBL_Kinases

>  <Ligand_Instance>  (423) 
nan

>  <PDB_ID>  (423) 
nan

>  <Standardized_SMILES>  (423) 
CC(C)Nc1ccc2cnn(-c3cncc(-c4ccc(C(=O)O)cc4)n3)c2c1

>  <Name>  (423) 
nan

>  <Pocket>  (423) 
nan

>  <ATP_Site>  (423) 
nan

>  <Peripheral>  (423) 
nan

>  <Num_H_Atoms_ProtBoundConf>  (423) 
nan

>  <Num_Resolved_Atoms>  (423) 
nan

>  <Num_Not_Resolved_Atoms>  (423) 
nan

$$$$
CHEMBL4097256
     RDKit          3D

  0  0  0  0  0  0  0  0  0  0999 V3000
M  V30 BEGIN CTAB
M  V30 COUNTS 31 33 0 0 0
M  V30 BEGIN ATOM
M  V30 1 F 4.844044 -1.994333 2.046228 0
M  V30 2 C 4.250818 -3.216523 2.290633 0
M  V30 3 F 3.773758 -3.217199 3.582954 0
M  V30 4 F 5.106465 -4.225116 1.990812 0
M  V30 5 C 3.026769 -3.237311 1.411391 0
M  V30 6 C 2.746447 -4.352978 0.650915 0
M  V30 7 C 1.612416 -4.309833 -0.132558 0
M  V30 8 C 0.787067 -3.208103 -0.164107 0
M  V30 9 C 1.049916 -2.089506 0.585438 0
M  V30 10 C 0.170147 -0.923280 0.547705 0
M  V30 11 C 0.322601 0.197400 1.220236 0
M  V30 12 C -0.575442 1.344176 1.159758 0
M  V30 13 C -0.450608 2.533520 1.847334 0
M  V30 14 N -1.476380 3.343300 1.526310 0
M  V30 15 C -2.262710 2.701363 0.644379 0
M  V30 16 C -3.424991 3.123285 0.031136 0
M  V30 17 C -4.064615 2.275063 -0.850380 0
M  V30 18 C -3.474635 1.043778 -1.051239 0
M  V30 19 Cl -4.213534 -0.120943 -2.162561 0
M  V30 20 N -2.335928 0.723019 -0.403771 0
M  V30 21 N -1.700374 1.497361 0.437636 0
M  V30 22 C 2.185800 -2.148024 1.362470 0
M  V30 23 H 3.430022 -5.188262 0.715905 0
M  V30 24 H 1.406362 -5.185963 -0.719806 0
M  V30 25 H -0.070662 -3.256147 -0.797331 0
M  V30 26 H -0.699553 -0.968617 -0.092897 0
M  V30 27 H 1.188161 0.256761 1.864953 0
M  V30 28 H 0.358331 2.757967 2.535194 0
M  V30 29 H -3.842057 4.107273 0.230385 0
M  V30 30 H -4.978993 2.532682 -1.370254 0
M  V30 31 H 2.465995 -1.319122 1.978593 0
M  V30 END ATOM
M  V30 BEGIN BOND
M  V30 1 1 1 2
M  V30 2 1 2 3
M  V30 3 1 2 4
M  V30 4 1 2 5
M  V30 5 2 5 6
M  V30 6 1 6 7
M  V30 7 2 7 8
M  V30 8 1 8 9
M  V30 9 1 9 10
M  V30 10 2 10 11
M  V30 11 1 11 12
M  V30 12 2 12 13
M  V30 13 1 13 14
M  V30 14 2 14 15
M  V30 15 1 15 16
M  V30 16 2 16 17
M  V30 17 1 17 18
M  V30 18 1 18 19
M  V30 19 2 18 20
M  V30 20 1 20 21
M  V30 21 2 9 22
M  V30 22 1 22 5
M  V30 23 1 21 12
M  V30 24 1 21 15
M  V30 25 1 6 23
M  V30 26 1 7 24
M  V30 27 1 8 25
M  V30 28 1 10 26
M  V30 29 1 11 27
M  V30 30 1 13 28
M  V30 31 1 16 29
M  V30 32 1 17 30
M  V30 33 1 22 31
M  V30 END BOND
M  V30 END CTAB
M  END
>  <Dataset>  (424) 
ChEMBL_Kinases

>  <Ligand_Instance>  (424) 
nan

>  <PDB_ID>  (424) 
nan

>  <Standardized_SMILES>  (424) 
FC(F)(F)c1cccc(/C=C/c2cnc3ccc(Cl)nn23)c1

>  <Name>  (424) 
nan

>  <Pocket>  (424) 
nan

>  <ATP_Site>  (424) 
nan

>  <Peripheral>  (424) 
nan

>  <Num_H_Atoms_ProtBoundConf>  (424) 
nan

>  <Num_Resolved_Atoms>  (424) 
nan

>  <Num_Not_Resolved_Atoms>  (424) 
nan

$$$$
CHEMBL4102228
     RDKit          3D

  0  0  0  0  0  0  0  0  0  0999 V3000
M  V30 BEGIN CTAB
M  V30 COUNTS 51 55 0 0 0
M  V30 BEGIN ATOM
M  V30 1 C -0.400032 0.303884 4.365405 0
M  V30 2 N -0.120212 -0.905319 3.705434 0
M  V30 3 C -1.044580 -1.971564 3.839137 0
M  V30 4 C 1.162103 -1.164735 3.221932 0
M  V30 5 C 1.738285 -0.262524 2.225982 0
M  V30 6 C 2.505334 0.836734 2.634349 0
M  V30 7 C 3.040365 1.677869 1.679897 0
M  V30 8 C 2.839599 1.465518 0.332322 0
M  V30 9 C 3.374860 2.276293 -0.642417 0
M  V30 10 C 3.175488 2.036002 -1.973705 0
M  V30 11 C 2.406778 0.937844 -2.319248 0
M  V30 12 Cl 2.225778 0.749997 -4.074199 0
M  V30 13 C 1.824138 0.061782 -1.390047 0
M  V30 14 C 1.048401 -1.051668 -1.916704 0
M  V30 15 C -0.192822 -1.539569 -1.773759 0
M  V30 16 C -1.252189 -1.007331 -0.936157 0
M  V30 17 C -1.441667 0.370788 -0.939831 0
M  V30 18 N -2.458634 0.708208 -0.099037 0
M  V30 19 C -2.911224 -0.452098 0.435605 0
M  V30 20 C -3.924449 -0.737907 1.354831 0
M  V30 21 C -4.159225 -2.045127 1.724221 0
M  V30 22 C -3.394322 -3.063129 1.185964 0
M  V30 23 C -2.368853 -2.832289 0.262945 0
M  V30 24 C -2.186605 -1.506733 -0.063853 0
M  V30 25 C -0.329339 -2.727732 -2.623197 0
M  V30 26 O -1.307065 -3.499693 -2.809371 0
M  V30 27 N 0.908111 -2.976452 -3.324160 0
M  V30 28 C 1.764519 -1.922206 -2.875320 0
M  V30 29 O 2.946604 -1.887112 -3.336344 0
M  V30 30 C 2.088300 0.392353 -0.087458 0
M  V30 31 C 1.565450 -0.434134 0.877157 0
M  V30 32 H -1.095613 0.996624 3.863367 0
M  V30 33 H -0.904352 0.044239 5.343217 0
M  V30 34 H 0.539716 0.813204 4.690207 0
M  V30 35 H -0.962929 -2.382269 4.869602 0
M  V30 36 H -2.086614 -1.584582 3.764319 0
M  V30 37 H -0.854762 -2.813567 3.153677 0
M  V30 38 H 1.856142 -1.224821 4.109603 0
M  V30 39 H 1.188156 -2.185806 2.792357 0
M  V30 40 H 2.701464 1.061784 3.674135 0
M  V30 41 H 3.638470 2.533334 1.999535 0
M  V30 42 H 3.969665 3.125748 -0.321455 0
M  V30 43 H 3.622198 2.706531 -2.660337 0
M  V30 44 H -0.945282 1.186932 -1.469604 0
M  V30 45 H -2.856843 1.644448 0.131596 0
M  V30 46 H -4.472080 0.096043 1.726775 0
M  V30 47 H -4.945972 -2.226122 2.432559 0
M  V30 48 H -3.607510 -4.077483 1.499236 0
M  V30 49 H -1.766447 -3.624392 -0.154190 0
M  V30 50 H 1.109849 -3.756012 -4.001407 0
M  V30 51 H 0.997553 -1.290491 0.621094 0
M  V30 END ATOM
M  V30 BEGIN BOND
M  V30 1 1 1 2
M  V30 2 1 2 3
M  V30 3 1 2 4
M  V30 4 1 4 5
M  V30 5 2 5 6
M  V30 6 1 6 7
M  V30 7 2 7 8
M  V30 8 1 8 9
M  V30 9 2 9 10
M  V30 10 1 10 11
M  V30 11 1 11 12
M  V30 12 2 11 13
M  V30 13 1 13 14
M  V30 14 2 14 15
M  V30 15 1 15 16
M  V30 16 2 16 17
M  V30 17 1 17 18
M  V30 18 1 18 19
M  V30 19 2 19 20
M  V30 20 1 20 21
M  V30 21 2 21 22
M  V30 22 1 22 23
M  V30 23 2 23 24
M  V30 24 1 15 25
M  V30 25 2 25 26
M  V30 26 1 25 27
M  V30 27 1 27 28
M  V30 28 2 28 29
M  V30 29 1 13 30
M  V30 30 2 30 31
M  V30 31 1 31 5
M  V30 32 1 30 8
M  V30 33 1 28 14
M  V30 34 1 24 16
M  V30 35 1 24 19
M  V30 36 1 1 32
M  V30 37 1 1 33
M  V30 38 1 1 34
M  V30 39 1 3 35
M  V30 40 1 3 36
M  V30 41 1 3 37
M  V30 42 1 4 38
M  V30 43 1 4 39
M  V30 44 1 6 40
M  V30 45 1 7 41
M  V30 46 1 9 42
M  V30 47 1 10 43
M  V30 48 1 17 44
M  V30 49 1 18 45
M  V30 50 1 20 46
M  V30 51 1 21 47
M  V30 52 1 22 48
M  V30 53 1 23 49
M  V30 54 1 27 50
M  V30 55 1 31 51
M  V30 END BOND
M  V30 END CTAB
M  END
>  <Dataset>  (425) 
ChEMBL_Kinases

>  <Ligand_Instance>  (425) 
nan

>  <PDB_ID>  (425) 
nan

>  <Standardized_SMILES>  (425) 
CN(C)Cc1ccc2ccc(Cl)c(C3=C(c4c[nH]c5ccccc45)C(=O)NC3=O)c2c1

>  <Name>  (425) 
nan

>  <Pocket>  (425) 
nan

>  <ATP_Site>  (425) 
nan

>  <Peripheral>  (425) 
nan

>  <Num_H_Atoms_ProtBoundConf>  (425) 
nan

>  <Num_Resolved_Atoms>  (425) 
nan

>  <Num_Not_Resolved_Atoms>  (425) 
nan

$$$$
CHEMBL3668457
     RDKit          3D

  0  0  0  0  0  0  0  0  0  0999 V3000
M  V30 BEGIN CTAB
M  V30 COUNTS 53 56 0 0 0
M  V30 BEGIN ATOM
M  V30 1 C 4.409835 0.146601 -1.692319 0
M  V30 2 O 3.777728 0.583374 -0.503523 0
M  V30 3 C 4.266602 0.093379 0.699424 0
M  V30 4 C 5.328334 -0.786105 0.755795 0
M  V30 5 C 5.806573 -1.267680 1.956015 0
M  V30 6 C 5.211008 -0.863027 3.143014 0
M  V30 7 F 5.632164 -1.297265 4.348081 0
M  V30 8 C 4.146594 0.013414 3.157200 0
M  V30 9 C 3.699542 0.472687 1.914438 0
M  V30 10 C 2.571119 1.416173 1.810406 0
M  V30 11 C 2.880028 2.764348 1.851816 0
M  V30 12 C 1.819923 3.644584 1.752569 0
M  V30 13 N 0.543378 3.229596 1.621551 0
M  V30 14 C 0.312965 1.902020 1.588087 0
M  V30 15 N -0.877729 1.281459 1.461882 0
M  V30 16 C -0.627100 -0.036243 1.475677 0
M  V30 17 C -1.649651 -1.065942 1.352243 0
M  V30 18 C -1.467454 -2.373992 1.373887 0
M  V30 19 C -2.367003 -3.516215 1.265159 0
M  V30 20 N -3.572260 -3.045375 0.482280 0
M  V30 21 C -3.150278 -2.719267 -0.831433 0
M  V30 22 C -4.175413 -2.582325 -1.903816 0
M  V30 23 O -3.523176 -2.217916 -3.126569 0
M  V30 24 C -5.298024 -1.667442 -1.613660 0
M  V30 25 O -6.218527 -1.619674 -2.694872 0
M  V30 26 C -3.982427 -1.903175 1.307075 0
M  V30 27 C -3.089481 -0.712297 1.165385 0
M  V30 28 C 0.716890 -0.328570 1.609617 0
M  V30 29 C 1.298581 0.940472 1.679414 0
M  V30 30 H 4.414421 -0.972180 -1.661723 0
M  V30 31 H 3.836385 0.404952 -2.595875 0
M  V30 32 H 5.471029 0.443026 -1.771119 0
M  V30 33 H 5.798806 -1.108539 -0.165975 0
M  V30 34 H 6.652633 -1.969399 2.023809 0
M  V30 35 H 3.610976 0.393568 4.005340 0
M  V30 36 H 3.919631 3.085710 1.958800 0
M  V30 37 H 2.093045 4.689831 1.788634 0
M  V30 38 H -1.830698 1.716278 1.369291 0
M  V30 39 H -0.420168 -2.699141 1.501452 0
M  V30 40 H -1.956022 -4.340479 0.686562 0
M  V30 41 H -2.807492 -3.781662 2.246542 0
M  V30 42 H -2.545142 -1.768107 -0.756607 0
M  V30 43 H -2.411016 -3.507717 -1.211120 0
M  V30 44 H -4.622208 -3.584667 -2.156313 0
M  V30 45 H -3.860068 -1.379287 -3.482990 0
M  V30 46 H -5.930302 -2.112072 -0.786887 0
M  V30 47 H -5.032490 -0.656981 -1.315383 0
M  V30 48 H -6.917562 -0.940110 -2.473723 0
M  V30 49 H -3.879937 -2.290931 2.384779 0
M  V30 50 H -5.022783 -1.675020 1.159244 0
M  V30 51 H -3.359825 -0.026330 2.017668 0
M  V30 52 H -3.288999 -0.174406 0.241394 0
M  V30 53 H 1.251110 -1.245914 1.656981 0
M  V30 END ATOM
M  V30 BEGIN BOND
M  V30 1 1 1 2
M  V30 2 1 2 3
M  V30 3 2 3 4
M  V30 4 1 4 5
M  V30 5 2 5 6
M  V30 6 1 6 7
M  V30 7 1 6 8
M  V30 8 2 8 9
M  V30 9 1 9 10
M  V30 10 2 10 11
M  V30 11 1 11 12
M  V30 12 2 12 13
M  V30 13 1 13 14
M  V30 14 1 14 15
M  V30 15 1 15 16
M  V30 16 1 16 17
M  V30 17 2 17 18
M  V30 18 1 18 19
M  V30 19 1 19 20
M  V30 20 1 20 21
M  V30 21 1 21 22
M  V30 22 1 22 23
M  V30 23 1 22 24
M  V30 24 1 24 25
M  V30 25 1 20 26
M  V30 26 1 26 27
M  V30 27 2 16 28
M  V30 28 1 28 29
M  V30 29 1 9 3
M  V30 30 1 29 10
M  V30 31 2 29 14
M  V30 32 1 27 17
M  V30 33 1 1 30
M  V30 34 1 1 31
M  V30 35 1 1 32
M  V30 36 1 4 33
M  V30 37 1 5 34
M  V30 38 1 8 35
M  V30 39 1 11 36
M  V30 40 1 12 37
M  V30 41 1 15 38
M  V30 42 1 18 39
M  V30 43 1 19 40
M  V30 44 1 19 41
M  V30 45 1 21 42
M  V30 46 1 21 43
M  V30 47 1 22 44
M  V30 48 1 23 45
M  V30 49 1 24 46
M  V30 50 1 24 47
M  V30 51 1 25 48
M  V30 52 1 26 49
M  V30 53 1 26 50
M  V30 54 1 27 51
M  V30 55 1 27 52
M  V30 56 1 28 53
M  V30 END BOND
M  V30 END CTAB
M  END
>  <Dataset>  (426) 
ChEMBL_Kinases

>  <Ligand_Instance>  (426) 
nan

>  <PDB_ID>  (426) 
nan

>  <Standardized_SMILES>  (426) 
COc1ccc(F)cc1-c1ccnc2[nH]c(C3=CCN(CC(O)CO)CC3)cc12

>  <Name>  (426) 
nan

>  <Pocket>  (426) 
nan

>  <ATP_Site>  (426) 
nan

>  <Peripheral>  (426) 
nan

>  <Num_H_Atoms_ProtBoundConf>  (426) 
nan

>  <Num_Resolved_Atoms>  (426) 
nan

>  <Num_Not_Resolved_Atoms>  (426) 
nan

$$$$
CHEMBL4790030
     RDKit          3D

  0  0  0  0  0  0  0  0  0  0999 V3000
M  V30 BEGIN CTAB
M  V30 COUNTS 31 34 0 0 0
M  V30 BEGIN ATOM
M  V30 1 C -1.395919 -1.088110 4.756197 0
M  V30 2 C -1.278107 -0.049978 3.825350 0
M  V30 3 C -0.233963 -0.176230 2.933870 0
M  V30 4 C 0.683598 -1.203702 2.873544 0
M  V30 5 C 1.746848 -1.215731 1.873828 0
M  V30 6 C 3.090838 -1.492779 1.969839 0
M  V30 7 O 3.662876 -1.372954 0.776104 0
M  V30 8 C 2.755052 -1.028002 -0.108278 0
M  V30 9 C 2.780628 -0.768244 -1.482794 0
M  V30 10 C 1.593268 -0.421285 -2.098382 0
M  V30 11 C 0.379044 -0.312336 -1.451105 0
M  V30 12 C -0.839468 0.059457 -2.164621 0
M  V30 13 C -1.018983 0.351261 -3.500810 0
M  V30 14 N -2.326740 0.636445 -3.675348 0
M  V30 15 N -2.958041 0.532299 -2.503689 0
M  V30 16 C -2.063026 0.174613 -1.540220 0
M  V30 17 N 0.408652 -0.572308 -0.130603 0
M  V30 18 C 1.529880 -0.915363 0.530781 0
M  V30 19 C 0.503599 -2.189230 3.821916 0
M  V30 20 C -0.507866 -2.161578 4.760171 0
M  V30 21 H -2.220789 -0.987218 5.459553 0
M  V30 22 H -1.938879 0.797761 3.783729 0
M  V30 23 H -0.138112 0.639016 2.199697 0
M  V30 24 H 3.520727 -1.759458 2.925228 0
M  V30 25 H 3.712245 -0.844202 -2.019103 0
M  V30 26 H 1.679977 -0.231403 -3.171081 0
M  V30 27 H -0.215107 0.339463 -4.242710 0
M  V30 28 H -3.985042 0.692982 -2.312127 0
M  V30 29 H -2.339406 0.028125 -0.503240 0
M  V30 30 H 1.202505 -3.038919 3.828881 0
M  V30 31 H -0.635653 -2.946704 5.500886 0
M  V30 END ATOM
M  V30 BEGIN BOND
M  V30 1 2 1 2
M  V30 2 1 2 3
M  V30 3 2 3 4
M  V30 4 1 4 5
M  V30 5 2 5 6
M  V30 6 1 6 7
M  V30 7 1 7 8
M  V30 8 2 8 9
M  V30 9 1 9 10
M  V30 10 2 10 11
M  V30 11 1 11 12
M  V30 12 1 12 13
M  V30 13 2 13 14
M  V30 14 1 14 15
M  V30 15 1 15 16
M  V30 16 1 11 17
M  V30 17 2 17 18
M  V30 18 1 4 19
M  V30 19 2 19 20
M  V30 20 1 20 1
M  V30 21 1 18 5
M  V30 22 1 18 8
M  V30 23 2 16 12
M  V30 24 1 1 21
M  V30 25 1 2 22
M  V30 26 1 3 23
M  V30 27 1 6 24
M  V30 28 1 9 25
M  V30 29 1 10 26
M  V30 30 1 13 27
M  V30 31 1 15 28
M  V30 32 1 16 29
M  V30 33 1 19 30
M  V30 34 1 20 31
M  V30 END BOND
M  V30 END CTAB
M  END
>  <Dataset>  (427) 
ChEMBL_Kinases

>  <Ligand_Instance>  (427) 
nan

>  <PDB_ID>  (427) 
nan

>  <Standardized_SMILES>  (427) 
c1ccc(-c2coc3ccc(-c4cn[nH]c4)nc23)cc1

>  <Name>  (427) 
nan

>  <Pocket>  (427) 
nan

>  <ATP_Site>  (427) 
nan

>  <Peripheral>  (427) 
nan

>  <Num_H_Atoms_ProtBoundConf>  (427) 
nan

>  <Num_Resolved_Atoms>  (427) 
nan

>  <Num_Not_Resolved_Atoms>  (427) 
nan

$$$$
CHEMBL4847703
     RDKit          3D

  0  0  0  0  0  0  0  0  0  0999 V3000
M  V30 BEGIN CTAB
M  V30 COUNTS 49 52 0 0 0
M  V30 BEGIN ATOM
M  V30 1 C -0.725940 -1.779330 5.745880 0
M  V30 2 C -0.781749 -1.174616 4.371762 0
M  V30 3 C -0.177244 -2.082399 3.337252 0
M  V30 4 C -0.193679 -1.580625 2.029094 0
M  V30 5 C 0.409503 -2.580572 1.262154 0
M  V30 6 N 0.626523 -2.535940 -0.165279 0
M  V30 7 C 0.181430 -1.393110 -0.883844 0
M  V30 8 N 1.037851 -0.343223 -1.059436 0
M  V30 9 C 0.625936 0.752473 -1.736724 0
M  V30 10 N 1.333628 1.937659 -2.044397 0
M  V30 11 C 1.433241 3.070067 -1.126632 0
M  V30 12 C 2.141418 2.691679 0.130380 0
M  V30 13 C 3.530821 2.857202 0.168738 0
M  V30 14 C 4.371139 2.572299 1.218645 0
M  V30 15 C 3.760213 2.069653 2.346906 0
M  V30 16 F 4.502956 1.756754 3.435327 0
M  V30 17 C 2.377007 1.899074 2.323057 0
M  V30 18 N 1.599683 2.198283 1.257936 0
M  V30 19 N -0.623480 0.748430 -2.206783 0
M  V30 20 C -1.513242 -0.248369 -2.069171 0
M  V30 21 C -2.798993 -0.155074 -2.602733 0
M  V30 22 C -3.639048 -1.235408 -2.409363 0
M  V30 23 C -3.278672 -2.378125 -1.729905 0
M  V30 24 C -1.993545 -2.439951 -1.211561 0
M  V30 25 O -1.524577 -3.552978 -0.505108 0
M  V30 26 C -2.439242 -4.635831 -0.339934 0
M  V30 27 C -1.104041 -1.382679 -1.374828 0
M  V30 28 N 0.746898 -3.588467 2.086663 0
M  V30 29 N 0.399102 -3.297405 3.329062 0
M  V30 30 H -1.365662 -2.684969 5.735885 0
M  V30 31 H -1.268329 -1.048864 6.413944 0
M  V30 32 H 0.312625 -1.940179 6.031434 0
M  V30 33 H -1.843782 -0.950521 4.143584 0
M  V30 34 H -0.250198 -0.186988 4.365115 0
M  V30 35 H -0.556330 -0.653670 1.584895 0
M  V30 36 H 1.095696 -3.333042 -0.614945 0
M  V30 37 H 1.787136 1.933532 -3.006351 0
M  V30 38 H 2.026490 3.868790 -1.608662 0
M  V30 39 H 0.422031 3.455127 -0.905816 0
M  V30 40 H 4.014163 3.256156 -0.725730 0
M  V30 41 H 5.426210 2.739629 1.139742 0
M  V30 42 H 1.898974 1.503739 3.210035 0
M  V30 43 H -3.115225 0.713436 -3.135968 0
M  V30 44 H -4.661467 -1.248577 -2.791563 0
M  V30 45 H -3.937960 -3.220803 -1.580398 0
M  V30 46 H -2.013236 -5.460871 0.251359 0
M  V30 47 H -3.303435 -4.237013 0.229712 0
M  V30 48 H -2.832865 -4.997905 -1.314717 0
M  V30 49 H 0.474167 -3.783931 4.246889 0
M  V30 END ATOM
M  V30 BEGIN BOND
M  V30 1 1 1 2
M  V30 2 1 2 3
M  V30 3 2 3 4
M  V30 4 1 4 5
M  V30 5 1 5 6
M  V30 6 1 6 7
M  V30 7 2 7 8
M  V30 8 1 8 9
M  V30 9 1 9 10
M  V30 10 1 10 11
M  V30 11 1 11 12
M  V30 12 2 12 13
M  V30 13 1 13 14
M  V30 14 2 14 15
M  V30 15 1 15 16
M  V30 16 1 15 17
M  V30 17 2 17 18
M  V30 18 2 9 19
M  V30 19 1 19 20
M  V30 20 2 20 21
M  V30 21 1 21 22
M  V30 22 2 22 23
M  V30 23 1 23 24
M  V30 24 1 24 25
M  V30 25 1 25 26
M  V30 26 2 24 27
M  V30 27 2 5 28
M  V30 28 1 28 29
M  V30 29 1 29 3
M  V30 30 1 27 7
M  V30 31 1 18 12
M  V30 32 1 27 20
M  V30 33 1 1 30
M  V30 34 1 1 31
M  V30 35 1 1 32
M  V30 36 1 2 33
M  V30 37 1 2 34
M  V30 38 1 4 35
M  V30 39 1 6 36
M  V30 40 1 10 37
M  V30 41 1 11 38
M  V30 42 1 11 39
M  V30 43 1 13 40
M  V30 44 1 14 41
M  V30 45 1 17 42
M  V30 46 1 21 43
M  V30 47 1 22 44
M  V30 48 1 23 45
M  V30 49 1 26 46
M  V30 50 1 26 47
M  V30 51 1 26 48
M  V30 52 1 29 49
M  V30 END BOND
M  V30 END CTAB
M  END
>  <Dataset>  (428) 
ChEMBL_Kinases

>  <Ligand_Instance>  (428) 
nan

>  <PDB_ID>  (428) 
nan

>  <Standardized_SMILES>  (428) 
CCc1cc(Nc2nc(NCc3ccc(F)cn3)nc3cccc(OC)c23)n[nH]1

>  <Name>  (428) 
nan

>  <Pocket>  (428) 
nan

>  <ATP_Site>  (428) 
nan

>  <Peripheral>  (428) 
nan

>  <Num_H_Atoms_ProtBoundConf>  (428) 
nan

>  <Num_Resolved_Atoms>  (428) 
nan

>  <Num_Not_Resolved_Atoms>  (428) 
nan

$$$$
CHEMBL4777981
     RDKit          3D

  0  0  0  0  0  0  0  0  0  0999 V3000
M  V30 BEGIN CTAB
M  V30 COUNTS 61 65 0 0 0
M  V30 BEGIN ATOM
M  V30 1 C 4.769073 -2.308668 1.530183 0
M  V30 2 O 4.350804 -0.973907 1.561569 0
M  V30 3 C 4.732522 0.004136 0.675604 0
M  V30 4 C 5.610172 -0.391435 -0.329175 0
M  V30 5 C 6.050776 0.526070 -1.269285 0
M  V30 6 C 5.604125 1.805982 -1.178978 0
M  V30 7 F 6.011587 2.741596 -2.082361 0
M  V30 8 C 4.743152 2.247254 -0.214064 0
M  V30 9 C 4.302951 1.334557 0.723634 0
M  V30 10 C 3.381323 1.576541 1.846450 0
M  V30 11 C 3.849976 1.958948 3.064585 0
M  V30 12 F 5.165670 2.136803 3.313911 0
M  V30 13 C 2.972124 2.183324 4.112430 0
M  V30 14 N 1.652613 2.019700 3.914538 0
M  V30 15 C 1.160256 1.638506 2.707543 0
M  V30 16 N -0.103466 1.406618 2.251880 0
M  V30 17 C -0.057209 1.045917 0.961767 0
M  V30 18 C -1.223442 0.713092 0.120642 0
M  V30 19 C -2.410872 0.781475 0.705830 0
M  V30 20 C -3.448477 0.412860 -0.299156 0
M  V30 21 N -2.985212 -0.891280 -0.789823 0
M  V30 22 C -4.064190 -1.764191 -1.126881 0 CFG=1
M  V30 23 C -3.570055 -3.091914 -1.626436 0
M  V30 24 C -2.868726 -3.902738 -0.581525 0
M  V30 25 C -3.566252 -3.871759 0.755433 0 CFG=2
M  V30 26 C -3.486745 -5.151203 1.472541 0
M  V30 27 O -2.895010 -6.187183 1.026404 0
M  V30 28 O -4.110764 -5.198387 2.719688 0
M  V30 29 C -5.007818 -3.445863 0.455366 0
M  V30 30 C -4.922070 -1.977228 0.086194 0
M  V30 31 C -2.047855 -0.621181 -1.829130 0
M  V30 32 C -1.004772 0.329509 -1.300319 0
M  V30 33 C 1.278658 1.036354 0.541945 0
M  V30 34 C 2.026944 1.407761 1.640379 0
M  V30 35 H 5.887619 -2.304763 1.434478 0
M  V30 36 H 4.345000 -2.887435 0.667240 0
M  V30 37 H 4.490631 -2.796712 2.481163 0
M  V30 38 H 5.971284 -1.418244 -0.405325 0
M  V30 39 H 6.739682 0.265654 -2.077537 0
M  V30 40 H 4.343982 3.250160 -0.078338 0
M  V30 41 H 3.337494 2.488121 5.085721 0
M  V30 42 H -0.913017 1.519048 2.883796 0
M  V30 43 H -2.541190 1.063603 1.742161 0
M  V30 44 H -3.433154 1.127838 -1.163421 0
M  V30 45 H -4.456577 0.392647 0.114888 0
M  V30 46 H -4.688875 -1.298347 -1.901247 0
M  V30 47 H -2.882828 -2.997136 -2.491781 0
M  V30 48 H -4.453735 -3.643939 -2.034785 0
M  V30 49 H -2.854963 -4.960137 -0.918775 0
M  V30 50 H -1.810430 -3.578858 -0.490667 0
M  V30 51 H -3.118182 -3.041979 1.342399 0
M  V30 52 H -4.027543 -6.016199 3.339333 0
M  V30 53 H -5.643193 -3.555891 1.352486 0
M  V30 54 H -5.478121 -4.072691 -0.323810 0
M  V30 55 H -4.452051 -1.500002 0.996235 0
M  V30 56 H -5.948666 -1.562130 -0.050432 0
M  V30 57 H -2.565558 -0.084871 -2.674760 0
M  V30 58 H -1.529980 -1.488248 -2.259393 0
M  V30 59 H 0.024359 -0.132053 -1.349798 0
M  V30 60 H -0.920485 1.251924 -1.905102 0
M  V30 61 H 1.660890 0.789960 -0.440683 0
M  V30 END ATOM
M  V30 BEGIN BOND
M  V30 1 1 1 2
M  V30 2 1 2 3
M  V30 3 2 3 4
M  V30 4 1 4 5
M  V30 5 2 5 6
M  V30 6 1 6 7
M  V30 7 1 6 8
M  V30 8 2 8 9
M  V30 9 1 9 10
M  V30 10 2 10 11
M  V30 11 1 11 12
M  V30 12 1 11 13
M  V30 13 2 13 14
M  V30 14 1 14 15
M  V30 15 1 15 16
M  V30 16 1 16 17
M  V30 17 1 17 18
M  V30 18 2 18 19
M  V30 19 1 19 20
M  V30 20 1 20 21
M  V30 21 1 21 22
M  V30 22 1 22 23
M  V30 23 1 23 24
M  V30 24 1 24 25
M  V30 25 1 25 26
M  V30 26 2 26 27
M  V30 27 1 26 28
M  V30 28 1 25 29
M  V30 29 1 29 30
M  V30 30 1 21 31
M  V30 31 1 31 32
M  V30 32 2 17 33
M  V30 33 1 33 34
M  V30 34 1 9 3
M  V30 35 1 34 10
M  V30 36 2 34 15
M  V30 37 1 32 18
M  V30 38 1 30 22
M  V30 39 1 1 35
M  V30 40 1 1 36
M  V30 41 1 1 37
M  V30 42 1 4 38
M  V30 43 1 5 39
M  V30 44 1 8 40
M  V30 45 1 13 41
M  V30 46 1 16 42
M  V30 47 1 19 43
M  V30 48 1 20 44
M  V30 49 1 20 45
M  V30 50 1 22 46 CFG=3
M  V30 51 1 23 47
M  V30 52 1 23 48
M  V30 53 1 24 49
M  V30 54 1 24 50
M  V30 55 1 25 51 CFG=1
M  V30 56 1 28 52
M  V30 57 1 29 53
M  V30 58 1 29 54
M  V30 59 1 30 55
M  V30 60 1 30 56
M  V30 61 1 31 57
M  V30 62 1 31 58
M  V30 63 1 32 59
M  V30 64 1 32 60
M  V30 65 1 33 61
M  V30 END BOND
M  V30 END CTAB
M  END
>  <Dataset>  (429) 
ChEMBL_Kinases

>  <Ligand_Instance>  (429) 
nan

>  <PDB_ID>  (429) 
nan

>  <Standardized_SMILES>  (429) 
COc1ccc(F)cc1-c1c(F)cnc2[nH]c(C3=CCN([C@H]4CC[C@H](C(=O)O)CC4)CC3)cc12

>  <Name>  (429) 
nan

>  <Pocket>  (429) 
nan

>  <ATP_Site>  (429) 
nan

>  <Peripheral>  (429) 
nan

>  <Num_H_Atoms_ProtBoundConf>  (429) 
nan

>  <Num_Resolved_Atoms>  (429) 
nan

>  <Num_Not_Resolved_Atoms>  (429) 
nan

$$$$
CHEMBL4452939
     RDKit          3D

  0  0  0  0  0  0  0  0  0  0999 V3000
M  V30 BEGIN CTAB
M  V30 COUNTS 55 58 0 0 0
M  V30 BEGIN ATOM
M  V30 1 C 1.488720 -0.963765 3.627296 0
M  V30 2 C 2.409166 -0.249940 4.548151 0
M  V30 3 N 2.683654 1.111442 4.157076 0
M  V30 4 C 2.712028 1.909280 5.367871 0
M  V30 5 C 2.152468 3.285259 5.209824 0
M  V30 6 S 4.087718 1.279326 3.217422 0
M  V30 7 O 5.010625 0.092116 3.522267 0
M  V30 8 O 4.871121 2.485983 3.710694 0
M  V30 9 N 3.862960 1.339312 1.524277 0
M  V30 10 C 3.386750 0.627960 0.402378 0
M  V30 11 C 4.269548 0.429890 -0.670087 0
M  V30 12 C 3.978721 -0.271968 -1.808720 0
M  V30 13 C 2.706083 -0.791129 -1.828494 0
M  V30 14 C 1.747203 -0.669723 -0.847707 0
M  V30 15 C 0.414073 -1.252563 -0.943724 0
M  V30 16 C -0.706843 -0.694921 -0.365528 0
M  V30 17 C -1.956315 -1.309834 -0.497970 0
M  V30 18 C -1.961878 -2.463939 -1.222028 0
M  V30 19 C -3.041932 -3.277678 -1.513695 0
M  V30 20 N -4.438334 -3.208225 -1.186272 0
M  V30 21 C -5.117981 -2.481761 -2.201017 0
M  V30 22 O -4.356056 -2.074756 -3.133867 0
M  V30 23 C -6.577386 -2.198736 -2.215510 0
M  V30 24 C -6.993327 -0.870830 -2.885744 0
M  V30 25 C -7.255924 -2.146029 -3.600260 0
M  V30 26 N -2.592509 -4.324193 -2.262546 0
M  V30 27 N -1.278862 -4.184478 -2.441841 0
M  V30 28 C -0.867808 -3.056685 -1.816867 0
M  V30 29 C 0.358293 -2.433382 -1.674388 0
M  V30 30 C 2.147978 0.054008 0.247530 0
M  V30 31 H 0.705442 -0.250743 3.262522 0
M  V30 32 H 1.967871 -1.398410 2.742485 0
M  V30 33 H 0.890711 -1.766612 4.144163 0
M  V30 34 H 3.362826 -0.853011 4.581535 0
M  V30 35 H 2.055155 -0.302232 5.621795 0
M  V30 36 H 3.749823 1.981751 5.758957 0
M  V30 37 H 2.104537 1.407182 6.153546 0
M  V30 38 H 1.032006 3.319871 5.304312 0
M  V30 39 H 2.506166 3.863710 6.113443 0
M  V30 40 H 2.509839 3.843222 4.330570 0
M  V30 41 H 4.191265 2.272872 1.125390 0
M  V30 42 H 5.275038 0.873330 -0.590355 0
M  V30 43 H 4.685040 -0.400046 -2.607231 0
M  V30 44 H 2.417665 -1.362640 -2.712584 0
M  V30 45 H -0.603757 0.223477 0.190583 0
M  V30 46 H -2.844018 -0.901020 -0.060654 0
M  V30 47 H -5.036105 -3.568350 -0.385369 0
M  V30 48 H -7.194803 -2.569732 -1.389768 0
M  V30 49 H -7.912411 -0.370917 -2.501675 0
M  V30 50 H -6.182297 -0.181982 -3.168117 0
M  V30 51 H -6.585916 -2.410733 -4.435172 0
M  V30 52 H -8.281135 -2.518995 -3.698842 0
M  V30 53 H -0.651292 -4.840872 -2.981839 0
M  V30 54 H 1.198364 -2.916608 -2.148808 0
M  V30 55 H 1.443113 0.196513 1.039840 0
M  V30 END ATOM
M  V30 BEGIN BOND
M  V30 1 1 1 2
M  V30 2 1 2 3
M  V30 3 1 3 4
M  V30 4 1 4 5
M  V30 5 1 3 6
M  V30 6 2 6 7
M  V30 7 2 6 8
M  V30 8 1 6 9
M  V30 9 1 9 10
M  V30 10 2 10 11
M  V30 11 1 11 12
M  V30 12 2 12 13
M  V30 13 1 13 14
M  V30 14 1 14 15
M  V30 15 2 15 16
M  V30 16 1 16 17
M  V30 17 2 17 18
M  V30 18 1 18 19
M  V30 19 1 19 20
M  V30 20 1 20 21
M  V30 21 2 21 22
M  V30 22 1 21 23
M  V30 23 1 23 24
M  V30 24 1 24 25
M  V30 25 2 19 26
M  V30 26 1 26 27
M  V30 27 1 27 28
M  V30 28 2 28 29
M  V30 29 2 14 30
M  V30 30 1 30 10
M  V30 31 1 29 15
M  V30 32 1 28 18
M  V30 33 1 25 23
M  V30 34 1 1 31
M  V30 35 1 1 32
M  V30 36 1 1 33
M  V30 37 1 2 34
M  V30 38 1 2 35
M  V30 39 1 4 36
M  V30 40 1 4 37
M  V30 41 1 5 38
M  V30 42 1 5 39
M  V30 43 1 5 40
M  V30 44 1 9 41
M  V30 45 1 11 42
M  V30 46 1 12 43
M  V30 47 1 13 44
M  V30 48 1 16 45
M  V30 49 1 17 46
M  V30 50 1 20 47
M  V30 51 1 23 48
M  V30 52 1 24 49
M  V30 53 1 24 50
M  V30 54 1 25 51
M  V30 55 1 25 52
M  V30 56 1 27 53
M  V30 57 1 29 54
M  V30 58 1 30 55
M  V30 END BOND
M  V30 END CTAB
M  END
>  <Dataset>  (430) 
ChEMBL_Kinases

>  <Ligand_Instance>  (430) 
nan

>  <PDB_ID>  (430) 
nan

>  <Standardized_SMILES>  (430) 
CCN(CC)S(=O)(=O)Nc1cccc(-c2ccc3c(NC(=O)C4CC4)n[nH]c3c2)c1

>  <Name>  (430) 
nan

>  <Pocket>  (430) 
nan

>  <ATP_Site>  (430) 
nan

>  <Peripheral>  (430) 
nan

>  <Num_H_Atoms_ProtBoundConf>  (430) 
nan

>  <Num_Resolved_Atoms>  (430) 
nan

>  <Num_Not_Resolved_Atoms>  (430) 
nan

$$$$
CHEMBL3823030
     RDKit          3D

  0  0  0  0  0  0  0  0  0  0999 V3000
M  V30 BEGIN CTAB
M  V30 COUNTS 62 66 0 0 0
M  V30 BEGIN ATOM
M  V30 1 C 3.580624 -3.495112 2.995230 0
M  V30 2 C 2.933338 -2.411825 2.193062 0
M  V30 3 N 3.384466 -1.144671 2.215545 0
M  V30 4 N 2.639905 -0.368009 1.417328 0
M  V30 5 C 2.751732 1.051927 1.129474 0
M  V30 6 C 3.411584 1.313157 -0.184195 0
M  V30 7 C 2.898388 2.471446 -0.964178 0
M  V30 8 N 1.512019 2.754412 -0.858826 0
M  V30 9 C 0.667494 2.846344 -1.998545 0
M  V30 10 O 1.454182 2.624434 -2.928322 0
M  V30 11 C -0.795164 3.151943 -1.830895 0 CFG=1
M  V30 12 C -0.868929 4.533307 -1.204508 0
M  V30 13 O -1.393445 3.167641 -3.111638 0
M  V30 14 C 1.145503 2.918207 0.518920 0
M  V30 15 C 1.516409 1.802997 1.425632 0
M  V30 16 C 1.681467 -1.119135 0.854476 0
M  V30 17 C 0.599787 -0.837555 -0.080404 0
M  V30 18 C 1.854855 -2.421905 1.338097 0
M  V30 19 N 1.181264 -3.680984 1.136467 0
M  V30 20 C 0.090039 -4.182239 1.897610 0
M  V30 21 N 0.300248 -4.946438 3.003635 0
M  V30 22 C -0.784879 -5.388609 3.678717 0
M  V30 23 C -2.023646 -5.034461 3.199436 0
M  V30 24 Cl -3.367068 -5.643365 4.124726 0
M  V30 25 C -2.272816 -4.266420 2.088992 0
M  V30 26 C -3.549138 -3.883511 1.568868 0
M  V30 27 C -4.846623 -4.113425 1.942038 0
M  V30 28 N -5.688811 -3.503916 1.079471 0
M  V30 29 N -4.970806 -2.880027 0.149789 0
M  V30 30 C -5.465338 -2.167838 -0.872662 0
M  V30 31 C -4.603987 -1.576028 -1.759949 0
M  V30 32 C -3.260937 -1.759647 -1.532346 0
M  V30 33 C -2.831391 -2.505064 -0.459620 0
M  V30 34 C -3.682294 -3.106848 0.441912 0
M  V30 35 N -1.148511 -3.871067 1.480847 0
M  V30 36 H 4.655259 -3.341574 3.088661 0
M  V30 37 H 3.405638 -4.427745 2.385218 0
M  V30 38 H 3.067323 -3.679434 3.943717 0
M  V30 39 H 3.515608 1.426559 1.879526 0
M  V30 40 H 4.518786 1.406008 -0.138856 0
M  V30 41 H 3.246815 0.411319 -0.814535 0
M  V30 42 H 3.145851 2.341082 -2.038498 0
M  V30 43 H 3.435566 3.416981 -0.656173 0
M  V30 44 H -1.314489 2.375128 -1.235768 0
M  V30 45 H -1.541351 4.569643 -0.331712 0
M  V30 46 H -1.302144 5.227305 -1.970157 0
M  V30 47 H 0.137243 4.905684 -0.871903 0
M  V30 48 H -1.332795 2.215003 -3.433395 0
M  V30 49 H 0.016051 2.960659 0.523532 0
M  V30 50 H 1.477432 3.902502 0.880956 0
M  V30 51 H 1.506188 2.266917 2.459615 0
M  V30 52 H 0.675129 1.054584 1.532945 0
M  V30 53 H 0.533550 -1.648521 -0.845244 0
M  V30 54 H -0.343786 -0.842627 0.475004 0
M  V30 55 H 0.689073 0.085567 -0.664954 0
M  V30 56 H 1.613947 -4.195742 0.330134 0
M  V30 57 H -0.632132 -5.985273 4.542629 0
M  V30 58 H -5.171641 -4.687297 2.787233 0
M  V30 59 H -6.521116 -2.033572 -1.036853 0
M  V30 60 H -4.998426 -1.004204 -2.580967 0
M  V30 61 H -2.573383 -1.286139 -2.242173 0
M  V30 62 H -1.758900 -2.582766 -0.378454 0
M  V30 END ATOM
M  V30 BEGIN BOND
M  V30 1 1 1 2
M  V30 2 2 2 3
M  V30 3 1 3 4
M  V30 4 1 4 5
M  V30 5 1 5 6
M  V30 6 1 6 7
M  V30 7 1 7 8
M  V30 8 1 8 9
M  V30 9 2 9 10
M  V30 10 1 9 11
M  V30 11 1 11 12
M  V30 12 1 11 13
M  V30 13 1 8 14
M  V30 14 1 14 15
M  V30 15 1 4 16
M  V30 16 1 16 17
M  V30 17 2 16 18
M  V30 18 1 18 19
M  V30 19 1 19 20
M  V30 20 2 20 21
M  V30 21 1 21 22
M  V30 22 2 22 23
M  V30 23 1 23 24
M  V30 24 1 23 25
M  V30 25 1 25 26
M  V30 26 1 26 27
M  V30 27 2 27 28
M  V30 28 1 28 29
M  V30 29 1 29 30
M  V30 30 2 30 31
M  V30 31 1 31 32
M  V30 32 2 32 33
M  V30 33 1 33 34
M  V30 34 2 25 35
M  V30 35 1 18 2
M  V30 36 1 35 20
M  V30 37 1 15 5
M  V30 38 2 34 26
M  V30 39 1 34 29
M  V30 40 1 1 36
M  V30 41 1 1 37
M  V30 42 1 1 38
M  V30 43 1 5 39
M  V30 44 1 6 40
M  V30 45 1 6 41
M  V30 46 1 7 42
M  V30 47 1 7 43
M  V30 48 1 11 44 CFG=1
M  V30 49 1 12 45
M  V30 50 1 12 46
M  V30 51 1 12 47
M  V30 52 1 13 48
M  V30 53 1 14 49
M  V30 54 1 14 50
M  V30 55 1 15 51
M  V30 56 1 15 52
M  V30 57 1 17 53
M  V30 58 1 17 54
M  V30 59 1 17 55
M  V30 60 1 19 56
M  V30 61 1 22 57
M  V30 62 1 27 58
M  V30 63 1 30 59
M  V30 64 1 31 60
M  V30 65 1 32 61
M  V30 66 1 33 62
M  V30 END BOND
M  V30 END CTAB
M  END
>  <Dataset>  (431) 
ChEMBL_Kinases

>  <Ligand_Instance>  (431) 
nan

>  <PDB_ID>  (431) 
nan

>  <Standardized_SMILES>  (431) 
Cc1nn(C2CCN(C(=O)[C@@H](C)O)CC2)c(C)c1Nc1ncc(Cl)c(-c2cnn3ccccc23)n1

>  <Name>  (431) 
nan

>  <Pocket>  (431) 
nan

>  <ATP_Site>  (431) 
nan

>  <Peripheral>  (431) 
nan

>  <Num_H_Atoms_ProtBoundConf>  (431) 
nan

>  <Num_Resolved_Atoms>  (431) 
nan

>  <Num_Not_Resolved_Atoms>  (431) 
nan

$$$$
CHEMBL3799585
     RDKit          3D

  0  0  0  0  0  0  0  0  0  0999 V3000
M  V30 BEGIN CTAB
M  V30 COUNTS 45 48 0 0 0
M  V30 BEGIN ATOM
M  V30 1 C 2.776940 0.905787 6.692950 0
M  V30 2 C 2.554352 0.211609 5.389732 0
M  V30 3 C 3.224166 0.903600 4.218436 0
M  V30 4 C 2.884324 0.059495 3.017948 0
M  V30 5 O 2.206939 -0.790207 3.658486 0
M  V30 6 N 3.275461 0.285423 1.683786 0
M  V30 7 C 2.715087 -0.780331 0.892075 0
M  V30 8 C 3.557658 -1.895020 0.776441 0
M  V30 9 C 3.105399 -2.964514 0.036892 0
M  V30 10 C 1.839535 -2.885923 -0.556532 0
M  V30 11 C 0.998429 -1.805469 -0.456622 0
M  V30 12 C 1.488462 -0.791444 0.275095 0
M  V30 13 C -0.170754 -2.143912 -1.202273 0
M  V30 14 C -1.213362 -1.399537 -1.364099 0
M  V30 15 N -2.376437 -1.719370 -2.097784 0
M  V30 16 C -3.357202 -0.689652 -2.091333 0
M  V30 17 C -4.597839 -0.649796 -2.690621 0
M  V30 18 C -5.311754 0.504559 -2.491167 0
M  V30 19 C -4.853751 1.551605 -1.759128 0
M  V30 20 C -3.615569 1.440619 -1.195278 0
M  V30 21 C -2.780377 0.323449 -1.316387 0
M  V30 22 C -1.468761 -0.088359 -0.860629 0
M  V30 23 N -0.856082 0.733133 -0.159866 0
M  V30 24 O -1.154877 1.960546 0.281666 0
M  V30 25 C 0.009016 -3.474807 -1.752341 0
M  V30 26 O -0.762765 -4.142013 -2.457896 0
M  V30 27 N 1.283907 -3.957377 -1.348596 0
M  V30 28 H 3.732023 0.546154 7.156675 0
M  V30 29 H 2.756441 2.020217 6.588108 0
M  V30 30 H 1.967641 0.662004 7.411512 0
M  V30 31 H 1.446816 0.132703 5.240194 0
M  V30 32 H 2.899739 -0.838136 5.476510 0
M  V30 33 H 4.300963 0.932688 4.422143 0
M  V30 34 H 2.819822 1.894679 4.022762 0
M  V30 35 H 3.862460 1.135752 1.543668 0
M  V30 36 H 4.528568 -1.936731 1.240523 0
M  V30 37 H 3.756590 -3.806985 -0.043343 0
M  V30 38 H 1.021298 0.098985 0.470048 0
M  V30 39 H -2.493183 -2.628724 -2.593461 0
M  V30 40 H -4.961385 -1.480164 -3.271327 0
M  V30 41 H -6.286380 0.572989 -2.944122 0
M  V30 42 H -5.457747 2.440861 -1.632417 0
M  V30 43 H -3.263291 2.280496 -0.615612 0
M  V30 44 H -0.887149 2.779608 -0.282124 0
M  V30 45 H 1.685465 -4.881496 -1.592548 0
M  V30 END ATOM
M  V30 BEGIN BOND
M  V30 1 1 1 2
M  V30 2 1 2 3
M  V30 3 1 3 4
M  V30 4 2 4 5
M  V30 5 1 4 6
M  V30 6 1 6 7
M  V30 7 2 7 8
M  V30 8 1 8 9
M  V30 9 2 9 10
M  V30 10 1 10 11
M  V30 11 2 11 12
M  V30 12 1 11 13
M  V30 13 2 13 14
M  V30 14 1 14 15
M  V30 15 1 15 16
M  V30 16 2 16 17
M  V30 17 1 17 18
M  V30 18 2 18 19
M  V30 19 1 19 20
M  V30 20 2 20 21
M  V30 21 1 21 22
M  V30 22 2 22 23
M  V30 23 1 23 24
M  V30 24 1 13 25
M  V30 25 2 25 26
M  V30 26 1 25 27
M  V30 27 1 12 7
M  V30 28 1 22 14
M  V30 29 1 27 10
M  V30 30 1 21 16
M  V30 31 1 1 28
M  V30 32 1 1 29
M  V30 33 1 1 30
M  V30 34 1 2 31
M  V30 35 1 2 32
M  V30 36 1 3 33
M  V30 37 1 3 34
M  V30 38 1 6 35
M  V30 39 1 8 36
M  V30 40 1 9 37
M  V30 41 1 12 38
M  V30 42 1 15 39
M  V30 43 1 17 40
M  V30 44 1 18 41
M  V30 45 1 19 42
M  V30 46 1 20 43
M  V30 47 1 24 44
M  V30 48 1 27 45
M  V30 END BOND
M  V30 END CTAB
M  END
>  <Dataset>  (432) 
ChEMBL_Kinases

>  <Ligand_Instance>  (432) 
nan

>  <PDB_ID>  (432) 
nan

>  <Standardized_SMILES>  (432) 
CCCC(=O)Nc1ccc2c(c1)/C(=C1/Nc3ccccc3/C1=N\O)C(=O)N2

>  <Name>  (432) 
nan

>  <Pocket>  (432) 
nan

>  <ATP_Site>  (432) 
nan

>  <Peripheral>  (432) 
nan

>  <Num_H_Atoms_ProtBoundConf>  (432) 
nan

>  <Num_Resolved_Atoms>  (432) 
nan

>  <Num_Not_Resolved_Atoms>  (432) 
nan

$$$$
CHEMBL415049
     RDKit          3D

  0  0  0  0  0  0  0  0  0  0999 V3000
M  V30 BEGIN CTAB
M  V30 COUNTS 72 75 0 0 0
M  V30 BEGIN ATOM
M  V30 1 C 1.019663 -6.473051 1.592870 0
M  V30 2 C 1.570859 -5.123097 1.183764 0
M  V30 3 N 0.656762 -4.328257 0.454996 0
M  V30 4 C 0.452092 -4.916006 -0.868234 0
M  V30 5 C 1.714145 -4.743835 -1.689786 0
M  V30 6 C 2.036385 -3.244478 -1.791185 0
M  V30 7 O 0.942043 -2.631893 -2.432825 0
M  V30 8 C 0.934627 -1.248035 -2.594246 0
M  V30 9 C 1.969353 -0.503177 -2.126613 0
M  V30 10 C 1.992880 0.883152 -2.264716 0
M  V30 11 C 0.887161 1.395869 -2.906064 0
M  V30 12 C 0.890505 2.767259 -3.033377 0
M  V30 13 N 1.863250 3.736010 -2.593752 0
M  V30 14 C 1.656287 3.990051 -1.186878 0
M  V30 15 C 0.832596 3.323800 -0.282800 0
M  V30 16 C 0.903289 3.934974 0.980204 0
M  V30 17 C 0.086799 3.332961 2.095626 0
M  V30 18 C -1.341471 3.328913 1.751184 0
M  V30 19 O -1.989007 4.358110 1.519804 0
M  V30 20 N -2.007437 2.072809 1.676917 0
M  V30 21 C -3.216699 1.360714 1.431525 0
M  V30 22 C -4.152074 0.995180 2.360374 0
M  V30 23 C -5.273989 0.306961 1.964820 0
M  V30 24 C -5.386443 0.022667 0.624678 0
M  V30 25 C -4.507197 0.345469 -0.377900 0
M  V30 26 F -4.653067 0.047841 -1.685755 0
M  V30 27 C -3.377525 1.047081 0.075094 0
M  V30 28 N 1.774329 4.958432 0.794697 0
M  V30 29 N 2.210880 4.997892 -0.443568 0
M  V30 30 N -0.155678 3.396802 -3.641815 0
M  V30 31 C -1.201726 2.695076 -4.123653 0
M  V30 32 N -1.201879 1.348738 -3.995789 0
M  V30 33 C -0.182974 0.686863 -3.398419 0
M  V30 34 C -0.160424 -0.683009 -3.238233 0
M  V30 35 C -0.569238 -3.999097 1.090329 0
M  V30 36 C -0.496892 -3.077442 2.258361 0
M  V30 37 O 0.262724 -3.530887 3.324835 0
M  V30 38 P 0.187421 -2.300144 4.507887 0
M  V30 39 O -0.026376 -0.944127 3.865666 0
M  V30 40 O -1.152947 -2.594678 5.522591 0
M  V30 41 O 1.591378 -2.263720 5.438554 0
M  V30 42 H 1.715745 -6.853394 2.396050 0
M  V30 43 H 0.027846 -6.402092 2.060323 0
M  V30 44 H 1.084185 -7.181158 0.764552 0
M  V30 45 H 2.516876 -5.349850 0.637505 0
M  V30 46 H 1.905945 -4.571148 2.099280 0
M  V30 47 H -0.418147 -4.514640 -1.391738 0
M  V30 48 H 0.277644 -6.014619 -0.690303 0
M  V30 49 H 2.549436 -5.334935 -1.323546 0
M  V30 50 H 1.474892 -5.136923 -2.717879 0
M  V30 51 H 2.230926 -2.893017 -0.777530 0
M  V30 52 H 2.930303 -3.192064 -2.440604 0
M  V30 53 H 2.814412 -0.980380 -1.625070 0
M  V30 54 H 2.797783 1.512974 -1.907041 0
M  V30 55 H 2.640968 4.262594 -3.044996 0
M  V30 56 H 0.221180 2.446238 -0.528776 0
M  V30 57 H 0.441877 2.319024 2.279088 0
M  V30 58 H 0.283500 3.939226 3.014121 0
M  V30 59 H -1.445374 1.211051 1.886093 0
M  V30 60 H -3.954830 1.270809 3.373759 0
M  V30 61 H -6.030099 0.006786 2.685137 0
M  V30 62 H -6.274123 -0.522453 0.293188 0
M  V30 63 H -2.654394 1.317914 -0.693207 0
M  V30 64 H 1.950493 5.536155 1.642124 0
M  V30 65 H -2.041361 3.194521 -4.613908 0
M  V30 66 H -0.982580 -1.274126 -3.611309 0
M  V30 67 H -1.193830 -4.911226 1.325570 0
M  V30 68 H -1.192890 -3.472570 0.311956 0
M  V30 69 H -0.068692 -2.075487 1.980191 0
M  V30 70 H -1.512648 -2.818812 2.663835 0
M  V30 71 H -1.662397 -1.756234 5.699154 0
M  V30 72 H 2.067238 -1.408987 5.285445 0
M  V30 END ATOM
M  V30 BEGIN BOND
M  V30 1 1 1 2
M  V30 2 1 2 3
M  V30 3 1 3 4
M  V30 4 1 4 5
M  V30 5 1 5 6
M  V30 6 1 6 7
M  V30 7 1 7 8
M  V30 8 2 8 9
M  V30 9 1 9 10
M  V30 10 2 10 11
M  V30 11 1 11 12
M  V30 12 1 12 13
M  V30 13 1 13 14
M  V30 14 1 14 15
M  V30 15 2 15 16
M  V30 16 1 16 17
M  V30 17 1 17 18
M  V30 18 2 18 19
M  V30 19 1 18 20
M  V30 20 1 20 21
M  V30 21 2 21 22
M  V30 22 1 22 23
M  V30 23 2 23 24
M  V30 24 1 24 25
M  V30 25 1 25 26
M  V30 26 2 25 27
M  V30 27 1 16 28
M  V30 28 1 28 29
M  V30 29 2 12 30
M  V30 30 1 30 31
M  V30 31 2 31 32
M  V30 32 1 32 33
M  V30 33 2 33 34
M  V30 34 1 3 35
M  V30 35 1 35 36
M  V30 36 1 36 37
M  V30 37 1 37 38
M  V30 38 2 38 39
M  V30 39 1 38 40
M  V30 40 1 38 41
M  V30 41 1 34 8
M  V30 42 1 33 11
M  V30 43 2 29 14
M  V30 44 1 27 21
M  V30 45 1 1 42
M  V30 46 1 1 43
M  V30 47 1 1 44
M  V30 48 1 2 45
M  V30 49 1 2 46
M  V30 50 1 4 47
M  V30 51 1 4 48
M  V30 52 1 5 49
M  V30 53 1 5 50
M  V30 54 1 6 51
M  V30 55 1 6 52
M  V30 56 1 9 53
M  V30 57 1 10 54
M  V30 58 1 13 55
M  V30 59 1 15 56
M  V30 60 1 17 57
M  V30 61 1 17 58
M  V30 62 1 20 59
M  V30 63 1 22 60
M  V30 64 1 23 61
M  V30 65 1 24 62
M  V30 66 1 27 63
M  V30 67 1 28 64
M  V30 68 1 31 65
M  V30 69 1 34 66
M  V30 70 1 35 67
M  V30 71 1 35 68
M  V30 72 1 36 69
M  V30 73 1 36 70
M  V30 74 1 40 71
M  V30 75 1 41 72
M  V30 END BOND
M  V30 END CTAB
M  END
>  <Dataset>  (433) 
ChEMBL_Kinases

>  <Ligand_Instance>  (433) 
nan

>  <PDB_ID>  (433) 
nan

>  <Standardized_SMILES>  (433) 
CCN(CCCOc1ccc2c(Nc3cc(CC(=O)Nc4cccc(F)c4)[nH]n3)ncnc2c1)CCOP(=O)(O)O

>  <Name>  (433) 
BARASERTIB

>  <Pocket>  (433) 
nan

>  <ATP_Site>  (433) 
nan

>  <Peripheral>  (433) 
nan

>  <Num_H_Atoms_ProtBoundConf>  (433) 
nan

>  <Num_Resolved_Atoms>  (433) 
nan

>  <Num_Not_Resolved_Atoms>  (433) 
nan

$$$$
CHEMBL4799297
     RDKit          3D

  0  0  0  0  0  0  0  0  0  0999 V3000
M  V30 BEGIN CTAB
M  V30 COUNTS 36 38 0 0 0
M  V30 BEGIN ATOM
M  V30 1 C 3.020223 -4.340702 0.685057 0
M  V30 2 C 2.029157 -3.220510 0.825507 0
M  V30 3 C 0.888178 -3.530509 1.557907 0
M  V30 4 C -0.119760 -2.615474 1.780710 0
M  V30 5 C 0.084394 -1.371501 1.225603 0
M  V30 6 N -0.876982 -0.449596 1.420583 0
M  V30 7 C -0.784747 0.797980 0.925179 0
M  V30 8 N -1.787481 1.783616 1.122195 0
M  V30 9 C -2.984823 1.489117 1.878381 0
M  V30 10 C -3.783909 0.367357 1.234145 0
M  V30 11 N -4.165725 0.776700 -0.120970 0
M  V30 12 C 0.356727 1.068345 0.206646 0
M  V30 13 N 0.682949 2.250487 -0.392927 0
M  V30 14 C 1.878940 2.049215 -0.972893 0
M  V30 15 C 2.344613 0.745154 -0.761378 0
M  V30 16 C 3.622060 0.218457 -1.269666 0
M  V30 17 N 1.363958 0.210069 -0.036026 0
M  V30 18 C 1.189132 -1.003797 0.492363 0
M  V30 19 C 2.162622 -1.947364 0.298515 0
M  V30 20 H 3.629439 -4.197351 -0.233881 0
M  V30 21 H 2.513476 -5.309849 0.552363 0
M  V30 22 H 3.690899 -4.387471 1.554480 0
M  V30 23 H 0.746205 -4.513138 1.985877 0
M  V30 24 H -1.019391 -2.814149 2.341857 0
M  V30 25 H -1.654509 2.733132 0.713634 0
M  V30 26 H -3.638545 2.380614 1.947892 0
M  V30 27 H -2.717698 1.212254 2.903364 0
M  V30 28 H -4.725076 0.176953 1.759666 0
M  V30 29 H -3.231298 -0.586172 1.197559 0
M  V30 30 H -3.375039 0.683686 -0.779708 0
M  V30 31 H -4.562462 1.731945 -0.104575 0
M  V30 32 H 2.377356 2.846357 -1.528941 0
M  V30 33 H 3.487648 -0.545506 -2.049120 0
M  V30 34 H 4.378683 -0.006399 -0.492832 0
M  V30 35 H 4.110150 1.071394 -1.843904 0
M  V30 36 H 3.084300 -1.880213 -0.227676 0
M  V30 END ATOM
M  V30 BEGIN BOND
M  V30 1 1 1 2
M  V30 2 2 2 3
M  V30 3 1 3 4
M  V30 4 2 4 5
M  V30 5 1 5 6
M  V30 6 2 6 7
M  V30 7 1 7 8
M  V30 8 1 8 9
M  V30 9 1 9 10
M  V30 10 1 10 11
M  V30 11 1 7 12
M  V30 12 2 12 13
M  V30 13 1 13 14
M  V30 14 2 14 15
M  V30 15 1 15 16
M  V30 16 1 15 17
M  V30 17 1 17 18
M  V30 18 2 18 19
M  V30 19 1 19 2
M  V30 20 1 18 5
M  V30 21 1 17 12
M  V30 22 1 1 20
M  V30 23 1 1 21
M  V30 24 1 1 22
M  V30 25 1 3 23
M  V30 26 1 4 24
M  V30 27 1 8 25
M  V30 28 1 9 26
M  V30 29 1 9 27
M  V30 30 1 10 28
M  V30 31 1 10 29
M  V30 32 1 11 30
M  V30 33 1 11 31
M  V30 34 1 14 32
M  V30 35 1 16 33
M  V30 36 1 16 34
M  V30 37 1 16 35
M  V30 38 1 19 36
M  V30 END BOND
M  V30 END CTAB
M  END
>  <Dataset>  (434) 
ChEMBL_Kinases

>  <Ligand_Instance>  (434) 
nan

>  <PDB_ID>  (434) 
nan

>  <Standardized_SMILES>  (434) 
Cc1ccc2nc(NCCN)c3ncc(C)n3c2c1

>  <Name>  (434) 
nan

>  <Pocket>  (434) 
nan

>  <ATP_Site>  (434) 
nan

>  <Peripheral>  (434) 
nan

>  <Num_H_Atoms_ProtBoundConf>  (434) 
nan

>  <Num_Resolved_Atoms>  (434) 
nan

>  <Num_Not_Resolved_Atoms>  (434) 
nan

$$$$
CHEMBL4457064
     RDKit          3D

  0  0  0  0  0  0  0  0  0  0999 V3000
M  V30 BEGIN CTAB
M  V30 COUNTS 48 51 0 0 0
M  V30 BEGIN ATOM
M  V30 1 C 2.826799 -3.039319 -1.148050 0
M  V30 2 N 4.040185 -2.254483 -1.370672 0
M  V30 3 N 4.986519 -2.773152 -2.164186 0
M  V30 4 C 6.025121 -1.931313 -2.264764 0
M  V30 5 C 5.618143 -0.884230 -1.473593 0
M  V30 6 Cl 6.754765 0.430995 -1.367757 0
M  V30 7 C 4.392224 -1.051149 -0.903458 0
M  V30 8 C 3.630697 -0.200228 -0.030829 0
M  V30 9 C 2.389584 -0.504563 0.476829 0
M  V30 10 C 1.890748 0.514302 1.294760 0
M  V30 11 C 0.647697 0.665913 2.048705 0
M  V30 12 O 0.395238 1.681186 2.731275 0
M  V30 13 N -0.293857 -0.392481 1.988826 0
M  V30 14 C -1.588008 -0.574200 2.591137 0 CFG=2
M  V30 15 C -1.485301 -1.841973 3.446273 0
M  V30 16 N -2.804063 -2.238461 3.832977 0
M  V30 17 C -3.783281 -1.204130 3.711546 0
M  V30 18 C -3.995961 -0.744601 2.283313 0
M  V30 19 C -2.668487 -0.848541 1.576333 0 CFG=1
M  V30 20 C -2.579323 0.029736 0.395225 0
M  V30 21 C -2.691653 1.373510 0.767512 0
M  V30 22 C -2.635907 2.393734 -0.185443 0
M  V30 23 C -2.467275 2.067022 -1.514114 0
M  V30 24 F -2.408081 3.036629 -2.474250 0
M  V30 25 C -2.357680 0.743108 -1.871497 0
M  V30 26 F -2.189455 0.352531 -3.167568 0
M  V30 27 C -2.411313 -0.272244 -0.939276 0
M  V30 28 O 2.835070 1.439163 1.281497 0
M  V30 29 C 3.828865 1.032743 0.525265 0
M  V30 30 Cl 5.201385 2.065696 0.338297 0
M  V30 31 H 1.994675 -2.440861 -1.597250 0
M  V30 32 H 2.843952 -3.962926 -1.775380 0
M  V30 33 H 2.682883 -3.357388 -0.118358 0
M  V30 34 H 6.875144 -2.182465 -2.860358 0
M  V30 35 H 1.713901 -1.317360 0.406259 0
M  V30 36 H -0.067912 -1.251129 1.404843 0
M  V30 37 H -1.910509 0.261390 3.214852 0
M  V30 38 H -0.759947 -1.733253 4.270253 0
M  V30 39 H -1.117860 -2.630436 2.727861 0
M  V30 40 H -2.813466 -2.568110 4.811599 0
M  V30 41 H -4.734156 -1.561063 4.156722 0
M  V30 42 H -3.472738 -0.350838 4.374989 0
M  V30 43 H -4.374647 0.297841 2.350540 0
M  V30 44 H -4.766589 -1.406447 1.792379 0
M  V30 45 H -2.572352 -1.905175 1.215045 0
M  V30 46 H -2.826016 1.765997 1.766011 0
M  V30 47 H -2.716573 3.437780 0.045901 0
M  V30 48 H -2.337161 -1.333973 -1.105497 0
M  V30 END ATOM
M  V30 BEGIN BOND
M  V30 1 1 1 2
M  V30 2 1 2 3
M  V30 3 2 3 4
M  V30 4 1 4 5
M  V30 5 1 5 6
M  V30 6 2 5 7
M  V30 7 1 7 8
M  V30 8 1 8 9
M  V30 9 2 9 10
M  V30 10 1 10 11
M  V30 11 2 11 12
M  V30 12 1 11 13
M  V30 13 1 13 14
M  V30 14 1 14 15
M  V30 15 1 15 16
M  V30 16 1 16 17
M  V30 17 1 17 18
M  V30 18 1 18 19
M  V30 19 1 19 20
M  V30 20 2 20 21
M  V30 21 1 21 22
M  V30 22 2 22 23
M  V30 23 1 23 24
M  V30 24 1 23 25
M  V30 25 1 25 26
M  V30 26 2 25 27
M  V30 27 1 10 28
M  V30 28 1 28 29
M  V30 29 1 29 30
M  V30 30 1 7 2
M  V30 31 2 29 8
M  V30 32 1 19 14
M  V30 33 1 27 20
M  V30 34 1 1 31
M  V30 35 1 1 32
M  V30 36 1 1 33
M  V30 37 1 4 34
M  V30 38 1 9 35
M  V30 39 1 13 36
M  V30 40 1 14 37 CFG=1
M  V30 41 1 15 38
M  V30 42 1 15 39
M  V30 43 1 16 40
M  V30 44 1 17 41
M  V30 45 1 17 42
M  V30 46 1 18 43
M  V30 47 1 18 44
M  V30 48 1 19 45 CFG=3
M  V30 49 1 21 46
M  V30 50 1 22 47
M  V30 51 1 27 48
M  V30 END BOND
M  V30 END CTAB
M  END
>  <Dataset>  (435) 
ChEMBL_Kinases

>  <Ligand_Instance>  (435) 
nan

>  <PDB_ID>  (435) 
nan

>  <Standardized_SMILES>  (435) 
Cn1ncc(Cl)c1-c1cc(C(=O)N[C@@H]2CNCC[C@H]2c2ccc(F)c(F)c2)oc1Cl

>  <Name>  (435) 
nan

>  <Pocket>  (435) 
nan

>  <ATP_Site>  (435) 
nan

>  <Peripheral>  (435) 
nan

>  <Num_H_Atoms_ProtBoundConf>  (435) 
nan

>  <Num_Resolved_Atoms>  (435) 
nan

>  <Num_Not_Resolved_Atoms>  (435) 
nan

$$$$
CHEMBL4083319
     RDKit          3D

  0  0  0  0  0  0  0  0  0  0999 V3000
M  V30 BEGIN CTAB
M  V30 COUNTS 57 61 0 0 0
M  V30 BEGIN ATOM
M  V30 1 C 3.769983 0.989662 4.401316 0
M  V30 2 C 2.937898 -0.146852 3.894499 0
M  V30 3 C 1.509902 0.320175 3.742678 0
M  V30 4 N 3.447477 -0.836489 2.774432 0
M  V30 5 C 3.814953 -0.161225 1.602826 0
M  V30 6 C 2.733670 0.570911 0.910418 0
M  V30 7 C 2.471476 1.921587 1.125737 0
M  V30 8 C 1.459729 2.602334 0.481251 0
M  V30 9 C 0.675626 1.910657 -0.415829 0
M  V30 10 C -0.346359 2.599942 -1.040983 0
M  V30 11 C -1.139422 1.868715 -1.933166 0
M  V30 12 C -0.867681 0.518604 -2.143578 0
M  V30 13 Cl -1.996058 -0.167303 -3.303794 0
M  V30 14 C 0.170766 -0.135555 -1.495068 0
M  V30 15 C 0.262129 -1.534930 -1.871311 0
M  V30 16 C -0.576436 -2.557298 -1.856719 0
M  V30 17 C -1.965168 -2.647105 -1.427804 0
M  V30 18 C -3.003884 -3.277475 -2.081286 0
M  V30 19 N -4.158644 -3.191528 -1.407352 0
M  V30 20 C -5.463436 -3.720064 -1.759370 0
M  V30 21 C -3.918788 -2.498104 -0.281362 0
M  V30 22 C -4.758358 -2.134529 0.758223 0
M  V30 23 C -4.274101 -1.408544 1.847594 0
M  V30 24 C -2.934302 -1.083260 1.823457 0
M  V30 25 C -2.112165 -1.453480 0.779039 0
M  V30 26 C -2.582776 -2.162979 -0.287583 0
M  V30 27 C 0.059718 -3.753673 -2.391511 0
M  V30 28 O -0.423997 -4.927974 -2.536508 0
M  V30 29 N 1.410724 -3.426759 -2.769049 0
M  V30 30 C 1.536014 -2.029612 -2.442141 0
M  V30 31 O 2.689270 -1.551963 -2.715896 0
M  V30 32 C 0.947077 0.588766 -0.615510 0
M  V30 33 C 1.940061 -0.138059 -0.001252 0
M  V30 34 H 3.339772 1.981951 4.125481 0
M  V30 35 H 3.753611 0.976601 5.507720 0
M  V30 36 H 4.838547 0.911195 4.099011 0
M  V30 37 H 2.934781 -0.900257 4.762819 0
M  V30 38 H 1.504920 1.429573 3.754194 0
M  V30 39 H 0.875958 -0.077188 4.577080 0
M  V30 40 H 1.137288 -0.042342 2.759846 0
M  V30 41 H 3.908780 -1.747379 2.963780 0
M  V30 42 H 4.717148 0.497765 1.738958 0
M  V30 43 H 4.211396 -0.951498 0.884861 0
M  V30 44 H 3.073303 2.483646 1.816840 0
M  V30 45 H 1.287558 3.662319 0.678232 0
M  V30 46 H -0.491806 3.658143 -0.821198 0
M  V30 47 H -1.917848 2.459528 -2.385324 0
M  V30 48 H -2.899950 -3.794002 -3.046242 0
M  V30 49 H -5.319403 -4.473837 -2.560388 0
M  V30 50 H -6.010542 -4.133095 -0.886195 0
M  V30 51 H -6.062879 -2.901821 -2.255086 0
M  V30 52 H -5.818165 -2.405032 0.754306 0
M  V30 53 H -4.897864 -1.103501 2.684643 0
M  V30 54 H -2.531049 -0.512031 2.675193 0
M  V30 55 H -1.080418 -1.166140 0.843598 0
M  V30 56 H 2.072646 -4.130081 -3.182513 0
M  V30 57 H 2.121330 -1.182866 -0.162925 0
M  V30 END ATOM
M  V30 BEGIN BOND
M  V30 1 1 1 2
M  V30 2 1 2 3
M  V30 3 1 2 4
M  V30 4 1 4 5
M  V30 5 1 5 6
M  V30 6 2 6 7
M  V30 7 1 7 8
M  V30 8 2 8 9
M  V30 9 1 9 10
M  V30 10 2 10 11
M  V30 11 1 11 12
M  V30 12 1 12 13
M  V30 13 2 12 14
M  V30 14 1 14 15
M  V30 15 2 15 16
M  V30 16 1 16 17
M  V30 17 2 17 18
M  V30 18 1 18 19
M  V30 19 1 19 20
M  V30 20 1 19 21
M  V30 21 2 21 22
M  V30 22 1 22 23
M  V30 23 2 23 24
M  V30 24 1 24 25
M  V30 25 2 25 26
M  V30 26 1 16 27
M  V30 27 2 27 28
M  V30 28 1 27 29
M  V30 29 1 29 30
M  V30 30 2 30 31
M  V30 31 1 14 32
M  V30 32 2 32 33
M  V30 33 1 33 6
M  V30 34 1 32 9
M  V30 35 1 30 15
M  V30 36 1 26 17
M  V30 37 1 26 21
M  V30 38 1 1 34
M  V30 39 1 1 35
M  V30 40 1 1 36
M  V30 41 1 2 37
M  V30 42 1 3 38
M  V30 43 1 3 39
M  V30 44 1 3 40
M  V30 45 1 4 41
M  V30 46 1 5 42
M  V30 47 1 5 43
M  V30 48 1 7 44
M  V30 49 1 8 45
M  V30 50 1 10 46
M  V30 51 1 11 47
M  V30 52 1 18 48
M  V30 53 1 20 49
M  V30 54 1 20 50
M  V30 55 1 20 51
M  V30 56 1 22 52
M  V30 57 1 23 53
M  V30 58 1 24 54
M  V30 59 1 25 55
M  V30 60 1 29 56
M  V30 61 1 33 57
M  V30 END BOND
M  V30 END CTAB
M  END
>  <Dataset>  (436) 
ChEMBL_Kinases

>  <Ligand_Instance>  (436) 
nan

>  <PDB_ID>  (436) 
nan

>  <Standardized_SMILES>  (436) 
CC(C)NCc1ccc2ccc(Cl)c(C3=C(c4cn(C)c5ccccc45)C(=O)NC3=O)c2c1

>  <Name>  (436) 
nan

>  <Pocket>  (436) 
nan

>  <ATP_Site>  (436) 
nan

>  <Peripheral>  (436) 
nan

>  <Num_H_Atoms_ProtBoundConf>  (436) 
nan

>  <Num_Resolved_Atoms>  (436) 
nan

>  <Num_Not_Resolved_Atoms>  (436) 
nan

$$$$
CHEMBL4101316
     RDKit          3D

  0  0  0  0  0  0  0  0  0  0999 V3000
M  V30 BEGIN CTAB
M  V30 COUNTS 58 62 0 0 0
M  V30 BEGIN ATOM
M  V30 1 C 5.018353 -1.744585 6.014403 0
M  V30 2 O 5.278395 -0.405305 5.933271 0
M  V30 3 C 4.441545 0.304942 5.115157 0
M  V30 4 C 4.517299 -0.175904 3.711004 0
M  V30 5 N 3.637040 0.573918 2.814974 0
M  V30 6 C 2.266916 0.288021 3.119164 0
M  V30 7 C 1.302137 1.021937 2.221907 0
M  V30 8 C 0.801346 2.252864 2.575880 0
M  V30 9 C -0.097390 2.931714 1.746900 0
M  V30 10 C -0.505288 2.373328 0.540578 0
M  V30 11 C -1.412689 3.018584 -0.288491 0
M  V30 12 C -1.781031 2.389881 -1.454949 0
M  V30 13 C -1.270097 1.147196 -1.810554 0
M  V30 14 Cl -1.859289 0.507632 -3.347137 0
M  V30 15 C -0.354224 0.496682 -0.975057 0
M  V30 16 C 0.123927 -0.803205 -1.436556 0
M  V30 17 C -0.380396 -1.977007 -1.787713 0
M  V30 18 C -1.825585 -2.176467 -1.746632 0
M  V30 19 C -2.597045 -1.703104 -0.692772 0
M  V30 20 N -3.909855 -2.019934 -0.900454 0
M  V30 21 C -5.084651 -1.739590 -0.079909 0
M  V30 22 C -4.012864 -2.693882 -2.076192 0
M  V30 23 C -5.079673 -3.238667 -2.767684 0
M  V30 24 C -4.828522 -3.874130 -3.980709 0
M  V30 25 C -3.554276 -3.963622 -4.488763 0
M  V30 26 C -2.513610 -3.410219 -3.774642 0
M  V30 27 C -2.734113 -2.784658 -2.586563 0
M  V30 28 C 0.709954 -2.869686 -2.183402 0
M  V30 29 O 0.528166 -4.076137 -2.569882 0
M  V30 30 N 1.941965 -2.168135 -2.059293 0
M  V30 31 C 1.597083 -0.849057 -1.586081 0
M  V30 32 O 2.649970 -0.143836 -1.447836 0
M  V30 33 C 0.001371 1.140230 0.190979 0
M  V30 34 C 0.885102 0.477074 1.012734 0
M  V30 35 H 5.100011 -2.290095 5.069228 0
M  V30 36 H 5.702673 -2.175495 6.794357 0
M  V30 37 H 3.971807 -1.934242 6.377718 0
M  V30 38 H 4.667530 1.403071 5.120002 0
M  V30 39 H 3.422110 0.230344 5.557644 0
M  V30 40 H 4.188874 -1.255952 3.660170 0
M  V30 41 H 5.546673 -0.096282 3.347504 0
M  V30 42 H 3.901895 1.578694 2.865357 0
M  V30 43 H 2.131786 -0.814067 2.910471 0
M  V30 44 H 1.984374 0.442328 4.159224 0
M  V30 45 H 1.110119 2.705019 3.515335 0
M  V30 46 H -0.507188 3.904108 2.005706 0
M  V30 47 H -1.794409 3.981298 0.006815 0
M  V30 48 H -2.489829 2.912707 -2.082497 0
M  V30 49 H -2.312001 -1.154544 0.209002 0
M  V30 50 H -4.909068 -0.877319 0.610253 0
M  V30 51 H -5.951962 -1.462475 -0.702661 0
M  V30 52 H -5.330341 -2.606193 0.566616 0
M  V30 53 H -6.079716 -3.164405 -2.364029 0
M  V30 54 H -5.661106 -4.316527 -4.549444 0
M  V30 55 H -3.442726 -4.478526 -5.447507 0
M  V30 56 H -1.543119 -3.488511 -4.194270 0
M  V30 57 H 2.832235 -2.690439 -2.315460 0
M  V30 58 H 1.306015 -0.497223 0.812050 0
M  V30 END ATOM
M  V30 BEGIN BOND
M  V30 1 1 1 2
M  V30 2 1 2 3
M  V30 3 1 3 4
M  V30 4 1 4 5
M  V30 5 1 5 6
M  V30 6 1 6 7
M  V30 7 2 7 8
M  V30 8 1 8 9
M  V30 9 2 9 10
M  V30 10 1 10 11
M  V30 11 2 11 12
M  V30 12 1 12 13
M  V30 13 1 13 14
M  V30 14 2 13 15
M  V30 15 1 15 16
M  V30 16 2 16 17
M  V30 17 1 17 18
M  V30 18 2 18 19
M  V30 19 1 19 20
M  V30 20 1 20 21
M  V30 21 1 20 22
M  V30 22 2 22 23
M  V30 23 1 23 24
M  V30 24 2 24 25
M  V30 25 1 25 26
M  V30 26 2 26 27
M  V30 27 1 17 28
M  V30 28 2 28 29
M  V30 29 1 28 30
M  V30 30 1 30 31
M  V30 31 2 31 32
M  V30 32 1 15 33
M  V30 33 2 33 34
M  V30 34 1 34 7
M  V30 35 1 33 10
M  V30 36 1 31 16
M  V30 37 1 27 18
M  V30 38 1 27 22
M  V30 39 1 1 35
M  V30 40 1 1 36
M  V30 41 1 1 37
M  V30 42 1 3 38
M  V30 43 1 3 39
M  V30 44 1 4 40
M  V30 45 1 4 41
M  V30 46 1 5 42
M  V30 47 1 6 43
M  V30 48 1 6 44
M  V30 49 1 8 45
M  V30 50 1 9 46
M  V30 51 1 11 47
M  V30 52 1 12 48
M  V30 53 1 19 49
M  V30 54 1 21 50
M  V30 55 1 21 51
M  V30 56 1 21 52
M  V30 57 1 23 53
M  V30 58 1 24 54
M  V30 59 1 25 55
M  V30 60 1 26 56
M  V30 61 1 30 57
M  V30 62 1 34 58
M  V30 END BOND
M  V30 END CTAB
M  END
>  <Dataset>  (437) 
ChEMBL_Kinases

>  <Ligand_Instance>  (437) 
nan

>  <PDB_ID>  (437) 
nan

>  <Standardized_SMILES>  (437) 
COCCNCc1ccc2ccc(Cl)c(C3=C(c4cn(C)c5ccccc45)C(=O)NC3=O)c2c1

>  <Name>  (437) 
nan

>  <Pocket>  (437) 
nan

>  <ATP_Site>  (437) 
nan

>  <Peripheral>  (437) 
nan

>  <Num_H_Atoms_ProtBoundConf>  (437) 
nan

>  <Num_Resolved_Atoms>  (437) 
nan

>  <Num_Not_Resolved_Atoms>  (437) 
nan

$$$$
CHEMBL3544944
     RDKit          3D

  0  0  0  0  0  0  0  0  0  0999 V3000
M  V30 BEGIN CTAB
M  V30 COUNTS 32 35 0 0 0
M  V30 BEGIN ATOM
M  V30 1 O 0.635973 2.064976 3.375020 0
M  V30 2 C 0.644614 1.227370 2.436123 0
M  V30 3 N 1.460331 0.159739 2.405423 0
M  V30 4 C 1.468574 -0.741363 1.393823 0
M  V30 5 C 2.409037 -1.919134 1.418696 0
M  V30 6 C 1.774343 -2.955628 0.497617 0
M  V30 7 C 1.016525 -3.886145 1.419241 0
M  V30 8 C 1.874778 -3.817188 2.675333 0
M  V30 9 N 2.340530 -2.464885 2.756930 0
M  V30 10 N 0.603829 -0.552451 0.355366 0
M  V30 11 C -0.242470 0.480860 0.302776 0
M  V30 12 C -0.211950 1.370709 1.357753 0
M  V30 13 O -1.098767 2.305613 1.134657 0
M  V30 14 C -1.715830 2.075958 -0.020343 0
M  V30 15 C -2.726036 2.752491 -0.715712 0
M  V30 16 C -3.175182 2.257551 -1.928729 0
M  V30 17 C -2.636084 1.101212 -2.461018 0
M  V30 18 Cl -3.189981 0.457764 -3.994518 0
M  V30 19 C -1.630151 0.401708 -1.797930 0
M  V30 20 C -1.205037 0.923072 -0.589715 0
M  V30 21 H 2.106079 0.058794 3.226507 0
M  V30 22 H 3.415439 -1.649644 1.103140 0
M  V30 23 H 1.033333 -2.514165 -0.200127 0
M  V30 24 H 2.534190 -3.471120 -0.104701 0
M  V30 25 H 0.011445 -3.483594 1.652139 0
M  V30 26 H 0.909725 -4.899971 1.021352 0
M  V30 27 H 2.679927 -4.577535 2.680790 0
M  V30 28 H 1.183183 -4.063049 3.521575 0
M  V30 29 H 1.707638 -1.938252 3.399600 0
M  V30 30 H -3.142160 3.669929 -0.276597 0
M  V30 31 H -3.965895 2.794389 -2.464722 0
M  V30 32 H -1.172066 -0.512310 -2.172375 0
M  V30 END ATOM
M  V30 BEGIN BOND
M  V30 1 2 1 2
M  V30 2 1 2 3
M  V30 3 1 3 4
M  V30 4 1 4 5
M  V30 5 1 5 6
M  V30 6 1 6 7
M  V30 7 1 7 8
M  V30 8 1 8 9
M  V30 9 2 4 10
M  V30 10 1 10 11
M  V30 11 2 11 12
M  V30 12 1 12 13
M  V30 13 1 13 14
M  V30 14 2 14 15
M  V30 15 1 15 16
M  V30 16 2 16 17
M  V30 17 1 17 18
M  V30 18 1 17 19
M  V30 19 2 19 20
M  V30 20 1 12 2
M  V30 21 1 20 14
M  V30 22 1 9 5
M  V30 23 1 20 11
M  V30 24 1 3 21
M  V30 25 1 5 22
M  V30 26 1 6 23
M  V30 27 1 6 24
M  V30 28 1 7 25
M  V30 29 1 7 26
M  V30 30 1 8 27
M  V30 31 1 8 28
M  V30 32 1 9 29
M  V30 33 1 15 30
M  V30 34 1 16 31
M  V30 35 1 19 32
M  V30 END BOND
M  V30 END CTAB
M  END
>  <Dataset>  (438) 
ChEMBL_Kinases

>  <Ligand_Instance>  (438) 
nan

>  <PDB_ID>  (438) 
nan

>  <Standardized_SMILES>  (438) 
O=c1[nH]c(C2CCCN2)nc2c1oc1ccc(Cl)cc12

>  <Name>  (438) 
BMS-863233

>  <Pocket>  (438) 
nan

>  <ATP_Site>  (438) 
nan

>  <Peripheral>  (438) 
nan

>  <Num_H_Atoms_ProtBoundConf>  (438) 
nan

>  <Num_Resolved_Atoms>  (438) 
nan

>  <Num_Not_Resolved_Atoms>  (438) 
nan

$$$$
CHEMBL23327
     RDKit          3D

  0  0  0  0  0  0  0  0  0  0999 V3000
M  V30 BEGIN CTAB
M  V30 COUNTS 52 54 0 0 0
M  V30 BEGIN ATOM
M  V30 1 C 1.415052 -2.926915 4.339806 0
M  V30 2 C 1.018506 -2.732728 2.893796 0
M  V30 3 C -0.007894 -1.649585 2.815594 0
M  V30 4 C 2.228928 -2.524051 2.044345 0 CFG=2
M  V30 5 C 3.065599 -1.326933 2.420253 0
M  V30 6 O 2.498105 -0.133834 2.066670 0
M  V30 7 N 1.989821 -2.603077 0.638901 0
M  V30 8 C 1.034820 -1.791010 -0.024882 0
M  V30 9 N 1.411641 -0.529744 -0.336810 0
M  V30 10 C 0.597135 0.327000 -0.972054 0
M  V30 11 N 1.113059 1.625484 -1.231788 0
M  V30 12 C 0.859907 2.737882 -0.388114 0
M  V30 13 C 1.452877 3.998224 -0.508119 0
M  V30 14 C 1.185959 5.055233 0.312037 0
M  V30 15 C 0.270025 4.891022 1.338207 0
M  V30 16 C -0.332768 3.658234 1.482772 0
M  V30 17 Cl -1.504230 3.438164 2.787187 0
M  V30 18 C -0.067936 2.566500 0.648950 0
M  V30 19 C -0.659801 -0.122641 -1.304899 0
M  V30 20 N -1.655997 0.504008 -1.929544 0
M  V30 21 C -2.724904 -0.324868 -2.049841 0
M  V30 22 N -2.341271 -1.476856 -1.475442 0
M  V30 23 C -3.124563 -2.683977 -1.345730 0
M  V30 24 C -2.529493 -3.677496 -0.410337 0
M  V30 25 C -3.398887 -3.341325 -2.682951 0
M  V30 26 C -1.071445 -1.400930 -0.999889 0
M  V30 27 N -0.204386 -2.203641 -0.363438 0
M  V30 28 H 2.290297 -3.632057 4.399023 0
M  V30 29 H 1.592531 -2.000570 4.889276 0
M  V30 30 H 0.564456 -3.453058 4.822548 0
M  V30 31 H 0.631164 -3.746832 2.568195 0
M  V30 32 H -0.332708 -1.314227 3.834906 0
M  V30 33 H -0.948156 -2.067753 2.359411 0
M  V30 34 H 0.268822 -0.759527 2.249086 0
M  V30 35 H 2.899398 -3.412302 2.278113 0
M  V30 36 H 4.068466 -1.389960 1.923346 0
M  V30 37 H 3.291855 -1.306368 3.509958 0
M  V30 38 H 2.424553 0.476170 2.833824 0
M  V30 39 H 2.359683 -3.163779 -0.185998 0
M  V30 40 H 1.685403 1.651704 -2.090280 0
M  V30 41 H 2.167013 4.084167 -1.330588 0
M  V30 42 H 1.702827 5.998467 0.137313 0
M  V30 43 H 0.045871 5.710744 1.993175 0
M  V30 44 H -0.600406 1.639914 0.851816 0
M  V30 45 H -3.669960 -0.084862 -2.512160 0
M  V30 46 H -4.112753 -2.370152 -0.919104 0
M  V30 47 H -2.263167 -3.150722 0.549640 0
M  V30 48 H -1.604231 -4.137859 -0.826087 0
M  V30 49 H -3.277067 -4.428248 -0.172240 0
M  V30 50 H -4.281128 -2.859882 -3.118968 0
M  V30 51 H -3.541059 -4.429074 -2.510439 0
M  V30 52 H -2.515220 -3.102615 -3.314755 0
M  V30 END ATOM
M  V30 BEGIN BOND
M  V30 1 1 1 2
M  V30 2 1 2 3
M  V30 3 1 2 4
M  V30 4 1 4 5
M  V30 5 1 5 6
M  V30 6 1 4 7
M  V30 7 1 7 8
M  V30 8 2 8 9
M  V30 9 1 9 10
M  V30 10 1 10 11
M  V30 11 1 11 12
M  V30 12 2 12 13
M  V30 13 1 13 14
M  V30 14 2 14 15
M  V30 15 1 15 16
M  V30 16 1 16 17
M  V30 17 2 16 18
M  V30 18 2 10 19
M  V30 19 1 19 20
M  V30 20 2 20 21
M  V30 21 1 21 22
M  V30 22 1 22 23
M  V30 23 1 23 24
M  V30 24 1 23 25
M  V30 25 1 22 26
M  V30 26 2 26 27
M  V30 27 1 27 8
M  V30 28 1 18 12
M  V30 29 1 26 19
M  V30 30 1 1 28
M  V30 31 1 1 29
M  V30 32 1 1 30
M  V30 33 1 2 31
M  V30 34 1 3 32
M  V30 35 1 3 33
M  V30 36 1 3 34
M  V30 37 1 4 35 CFG=1
M  V30 38 1 5 36
M  V30 39 1 5 37
M  V30 40 1 6 38
M  V30 41 1 7 39
M  V30 42 1 11 40
M  V30 43 1 13 41
M  V30 44 1 14 42
M  V30 45 1 15 43
M  V30 46 1 18 44
M  V30 47 1 21 45
M  V30 48 1 23 46
M  V30 49 1 24 47
M  V30 50 1 24 48
M  V30 51 1 24 49
M  V30 52 1 25 50
M  V30 53 1 25 51
M  V30 54 1 25 52
M  V30 END BOND
M  V30 END CTAB
M  END
>  <Dataset>  (439) 
ChEMBL_Kinases

>  <Ligand_Instance>  (439) 
nan

>  <PDB_ID>  (439) 
nan

>  <Standardized_SMILES>  (439) 
CC(C)[C@H](CO)Nc1nc(Nc2cccc(Cl)c2)c2ncn(C(C)C)c2n1

>  <Name>  (439) 
PURVALANOLA

>  <Pocket>  (439) 
nan

>  <ATP_Site>  (439) 
nan

>  <Peripheral>  (439) 
nan

>  <Num_H_Atoms_ProtBoundConf>  (439) 
nan

>  <Num_Resolved_Atoms>  (439) 
nan

>  <Num_Not_Resolved_Atoms>  (439) 
nan

$$$$
CHEMBL293805
     RDKit          3D

  0  0  0  0  0  0  0  0  0  0999 V3000
M  V30 BEGIN CTAB
M  V30 COUNTS 71 76 0 0 0
M  V30 BEGIN ATOM
M  V30 1 C 0.565384 -0.840691 5.487994 0
M  V30 2 N 1.504905 -0.105576 4.637681 0
M  V30 3 C 2.260839 -0.600048 3.610721 0
M  V30 4 C 3.002192 0.463304 3.109946 0
M  V30 5 C 3.869393 0.115228 1.999420 0
M  V30 6 C 3.714899 -0.547999 0.875840 0
M  V30 7 C 2.565036 -1.200762 0.310156 0
M  V30 8 C 1.380361 -0.456401 0.281132 0
M  V30 9 N 0.434984 -1.236687 -0.286361 0
M  V30 10 C -0.956919 -0.829643 -0.541498 0
M  V30 11 C -0.892998 0.246317 -1.611785 0
M  V30 12 C -2.243972 0.812661 -1.903659 0
M  V30 13 N -3.227107 0.032794 -1.136256 0
M  V30 14 C -4.272051 -0.829113 -1.608668 0
M  V30 15 O -5.085829 -1.467643 -0.890739 0
M  V30 16 O -4.325625 -0.915935 -2.994008 0
M  V30 17 C -5.253203 -1.693895 -3.691043 0
M  V30 18 C -6.694406 -1.299151 -3.410211 0
M  V30 19 C -5.030856 -1.470639 -5.185040 0
M  V30 20 C -5.075777 -3.174663 -3.414015 0
M  V30 21 C -2.956054 0.283624 0.282897 0
M  V30 22 C -1.666397 -0.387943 0.691930 0
M  V30 23 C 0.962778 -2.427898 -0.611571 0
M  V30 24 C 0.509061 -3.594280 -1.192750 0
M  V30 25 C 1.315089 -4.705397 -1.407470 0
M  V30 26 C 2.649521 -4.612472 -1.005698 0
M  V30 27 C 3.157143 -3.472738 -0.420092 0
M  V30 28 C 2.278743 -2.426480 -0.251209 0
M  V30 29 C 4.986027 -0.565076 0.146585 0
M  V30 30 O 5.291464 -1.086371 -0.973338 0
M  V30 31 N 5.953879 0.145250 0.911016 0
M  V30 32 C 5.267348 0.589530 2.098675 0
M  V30 33 O 5.923496 1.247994 2.945059 0
M  V30 34 C 2.682710 1.581183 3.838209 0
M  V30 35 C 3.217958 2.844551 3.626670 0
M  V30 36 C 2.732333 3.824184 4.491726 0
M  V30 37 C 1.800417 3.529615 5.463797 0
M  V30 38 C 1.322853 2.245545 5.602243 0
M  V30 39 C 1.752975 1.221063 4.785140 0
M  V30 40 H 1.000095 -0.952681 6.523389 0
M  V30 41 H -0.383217 -0.321245 5.603536 0
M  V30 42 H 0.471890 -1.887354 5.128647 0
M  V30 43 H 2.166309 -1.666944 3.368065 0
M  V30 44 H 1.132594 0.560344 0.617726 0
M  V30 45 H -1.522078 -1.676539 -0.977334 0
M  V30 46 H -0.561686 -0.276116 -2.538069 0
M  V30 47 H -0.113975 0.990487 -1.372701 0
M  V30 48 H -2.305141 1.858544 -1.604764 0
M  V30 49 H -2.530735 0.755949 -2.962846 0
M  V30 50 H -7.329165 -2.014442 -3.992524 0
M  V30 51 H -6.926198 -1.264517 -2.346082 0
M  V30 52 H -6.834815 -0.285726 -3.880836 0
M  V30 53 H -5.751912 -0.693488 -5.545384 0
M  V30 54 H -5.280800 -2.413635 -5.711137 0
M  V30 55 H -4.029990 -1.110505 -5.425617 0
M  V30 56 H -4.990288 -3.365224 -2.318580 0
M  V30 57 H -4.142588 -3.539199 -3.894522 0
M  V30 58 H -5.923963 -3.741415 -3.822082 0
M  V30 59 H -3.801040 -0.094193 0.902718 0
M  V30 60 H -2.895930 1.364303 0.494463 0
M  V30 61 H -1.041330 0.297939 1.288103 0
M  V30 62 H -1.930046 -1.288312 1.291529 0
M  V30 63 H -0.551840 -3.613113 -1.490326 0
M  V30 64 H 0.871985 -5.579940 -1.871294 0
M  V30 65 H 3.256428 -5.490368 -1.180822 0
M  V30 66 H 4.189496 -3.410091 -0.107068 0
M  V30 67 H 6.953989 0.299453 0.642113 0
M  V30 68 H 3.935493 3.064243 2.864536 0
M  V30 69 H 3.065586 4.831147 4.430455 0
M  V30 70 H 1.435626 4.315342 6.132056 0
M  V30 71 H 0.583927 1.982522 6.362824 0
M  V30 END ATOM
M  V30 BEGIN BOND
M  V30 1 1 1 2
M  V30 2 1 2 3
M  V30 3 2 3 4
M  V30 4 1 4 5
M  V30 5 2 5 6
M  V30 6 1 6 7
M  V30 7 2 7 8
M  V30 8 1 8 9
M  V30 9 1 9 10
M  V30 10 1 10 11
M  V30 11 1 11 12
M  V30 12 1 12 13
M  V30 13 1 13 14
M  V30 14 2 14 15
M  V30 15 1 14 16
M  V30 16 1 16 17
M  V30 17 1 17 18
M  V30 18 1 17 19
M  V30 19 1 17 20
M  V30 20 1 13 21
M  V30 21 1 21 22
M  V30 22 1 9 23
M  V30 23 2 23 24
M  V30 24 1 24 25
M  V30 25 2 25 26
M  V30 26 1 26 27
M  V30 27 2 27 28
M  V30 28 1 6 29
M  V30 29 2 29 30
M  V30 30 1 29 31
M  V30 31 1 31 32
M  V30 32 2 32 33
M  V30 33 1 4 34
M  V30 34 2 34 35
M  V30 35 1 35 36
M  V30 36 2 36 37
M  V30 37 1 37 38
M  V30 38 2 38 39
M  V30 39 1 39 2
M  V30 40 1 32 5
M  V30 41 1 39 34
M  V30 42 1 28 7
M  V30 43 1 22 10
M  V30 44 1 28 23
M  V30 45 1 1 40
M  V30 46 1 1 41
M  V30 47 1 1 42
M  V30 48 1 3 43
M  V30 49 1 8 44
M  V30 50 1 10 45
M  V30 51 1 11 46
M  V30 52 1 11 47
M  V30 53 1 12 48
M  V30 54 1 12 49
M  V30 55 1 18 50
M  V30 56 1 18 51
M  V30 57 1 18 52
M  V30 58 1 19 53
M  V30 59 1 19 54
M  V30 60 1 19 55
M  V30 61 1 20 56
M  V30 62 1 20 57
M  V30 63 1 20 58
M  V30 64 1 21 59
M  V30 65 1 21 60
M  V30 66 1 22 61
M  V30 67 1 22 62
M  V30 68 1 24 63
M  V30 69 1 25 64
M  V30 70 1 26 65
M  V30 71 1 27 66
M  V30 72 1 31 67
M  V30 73 1 35 68
M  V30 74 1 36 69
M  V30 75 1 37 70
M  V30 76 1 38 71
M  V30 END BOND
M  V30 END CTAB
M  END
>  <Dataset>  (440) 
ChEMBL_Kinases

>  <Ligand_Instance>  (440) 
nan

>  <PDB_ID>  (440) 
nan

>  <Standardized_SMILES>  (440) 
Cn1cc(C2=C(c3cn(C4CCN(C(=O)OC(C)(C)C)CC4)c4ccccc34)C(=O)NC2=O)c2ccccc21

>  <Name>  (440) 
nan

>  <Pocket>  (440) 
nan

>  <ATP_Site>  (440) 
nan

>  <Peripheral>  (440) 
nan

>  <Num_H_Atoms_ProtBoundConf>  (440) 
nan

>  <Num_Resolved_Atoms>  (440) 
nan

>  <Num_Not_Resolved_Atoms>  (440) 
nan

$$$$
CHEMBL2333163
     RDKit          3D

  0  0  0  0  0  0  0  0  0  0999 V3000
M  V30 BEGIN CTAB
M  V30 COUNTS 119 124 0 0 0
M  V30 BEGIN ATOM
M  V30 1 O -1.583950 -0.215072 -2.553488 0
M  V30 2 C -1.451346 0.730361 -3.379345 0
M  V30 3 N -0.217917 1.431392 -3.423604 0
M  V30 4 C 0.945491 1.192950 -2.614141 0
M  V30 5 C 2.109933 2.091795 -2.904305 0
M  V30 6 C 1.738562 3.501311 -2.681812 0
M  V30 7 C 1.910400 3.882427 -1.350620 0
M  V30 8 C 1.630778 5.183448 -0.915626 0
M  V30 9 C 1.174893 6.099909 -1.839030 0
M  V30 10 O 0.888744 7.397177 -1.445215 0
M  V30 11 C 0.996288 5.739850 -3.173090 0
M  V30 12 Br 0.369924 6.968520 -4.495084 0
M  V30 13 C 1.282728 4.450306 -3.562730 0
M  V30 14 C -2.469518 1.172767 -4.313428 0
M  V30 15 C -3.815537 0.506659 -4.448008 0
M  V30 16 C -3.576045 -0.950389 -4.789956 0
M  V30 17 C -4.457119 -1.843457 -4.212971 0
M  V30 18 C -4.275693 -3.179500 -4.454178 0
M  V30 19 Br -5.327035 -4.625665 -3.797671 0
M  V30 20 C -3.247287 -3.632037 -5.245634 0
M  V30 21 O -2.941993 -4.917046 -5.573412 0
M  V30 22 C -2.313681 -2.836634 -5.866717 0
M  V30 23 O -1.210690 -2.696959 -6.658697 0
M  V30 24 C 0.053789 -3.181565 -6.502148 0
M  V30 25 C 0.767623 -2.002557 -6.179814 0
M  V30 26 C 2.153707 -1.955155 -5.911475 0
M  V30 27 C 2.876434 -3.162048 -5.970033 0
M  V30 28 C 4.321978 -3.071990 -5.632637 0
M  V30 29 C 4.580722 -3.461318 -4.196576 0
M  V30 30 N 3.788807 -2.674133 -3.249643 0
M  V30 31 C 4.123195 -3.125098 -1.942458 0
M  V30 32 O 5.000685 -4.022875 -1.913288 0
M  V30 33 C 3.494277 -2.598591 -0.724114 0
M  V30 34 C 3.910480 -3.069184 0.595427 0
M  V30 35 C 3.074027 -2.618316 1.721676 0
M  V30 36 C 2.079623 -3.552706 2.063529 0
M  V30 37 C 1.128227 -3.411563 3.080817 0
M  V30 38 Br -0.167181 -4.756477 3.448469 0
M  V30 39 C 1.216256 -2.213293 3.793153 0
M  V30 40 O 0.256669 -2.081677 4.812360 0
M  V30 41 C 2.195720 -1.288616 3.458061 0
M  V30 42 C 2.076383 -0.119370 4.311510 0
M  V30 43 C 1.147871 0.832067 3.861729 0
M  V30 44 C 0.791494 2.036932 4.489366 0
M  V30 45 C -0.234632 2.866572 3.793753 0
M  V30 46 C -1.589429 2.341313 3.988109 0
M  V30 47 N -2.177118 1.900137 2.902415 0
M  V30 48 O -1.548269 1.938862 1.686158 0
M  V30 49 C -2.297926 2.242983 5.257707 0
M  V30 50 O -1.796615 2.656679 6.326059 0
M  V30 51 N -3.576593 1.675121 5.309990 0
M  V30 52 C -4.450334 1.488289 6.428281 0
M  V30 53 C -5.751219 0.807462 6.098917 0
M  V30 54 C -5.564784 -0.575900 5.565726 0
M  V30 55 C -5.536542 -1.523492 6.588938 0
M  V30 56 C -5.374202 -2.883154 6.388656 0
M  V30 57 C -5.230233 -3.332911 5.096189 0
M  V30 58 O -5.060124 -4.699513 4.813688 0
M  V30 59 C -5.258320 -2.398428 4.085379 0
M  V30 60 Br -5.057365 -3.004264 2.298311 0
M  V30 61 C -5.420056 -1.044396 4.279794 0
M  V30 62 C 1.451457 2.274316 5.676834 0
M  V30 63 C 2.370160 1.359616 6.145109 0
M  V30 64 Br 3.255420 1.740085 7.799831 0
M  V30 65 C 2.691793 0.196758 5.508445 0
M  V30 66 O 3.602270 -0.748072 5.938173 0
M  V30 67 C 3.101648 -1.463778 2.463876 0
M  V30 68 N 2.609777 -1.718428 -0.954101 0
M  V30 69 O 1.894501 -1.092745 0.061438 0
M  V30 70 C 2.176822 -4.297790 -6.286482 0
M  V30 71 C 0.829023 -4.314293 -6.542094 0
M  V30 72 Br -0.149112 -5.839993 -7.031094 0
M  V30 73 C -2.532822 -1.447758 -5.596495 0
M  V30 74 N -2.291148 2.176732 -5.139239 0
M  V30 75 O -3.263375 2.579283 -6.012930 0
M  V30 76 H -0.098436 2.210757 -4.106664 0
M  V30 77 H 0.598306 1.299966 -1.544381 0
M  V30 78 H 1.302208 0.136086 -2.692695 0
M  V30 79 H 2.392961 1.917391 -3.983444 0
M  V30 80 H 3.012240 1.819189 -2.327581 0
M  V30 81 H 2.257390 3.249209 -0.556731 0
M  V30 82 H 1.758142 5.496727 0.115289 0
M  V30 83 H 1.616347 8.097110 -1.650917 0
M  V30 84 H 1.171531 4.124540 -4.571205 0
M  V30 85 H -4.297895 0.583271 -3.472801 0
M  V30 86 H -4.444367 0.948693 -5.211384 0
M  V30 87 H -5.293966 -1.639492 -3.583307 0
M  V30 88 H -2.767359 -5.610350 -4.828408 0
M  V30 89 H 0.415116 -0.951012 -6.078431 0
M  V30 90 H 2.725776 -1.049989 -5.656366 0
M  V30 91 H 4.698576 -2.041414 -5.772144 0
M  V30 92 H 4.953298 -3.734823 -6.250669 0
M  V30 93 H 5.642658 -3.225469 -3.977397 0
M  V30 94 H 4.453123 -4.542917 -4.023269 0
M  V30 95 H 3.087522 -1.910019 -3.360743 0
M  V30 96 H 4.977871 -2.739116 0.818547 0
M  V30 97 H 3.999253 -4.191471 0.643699 0
M  V30 98 H 1.971779 -4.512700 1.529855 0
M  V30 99 H 0.351102 -1.316425 5.484948 0
M  V30 100 H 0.625970 0.627247 2.905368 0
M  V30 101 H 0.031206 2.940894 2.747588 0
M  V30 102 H -0.171676 3.893118 4.233711 0
M  V30 103 H -2.044158 1.965642 0.801713 0
M  V30 104 H -3.969009 1.336092 4.410295 0
M  V30 105 H -4.739145 2.527108 6.766788 0
M  V30 106 H -3.906033 1.008061 7.247280 0
M  V30 107 H -6.225071 1.369450 5.257612 0
M  V30 108 H -6.420664 0.811385 6.958909 0
M  V30 109 H -5.642042 -1.295613 7.657530 0
M  V30 110 H -5.354305 -3.620442 7.168669 0
M  V30 111 H -4.103250 -5.028373 4.700452 0
M  V30 112 H -5.455075 -0.276322 3.541169 0
M  V30 113 H 1.176268 3.197610 6.157991 0
M  V30 114 H 4.498435 -0.514585 6.364901 0
M  V30 115 H 3.840139 -0.753398 2.220111 0
M  V30 116 H 0.901128 -0.921444 -0.123583 0
M  V30 117 H 2.700857 -5.214419 -6.336057 0
M  V30 118 H -2.009753 -0.529268 -5.912086 0
M  V30 119 H -3.685208 3.519120 -5.944723 0
M  V30 END ATOM
M  V30 BEGIN BOND
M  V30 1 2 1 2
M  V30 2 1 2 3
M  V30 3 1 3 4
M  V30 4 1 4 5
M  V30 5 1 5 6
M  V30 6 2 6 7
M  V30 7 1 7 8
M  V30 8 2 8 9
M  V30 9 1 9 10
M  V30 10 1 9 11
M  V30 11 1 11 12
M  V30 12 2 11 13
M  V30 13 1 2 14
M  V30 14 1 14 15
M  V30 15 1 15 16
M  V30 16 2 16 17
M  V30 17 1 17 18
M  V30 18 1 18 19
M  V30 19 2 18 20
M  V30 20 1 20 21
M  V30 21 1 20 22
M  V30 22 1 22 23
M  V30 23 1 23 24
M  V30 24 2 24 25
M  V30 25 1 25 26
M  V30 26 2 26 27
M  V30 27 1 27 28
M  V30 28 1 28 29
M  V30 29 1 29 30
M  V30 30 1 30 31
M  V30 31 2 31 32
M  V30 32 1 31 33
M  V30 33 1 33 34
M  V30 34 1 34 35
M  V30 35 2 35 36
M  V30 36 1 36 37
M  V30 37 1 37 38
M  V30 38 2 37 39
M  V30 39 1 39 40
M  V30 40 1 39 41
M  V30 41 1 41 42
M  V30 42 2 42 43
M  V30 43 1 43 44
M  V30 44 1 44 45
M  V30 45 1 45 46
M  V30 46 2 46 47
M  V30 47 1 47 48
M  V30 48 1 46 49
M  V30 49 2 49 50
M  V30 50 1 49 51
M  V30 51 1 51 52
M  V30 52 1 52 53
M  V30 53 1 53 54
M  V30 54 2 54 55
M  V30 55 1 55 56
M  V30 56 2 56 57
M  V30 57 1 57 58
M  V30 58 1 57 59
M  V30 59 1 59 60
M  V30 60 2 59 61
M  V30 61 2 44 62
M  V30 62 1 62 63
M  V30 63 1 63 64
M  V30 64 2 63 65
M  V30 65 1 65 66
M  V30 66 2 41 67
M  V30 67 2 33 68
M  V30 68 1 68 69
M  V30 69 1 27 70
M  V30 70 2 70 71
M  V30 71 1 71 72
M  V30 72 2 22 73
M  V30 73 2 14 74
M  V30 74 1 74 75
M  V30 75 1 13 6
M  V30 76 1 73 16
M  V30 77 1 71 24
M  V30 78 1 67 35
M  V30 79 1 65 42
M  V30 80 1 61 54
M  V30 81 1 3 76
M  V30 82 1 4 77
M  V30 83 1 4 78
M  V30 84 1 5 79
M  V30 85 1 5 80
M  V30 86 1 7 81
M  V30 87 1 8 82
M  V30 88 1 10 83
M  V30 89 1 13 84
M  V30 90 1 15 85
M  V30 91 1 15 86
M  V30 92 1 17 87
M  V30 93 1 21 88
M  V30 94 1 25 89
M  V30 95 1 26 90
M  V30 96 1 28 91
M  V30 97 1 28 92
M  V30 98 1 29 93
M  V30 99 1 29 94
M  V30 100 1 30 95
M  V30 101 1 34 96
M  V30 102 1 34 97
M  V30 103 1 36 98
M  V30 104 1 40 99
M  V30 105 1 43 100
M  V30 106 1 45 101
M  V30 107 1 45 102
M  V30 108 1 48 103
M  V30 109 1 51 104
M  V30 110 1 52 105
M  V30 111 1 52 106
M  V30 112 1 53 107
M  V30 113 1 53 108
M  V30 114 1 55 109
M  V30 115 1 56 110
M  V30 116 1 58 111
M  V30 117 1 61 112
M  V30 118 1 62 113
M  V30 119 1 66 114
M  V30 120 1 67 115
M  V30 121 1 69 116
M  V30 122 1 70 117
M  V30 123 1 73 118
M  V30 124 1 75 119
M  V30 END BOND
M  V30 END CTAB
M  END
>  <Dataset>  (441) 
ChEMBL_Kinases

>  <Ligand_Instance>  (441) 
nan

>  <PDB_ID>  (441) 
nan

>  <Standardized_SMILES>  (441) 
O=C(NCCc1ccc(O)c(Br)c1)/C(Cc1cc(Br)c(O)c(Oc2ccc(CCNC(=O)/C(Cc3cc(Br)c(O)c(-c4cc(C/C(=N\O)C(=O)NCCc5ccc(O)c(Br)c5)cc(Br)c4O)c3)=N/O)cc2Br)c1)=N/O

>  <Name>  (441) 
SESQUIBASTADIN 1

>  <Pocket>  (441) 
nan

>  <ATP_Site>  (441) 
nan

>  <Peripheral>  (441) 
nan

>  <Num_H_Atoms_ProtBoundConf>  (441) 
nan

>  <Num_Resolved_Atoms>  (441) 
nan

>  <Num_Not_Resolved_Atoms>  (441) 
nan

$$$$
CHEMBL296586
     RDKit          3D

  0  0  0  0  0  0  0  0  0  0999 V3000
M  V30 BEGIN CTAB
M  V30 COUNTS 31 34 0 0 0
M  V30 BEGIN ATOM
M  V30 1 O -3.544450 -1.517962 1.086681 0
M  V30 2 C -2.370937 -1.199372 1.475670 0
M  V30 3 C -1.843979 0.133925 1.026860 0
M  V30 4 C -0.512701 -0.007757 0.355506 0
M  V30 5 C 0.574940 -0.769262 0.748654 0
M  V30 6 N 1.602120 -0.646222 -0.110958 0
M  V30 7 C 1.184658 0.205008 -1.078401 0
M  V30 8 C 1.782660 0.723386 -2.231424 0
M  V30 9 C 1.132614 1.597597 -3.078575 0
M  V30 10 C -0.140885 1.964652 -2.772262 0
M  V30 11 Br -1.004773 3.171867 -3.964445 0
M  V30 12 C -0.798701 1.494566 -1.650218 0
M  V30 13 C -0.116204 0.623218 -0.828718 0
M  V30 14 C 0.691340 -1.625605 1.923095 0
M  V30 15 C 2.017161 -1.723124 2.283229 0
M  V30 16 C 2.268870 -2.523445 3.402329 0
M  V30 17 C 1.238169 -3.163858 4.085158 0
M  V30 18 C -0.081227 -3.041281 3.692729 0
M  V30 19 C -0.348684 -2.255830 2.590841 0
M  V30 20 N -1.760947 -2.216196 2.297294 0
M  V30 21 H -1.771898 0.790427 1.923221 0
M  V30 22 H -2.558941 0.543926 0.311593 0
M  V30 23 H 2.559983 -1.052723 -0.154612 0
M  V30 24 H 2.805653 0.428794 -2.477864 0
M  V30 25 H 1.677976 1.954847 -3.961356 0
M  V30 26 H -1.810225 1.794417 -1.419049 0
M  V30 27 H 2.846846 -1.261322 1.810307 0
M  V30 28 H 3.262337 -2.695416 3.804931 0
M  V30 29 H 1.441786 -3.783786 4.953466 0
M  V30 30 H -0.923832 -3.496600 4.159334 0
M  V30 31 H -2.344095 -2.971183 2.712446 0
M  V30 END ATOM
M  V30 BEGIN BOND
M  V30 1 2 1 2
M  V30 2 1 2 3
M  V30 3 1 3 4
M  V30 4 2 4 5
M  V30 5 1 5 6
M  V30 6 1 6 7
M  V30 7 2 7 8
M  V30 8 1 8 9
M  V30 9 2 9 10
M  V30 10 1 10 11
M  V30 11 1 10 12
M  V30 12 2 12 13
M  V30 13 1 5 14
M  V30 14 2 14 15
M  V30 15 1 15 16
M  V30 16 2 16 17
M  V30 17 1 17 18
M  V30 18 2 18 19
M  V30 19 1 19 20
M  V30 20 1 20 2
M  V30 21 1 13 4
M  V30 22 1 19 14
M  V30 23 1 13 7
M  V30 24 1 3 21
M  V30 25 1 3 22
M  V30 26 1 6 23
M  V30 27 1 8 24
M  V30 28 1 9 25
M  V30 29 1 12 26
M  V30 30 1 15 27
M  V30 31 1 16 28
M  V30 32 1 17 29
M  V30 33 1 18 30
M  V30 34 1 20 31
M  V30 END BOND
M  V30 END CTAB
M  END
>  <Dataset>  (442) 
ChEMBL_Kinases

>  <Ligand_Instance>  (442) 
nan

>  <PDB_ID>  (442) 
nan

>  <Standardized_SMILES>  (442) 
O=C1Cc2c([nH]c3ccc(Br)cc23)-c2ccccc2N1

>  <Name>  (442) 
KENPAULLONE

>  <Pocket>  (442) 
nan

>  <ATP_Site>  (442) 
nan

>  <Peripheral>  (442) 
nan

>  <Num_H_Atoms_ProtBoundConf>  (442) 
nan

>  <Num_Resolved_Atoms>  (442) 
nan

>  <Num_Not_Resolved_Atoms>  (442) 
nan

$$$$
CHEMBL311543
     RDKit          3D

  0  0  0  0  0  0  0  0  0  0999 V3000
M  V30 BEGIN CTAB
M  V30 COUNTS 60 65 0 0 0
M  V30 BEGIN ATOM
M  V30 1 C 3.523790 -1.879214 4.947290 0
M  V30 2 N 2.437896 -0.937925 4.919104 0
M  V30 3 C 1.368050 -1.458645 4.093366 0
M  V30 4 C 1.764918 -1.503582 2.627168 0 CFG=2
M  V30 5 C 2.398387 -0.275395 2.141937 0
M  V30 6 C 1.686517 1.011805 2.149086 0
M  V30 7 N 0.598429 1.161823 1.215466 0
M  V30 8 C -0.638983 0.660378 1.329340 0
M  V30 9 C -1.357660 1.027714 0.215680 0
M  V30 10 C -0.556821 1.782323 -0.621283 0
M  V30 11 C -0.690049 2.426307 -1.841154 0
M  V30 12 C 0.323053 3.136235 -2.454347 0
M  V30 13 C 1.543093 3.208104 -1.811824 0
M  V30 14 C 1.683173 2.570975 -0.599920 0
M  V30 15 C 0.668970 1.851946 0.029507 0
M  V30 16 C -2.734714 0.733888 -0.188835 0
M  V30 17 C -3.146130 -0.457129 -0.589814 0
M  V30 18 C -4.562302 -0.465350 -0.934800 0
M  V30 19 O -5.220597 -1.465836 -1.347321 0
M  V30 20 N -5.015861 0.893814 -0.702297 0
M  V30 21 C -3.868279 1.646445 -0.234820 0
M  V30 22 O -3.810266 2.862004 0.083687 0
M  V30 23 C -2.226221 -1.587207 -0.669903 0
M  V30 24 C -1.588656 -2.281220 0.303052 0
M  V30 25 N -0.825931 -3.241038 -0.259134 0
M  V30 26 C -0.961695 -3.179812 -1.593303 0
M  V30 27 C -0.348265 -3.994681 -2.521176 0
M  V30 28 C -0.671329 -3.714844 -3.852187 0
M  V30 29 C -1.550288 -2.684737 -4.199725 0
M  V30 30 C -2.138652 -1.895383 -3.217169 0
M  V30 31 C -1.839342 -2.145410 -1.872605 0
M  V30 32 C -0.153923 -3.973147 0.787770 0
M  V30 33 C 0.989060 -3.261285 1.429821 0
M  V30 34 O 0.681004 -2.017329 1.938770 0
M  V30 35 H 3.980541 -1.869277 5.981706 0
M  V30 36 H 4.318038 -1.699762 4.200689 0
M  V30 37 H 3.109521 -2.915161 4.777634 0
M  V30 38 H 2.084864 -0.772091 5.873890 0
M  V30 39 H 0.397330 -0.970387 4.255910 0
M  V30 40 H 1.243761 -2.528394 4.402607 0
M  V30 41 H 2.539625 -2.338700 2.561388 0
M  V30 42 H 3.424993 -0.155779 2.610507 0
M  V30 43 H 2.681941 -0.474082 1.054502 0
M  V30 44 H 1.260834 1.283221 3.154715 0
M  V30 45 H 2.427256 1.831423 1.976481 0
M  V30 46 H -0.999824 0.083343 2.160406 0
M  V30 47 H -1.614333 2.403440 -2.382743 0
M  V30 48 H 0.180013 3.626688 -3.408326 0
M  V30 49 H 2.367691 3.751102 -2.250096 0
M  V30 50 H 2.663833 2.657151 -0.134544 0
M  V30 51 H -5.980217 1.244928 -0.847225 0
M  V30 52 H -1.815400 -1.949399 1.287043 0
M  V30 53 H 0.322910 -4.778970 -2.225903 0
M  V30 54 H -0.216783 -4.327756 -4.646933 0
M  V30 55 H -1.771691 -2.504560 -5.253301 0
M  V30 56 H -2.803219 -1.116442 -3.497259 0
M  V30 57 H 0.204313 -4.960633 0.368080 0
M  V30 58 H -0.927381 -4.287559 1.549402 0
M  V30 59 H 1.295512 -3.897708 2.302739 0
M  V30 60 H 1.822171 -3.234191 0.694074 0
M  V30 END ATOM
M  V30 BEGIN BOND
M  V30 1 1 1 2
M  V30 2 1 2 3
M  V30 3 1 3 4
M  V30 4 1 4 5
M  V30 5 1 5 6
M  V30 6 1 6 7
M  V30 7 1 7 8
M  V30 8 2 8 9
M  V30 9 1 9 10
M  V30 10 2 10 11
M  V30 11 1 11 12
M  V30 12 2 12 13
M  V30 13 1 13 14
M  V30 14 2 14 15
M  V30 15 1 9 16
M  V30 16 2 16 17
M  V30 17 1 17 18
M  V30 18 2 18 19
M  V30 19 1 18 20
M  V30 20 1 20 21
M  V30 21 2 21 22
M  V30 22 1 17 23
M  V30 23 2 23 24
M  V30 24 1 24 25
M  V30 25 1 25 26
M  V30 26 2 26 27
M  V30 27 1 27 28
M  V30 28 2 28 29
M  V30 29 1 29 30
M  V30 30 2 30 31
M  V30 31 1 25 32
M  V30 32 1 32 33
M  V30 33 1 33 34
M  V30 34 1 34 4
M  V30 35 1 15 7
M  V30 36 1 21 16
M  V30 37 1 31 23
M  V30 38 1 15 10
M  V30 39 1 31 26
M  V30 40 1 1 35
M  V30 41 1 1 36
M  V30 42 1 1 37
M  V30 43 1 2 38
M  V30 44 1 3 39
M  V30 45 1 3 40
M  V30 46 1 4 41 CFG=1
M  V30 47 1 5 42
M  V30 48 1 5 43
M  V30 49 1 6 44
M  V30 50 1 6 45
M  V30 51 1 8 46
M  V30 52 1 11 47
M  V30 53 1 12 48
M  V30 54 1 13 49
M  V30 55 1 14 50
M  V30 56 1 20 51
M  V30 57 1 24 52
M  V30 58 1 27 53
M  V30 59 1 28 54
M  V30 60 1 29 55
M  V30 61 1 30 56
M  V30 62 1 32 57
M  V30 63 1 32 58
M  V30 64 1 33 59
M  V30 65 1 33 60
M  V30 END BOND
M  V30 END CTAB
M  END
>  <Dataset>  (443) 
ChEMBL_Kinases

>  <Ligand_Instance>  (443) 
nan

>  <PDB_ID>  (443) 
nan

>  <Standardized_SMILES>  (443) 
CNC[C@@H]1CCn2cc(c3ccccc32)C2=C(C(=O)NC2=O)c2cn(c3ccccc23)CCO1

>  <Name>  (443) 
nan

>  <Pocket>  (443) 
nan

>  <ATP_Site>  (443) 
nan

>  <Peripheral>  (443) 
nan

>  <Num_H_Atoms_ProtBoundConf>  (443) 
nan

>  <Num_Resolved_Atoms>  (443) 
nan

>  <Num_Not_Resolved_Atoms>  (443) 
nan

$$$$
CHEMBL3974629
     RDKit          3D

  0  0  0  0  0  0  0  0  0  0999 V3000
M  V30 BEGIN CTAB
M  V30 COUNTS 71 75 0 0 0
M  V30 BEGIN ATOM
M  V30 1 C 3.184309 -1.737334 5.076734 0
M  V30 2 C 3.308682 -0.903200 3.820318 0
M  V30 3 O 2.004202 -0.717492 3.306088 0
M  V30 4 C 1.745866 0.003900 2.153905 0
M  V30 5 C 2.766466 0.579791 1.450325 0
M  V30 6 C 2.577073 1.299067 0.313467 0
M  V30 7 N 3.599768 1.914276 -0.449473 0
M  V30 8 C 3.438479 2.686546 -1.668116 0
M  V30 9 C 4.139764 2.014702 -2.832279 0
M  V30 10 C 5.006443 0.861635 -2.393849 0
M  V30 11 O 5.887358 0.567206 -3.448205 0
M  V30 12 C 5.848562 1.221089 -1.200441 0
M  V30 13 C 5.004076 1.845578 -0.090392 0
M  V30 14 C 1.270649 1.424830 -0.109874 0
M  V30 15 C 0.219836 0.855021 0.578862 0
M  V30 16 C 0.417054 0.126036 1.732098 0
M  V30 17 N -0.650185 -0.469996 2.459702 0
M  V30 18 C -1.967065 -0.292945 1.948884 0
M  V30 19 N -2.791955 0.727199 2.254334 0
M  V30 20 C -4.028457 0.841716 1.736891 0
M  V30 21 C -4.518425 -0.078390 0.866313 0
M  V30 22 C -3.682780 -1.140913 0.536528 0
M  V30 23 N -2.483759 -1.179964 1.088004 0
M  V30 24 N -3.839612 -2.265408 -0.314533 0
M  V30 25 C -3.061237 -3.409142 -0.229516 0
M  V30 26 C -2.337889 -3.667958 -1.561849 0
M  V30 27 C -1.128114 -4.533045 -1.194204 0
M  V30 28 C -1.459918 -4.967240 0.238122 0
M  V30 29 C -1.974919 -3.587025 0.732855 0
M  V30 30 C -4.856558 -2.321835 -1.371995 0
M  V30 31 C -6.244690 -2.091231 -0.871732 0
M  V30 32 C -6.550876 -0.644999 -0.598310 0
M  V30 33 O -7.462687 0.016740 -1.197422 0
M  V30 34 N -5.837422 0.121552 0.368434 0
M  V30 35 C -6.487503 1.257229 0.950989 0
M  V30 36 H 3.179546 -1.026255 5.942296 0
M  V30 37 H 2.228477 -2.305873 5.057134 0
M  V30 38 H 4.064215 -2.401285 5.216918 0
M  V30 39 H 3.948533 -1.468777 3.110526 0
M  V30 40 H 3.724106 0.092626 4.008734 0
M  V30 41 H 3.743232 0.440899 1.834985 0
M  V30 42 H 3.950572 3.677011 -1.473341 0
M  V30 43 H 2.414567 2.886197 -1.964307 0
M  V30 44 H 3.402240 1.610133 -3.572893 0
M  V30 45 H 4.734622 2.763512 -3.385021 0
M  V30 46 H 4.398583 -0.062358 -2.218548 0
M  V30 47 H 5.554877 -0.224333 -3.977528 0
M  V30 48 H 6.336445 0.322567 -0.819611 0
M  V30 49 H 6.636234 1.909880 -1.559765 0
M  V30 50 H 5.353454 2.918503 -0.008453 0
M  V30 51 H 5.228150 1.398893 0.868747 0
M  V30 52 H 0.928796 1.956796 -0.985516 0
M  V30 53 H -0.821237 0.929064 0.280949 0
M  V30 54 H -0.404298 -1.000804 3.323596 0
M  V30 55 H -4.665733 1.661586 1.993413 0
M  V30 56 H -3.741831 -4.303432 -0.126035 0
M  V30 57 H -2.956219 -4.301714 -2.237728 0
M  V30 58 H -2.044565 -2.724221 -2.036208 0
M  V30 59 H -0.969520 -5.364131 -1.877481 0
M  V30 60 H -0.236973 -3.851169 -1.111954 0
M  V30 61 H -2.284749 -5.683329 0.190857 0
M  V30 62 H -0.589029 -5.290539 0.806438 0
M  V30 63 H -2.244968 -3.770216 1.787428 0
M  V30 64 H -1.061878 -2.970835 0.599842 0
M  V30 65 H -4.853864 -3.301712 -1.878021 0
M  V30 66 H -4.654019 -1.569895 -2.163024 0
M  V30 67 H -6.516457 -2.726351 -0.006094 0
M  V30 68 H -6.923756 -2.383833 -1.702816 0
M  V30 69 H -6.084376 2.240199 0.647155 0
M  V30 70 H -7.548985 1.275245 0.562242 0
M  V30 71 H -6.641452 1.162522 2.062023 0
M  V30 END ATOM
M  V30 BEGIN BOND
M  V30 1 1 1 2
M  V30 2 1 2 3
M  V30 3 1 3 4
M  V30 4 2 4 5
M  V30 5 1 5 6
M  V30 6 1 6 7
M  V30 7 1 7 8
M  V30 8 1 8 9
M  V30 9 1 9 10
M  V30 10 1 10 11
M  V30 11 1 10 12
M  V30 12 1 12 13
M  V30 13 2 6 14
M  V30 14 1 14 15
M  V30 15 2 15 16
M  V30 16 1 16 17
M  V30 17 1 17 18
M  V30 18 2 18 19
M  V30 19 1 19 20
M  V30 20 2 20 21
M  V30 21 1 21 22
M  V30 22 2 22 23
M  V30 23 1 22 24
M  V30 24 1 24 25
M  V30 25 1 25 26
M  V30 26 1 26 27
M  V30 27 1 27 28
M  V30 28 1 28 29
M  V30 29 1 24 30
M  V30 30 1 30 31
M  V30 31 1 31 32
M  V30 32 2 32 33
M  V30 33 1 32 34
M  V30 34 1 34 35
M  V30 35 1 16 4
M  V30 36 1 23 18
M  V30 37 1 29 25
M  V30 38 1 13 7
M  V30 39 1 34 21
M  V30 40 1 1 36
M  V30 41 1 1 37
M  V30 42 1 1 38
M  V30 43 1 2 39
M  V30 44 1 2 40
M  V30 45 1 5 41
M  V30 46 1 8 42
M  V30 47 1 8 43
M  V30 48 1 9 44
M  V30 49 1 9 45
M  V30 50 1 10 46
M  V30 51 1 11 47
M  V30 52 1 12 48
M  V30 53 1 12 49
M  V30 54 1 13 50
M  V30 55 1 13 51
M  V30 56 1 14 52
M  V30 57 1 15 53
M  V30 58 1 17 54
M  V30 59 1 20 55
M  V30 60 1 25 56
M  V30 61 1 26 57
M  V30 62 1 26 58
M  V30 63 1 27 59
M  V30 64 1 27 60
M  V30 65 1 28 61
M  V30 66 1 28 62
M  V30 67 1 29 63
M  V30 68 1 29 64
M  V30 69 1 30 65
M  V30 70 1 30 66
M  V30 71 1 31 67
M  V30 72 1 31 68
M  V30 73 1 35 69
M  V30 74 1 35 70
M  V30 75 1 35 71
M  V30 END BOND
M  V30 END CTAB
M  END
>  <Dataset>  (444) 
ChEMBL_Kinases

>  <Ligand_Instance>  (444) 
nan

>  <PDB_ID>  (444) 
nan

>  <Standardized_SMILES>  (444) 
CCOc1cc(N2CCC(O)CC2)ccc1Nc1ncc2c(n1)N(C1CCCC1)CCC(=O)N2C

>  <Name>  (444) 
nan

>  <Pocket>  (444) 
nan

>  <ATP_Site>  (444) 
nan

>  <Peripheral>  (444) 
nan

>  <Num_H_Atoms_ProtBoundConf>  (444) 
nan

>  <Num_Resolved_Atoms>  (444) 
nan

>  <Num_Not_Resolved_Atoms>  (444) 
nan

$$$$
CHEMBL5089410
     RDKit          3D

  0  0  0  0  0  0  0  0  0  0999 V3000
M  V30 BEGIN CTAB
M  V30 COUNTS 50 51 0 0 0
M  V30 BEGIN ATOM
M  V30 1 C 3.198634 -3.432645 4.039617 0
M  V30 2 C 2.791149 -3.561572 2.607939 0
M  V30 3 C 1.291202 -3.461748 2.476437 0
M  V30 4 C 3.544545 -2.765578 1.636020 0
M  V30 5 C 3.591110 -1.301216 1.731074 0 CFG=2
M  V30 6 C 4.473034 -0.828056 0.553808 0
M  V30 7 N 4.252271 -0.798587 2.921852 0
M  V30 8 C 2.319077 -0.548221 1.591414 0
M  V30 9 O 1.530962 -0.920451 0.455875 0
M  V30 10 C 0.324945 -0.267767 0.246828 0
M  V30 11 C -0.153646 0.718745 1.073914 0
M  V30 12 C -1.369145 1.307461 0.776844 0
M  V30 13 C -2.154929 0.974664 -0.307567 0
M  V30 14 C -3.432827 1.619159 -0.587846 0
M  V30 15 C -4.008583 2.616912 0.170686 0
M  V30 16 C -5.222833 3.183915 -0.152352 0
M  V30 17 N -5.903272 2.767452 -1.251710 0
M  V30 18 C -5.346398 1.796019 -1.993368 0
M  V30 19 C -6.112378 1.354477 -3.196772 0
M  V30 20 F -6.417799 0.014331 -3.167168 0
M  V30 21 F -5.335536 1.680964 -4.299899 0
M  V30 22 C -4.133916 1.206674 -1.699779 0
M  V30 23 N -1.657181 0.004038 -1.098511 0
M  V30 24 C -0.477450 -0.586789 -0.834497 0
M  V30 25 C -0.033214 -1.638160 -1.772381 0
M  V30 26 F 1.113838 -1.116436 -2.389230 0
M  V30 27 F 0.380248 -2.768900 -1.143281 0
M  V30 28 H 4.299741 -3.354864 4.150466 0
M  V30 29 H 2.645028 -2.637176 4.583689 0
M  V30 30 H 2.905575 -4.371861 4.560149 0
M  V30 31 H 3.007041 -4.653358 2.351137 0
M  V30 32 H 1.060491 -3.448241 1.379125 0
M  V30 33 H 0.824684 -4.432892 2.814549 0
M  V30 34 H 0.830217 -2.651845 3.047814 0
M  V30 35 H 3.122571 -3.012639 0.614713 0
M  V30 36 H 4.610777 -3.131015 1.544391 0
M  V30 37 H 5.338407 -1.524016 0.484526 0
M  V30 38 H 3.837827 -0.941338 -0.343505 0
M  V30 39 H 4.776804 0.209147 0.712726 0
M  V30 40 H 4.693741 0.109253 2.670578 0
M  V30 41 H 3.509923 -0.612261 3.650412 0
M  V30 42 H 2.617435 0.524777 1.382011 0
M  V30 43 H 1.662891 -0.510771 2.459281 0
M  V30 44 H 0.417946 1.016249 1.932000 0
M  V30 45 H -1.686114 2.072051 1.463759 0
M  V30 46 H -3.474023 2.950620 1.042518 0
M  V30 47 H -5.651017 3.974137 0.472063 0
M  V30 48 H -7.047469 1.932608 -3.268523 0
M  V30 49 H -3.717396 0.420985 -2.328419 0
M  V30 50 H -0.735467 -1.817677 -2.594143 0
M  V30 END ATOM
M  V30 BEGIN BOND
M  V30 1 1 1 2
M  V30 2 1 2 3
M  V30 3 1 2 4
M  V30 4 1 4 5
M  V30 5 1 5 6
M  V30 6 1 5 7 CFG=1
M  V30 7 1 5 8
M  V30 8 1 8 9
M  V30 9 1 9 10
M  V30 10 2 10 11
M  V30 11 1 11 12
M  V30 12 2 12 13
M  V30 13 1 13 14
M  V30 14 2 14 15
M  V30 15 1 15 16
M  V30 16 2 16 17
M  V30 17 1 17 18
M  V30 18 1 18 19
M  V30 19 1 19 20
M  V30 20 1 19 21
M  V30 21 2 18 22
M  V30 22 1 13 23
M  V30 23 2 23 24
M  V30 24 1 24 25
M  V30 25 1 25 26
M  V30 26 1 25 27
M  V30 27 1 24 10
M  V30 28 1 22 14
M  V30 29 1 1 28
M  V30 30 1 1 29
M  V30 31 1 1 30
M  V30 32 1 2 31
M  V30 33 1 3 32
M  V30 34 1 3 33
M  V30 35 1 3 34
M  V30 36 1 4 35
M  V30 37 1 4 36
M  V30 38 1 6 37
M  V30 39 1 6 38
M  V30 40 1 6 39
M  V30 41 1 7 40
M  V30 42 1 7 41
M  V30 43 1 8 42
M  V30 44 1 8 43
M  V30 45 1 11 44
M  V30 46 1 12 45
M  V30 47 1 15 46
M  V30 48 1 16 47
M  V30 49 1 19 48
M  V30 50 1 22 49
M  V30 51 1 25 50
M  V30 END BOND
M  V30 END CTAB
M  END
>  <Dataset>  (445) 
ChEMBL_Kinases

>  <Ligand_Instance>  (445) 
nan

>  <PDB_ID>  (445) 
nan

>  <Standardized_SMILES>  (445) 
CC(C)C[C@](C)(N)COc1ccc(-c2ccnc(C(F)F)c2)nc1C(F)F

>  <Name>  (445) 
nan

>  <Pocket>  (445) 
nan

>  <ATP_Site>  (445) 
nan

>  <Peripheral>  (445) 
nan

>  <Num_H_Atoms_ProtBoundConf>  (445) 
nan

>  <Num_Resolved_Atoms>  (445) 
nan

>  <Num_Not_Resolved_Atoms>  (445) 
nan

$$$$
CHEMBL424696
     RDKit          3D

  0  0  0  0  0  0  0  0  0  0999 V3000
M  V30 BEGIN CTAB
M  V30 COUNTS 44 47 0 0 0
M  V30 BEGIN ATOM
M  V30 1 C -0.123826 -5.454672 1.158817 0
M  V30 2 C 0.850488 -4.653944 1.708852 0
M  V30 3 C 1.752438 -4.095604 0.799197 0
M  V30 4 C 1.636957 -4.355835 -0.528468 0
M  V30 5 N 2.608373 -3.705844 -1.334650 0
M  V30 6 C 2.163116 -2.403191 -1.835549 0
M  V30 7 N 2.066340 -1.787873 -2.775775 0
M  V30 8 C 1.656015 -0.600319 -3.093140 0
M  V30 9 C 1.225393 0.079885 -1.969096 0
M  V30 10 C 0.659824 1.477826 -1.742187 0
M  V30 11 C 0.613707 2.372390 -2.762234 0
M  V30 12 C 0.122589 3.605638 -2.393797 0
M  V30 13 N -0.280980 3.911452 -1.137804 0
M  V30 14 C -0.218158 2.977685 -0.143461 0
M  V30 15 O -0.602773 3.190498 1.170304 0
M  V30 16 C -0.613215 2.098550 2.034853 0
M  V30 17 C 0.734780 1.883261 2.761073 0
M  V30 18 C 0.686409 0.419456 3.196724 0
M  V30 19 C -0.463548 0.140831 4.099988 0
M  V30 20 C -1.769918 0.751692 3.700629 0
M  V30 21 C -1.633304 2.136843 3.120333 0
M  V30 22 N 0.266485 1.781973 -0.529829 0
M  V30 23 S 1.474057 -1.082120 -0.660492 0
M  V30 24 N 0.648405 -5.163301 -1.031173 0
M  V30 25 C -0.260844 -5.734977 -0.196632 0
M  V30 26 H -0.861050 -5.904386 1.834093 0
M  V30 27 H 0.868501 -4.495000 2.792807 0
M  V30 28 H 2.526576 -3.459467 1.249531 0
M  V30 29 H 3.557314 -3.824045 -1.705040 0
M  V30 30 H 1.586888 -0.065479 -4.055175 0
M  V30 31 H 0.941670 2.107507 -3.757600 0
M  V30 32 H 0.051915 4.382126 -3.152150 0
M  V30 33 H -0.722455 1.125821 1.463975 0
M  V30 34 H 0.835904 2.547124 3.640945 0
M  V30 35 H 1.585968 1.971539 2.096272 0
M  V30 36 H 0.682626 -0.154646 2.232840 0
M  V30 37 H 1.625609 0.158892 3.722977 0
M  V30 38 H -0.641606 -0.977331 4.086580 0
M  V30 39 H -0.176382 0.331090 5.159340 0
M  V30 40 H -2.394455 0.794809 4.621080 0
M  V30 41 H -2.297526 0.109525 2.979527 0
M  V30 42 H -2.623951 2.409050 2.692494 0
M  V30 43 H -1.289709 2.870697 3.899932 0
M  V30 44 H -1.056762 -6.388947 -0.541323 0
M  V30 END ATOM
M  V30 BEGIN BOND
M  V30 1 2 1 2
M  V30 2 1 2 3
M  V30 3 2 3 4
M  V30 4 1 4 5
M  V30 5 1 5 6
M  V30 6 2 6 7
M  V30 7 1 7 8
M  V30 8 2 8 9
M  V30 9 1 9 10
M  V30 10 2 10 11
M  V30 11 1 11 12
M  V30 12 2 12 13
M  V30 13 1 13 14
M  V30 14 1 14 15
M  V30 15 1 15 16
M  V30 16 1 16 17
M  V30 17 1 17 18
M  V30 18 1 18 19
M  V30 19 1 19 20
M  V30 20 1 20 21
M  V30 21 2 14 22
M  V30 22 1 9 23
M  V30 23 1 4 24
M  V30 24 2 24 25
M  V30 25 1 25 1
M  V30 26 1 23 6
M  V30 27 1 22 10
M  V30 28 1 21 16
M  V30 29 1 1 26
M  V30 30 1 2 27
M  V30 31 1 3 28
M  V30 32 1 5 29
M  V30 33 1 8 30
M  V30 34 1 11 31
M  V30 35 1 12 32
M  V30 36 1 16 33
M  V30 37 1 17 34
M  V30 38 1 17 35
M  V30 39 1 18 36
M  V30 40 1 18 37
M  V30 41 1 19 38
M  V30 42 1 19 39
M  V30 43 1 20 40
M  V30 44 1 20 41
M  V30 45 1 21 42
M  V30 46 1 21 43
M  V30 47 1 25 44
M  V30 END BOND
M  V30 END CTAB
M  END
>  <Dataset>  (446) 
ChEMBL_Kinases

>  <Ligand_Instance>  (446) 
nan

>  <PDB_ID>  (446) 
nan

>  <Standardized_SMILES>  (446) 
c1ccc(Nc2ncc(-c3ccnc(OC4CCCCC4)n3)s2)nc1

>  <Name>  (446) 
nan

>  <Pocket>  (446) 
nan

>  <ATP_Site>  (446) 
nan

>  <Peripheral>  (446) 
nan

>  <Num_H_Atoms_ProtBoundConf>  (446) 
nan

>  <Num_Resolved_Atoms>  (446) 
nan

>  <Num_Not_Resolved_Atoms>  (446) 
nan

$$$$
CHEMBL4066819
     RDKit          3D

  0  0  0  0  0  0  0  0  0  0999 V3000
M  V30 BEGIN CTAB
M  V30 COUNTS 47 50 0 0 0
M  V30 BEGIN ATOM
M  V30 1 C 5.472461 -5.441197 3.426845 0
M  V30 2 O 5.185164 -4.116179 3.727714 0
M  V30 3 C 6.018055 -3.204702 3.127189 0
M  V30 4 C 5.575216 -1.805943 3.554167 0
M  V30 5 N 4.194940 -1.674236 3.092741 0
M  V30 6 C 3.567210 -0.429418 3.385196 0
M  V30 7 O 4.214212 0.447891 3.999567 0
M  V30 8 C 2.177560 -0.251129 2.940007 0
M  V30 9 C 1.538741 0.942348 3.206545 0
M  V30 10 C 0.234553 1.156591 2.808624 0
M  V30 11 C -0.413222 0.140678 2.135210 0
M  V30 12 O -1.727885 0.120949 1.634182 0
M  V30 13 C -2.009015 0.543584 0.360937 0
M  V30 14 S -0.759116 1.177725 -0.843916 0
M  V30 15 C -1.899812 1.472059 -2.128605 0
M  V30 16 C -1.435322 2.006795 -3.394022 0
M  V30 17 N -0.079654 2.312658 -3.659198 0
M  V30 18 O -2.069537 2.298193 -4.456962 0
M  V30 19 C -3.116299 1.109500 -1.650880 0
M  V30 20 C -3.173922 0.631529 -0.370974 0
M  V30 21 C -4.492965 0.204131 0.197497 0
M  V30 22 S -5.005190 -0.403831 1.667891 0
M  V30 23 N -6.809764 -0.560756 1.292616 0
M  V30 24 C -6.711520 -0.061531 -0.061161 0
M  V30 25 C -5.547023 0.329993 -0.632022 0
M  V30 26 C -5.592958 0.808260 -2.022265 0
M  V30 27 C -4.291307 1.265999 -2.535572 0
M  V30 28 C 0.230897 -1.057765 1.868553 0
M  V30 29 N 1.508602 -1.231257 2.273824 0
M  V30 30 H 6.496748 -5.722682 3.740045 0
M  V30 31 H 5.383551 -5.610007 2.326182 0
M  V30 32 H 4.753756 -6.074523 3.966155 0
M  V30 33 H 5.906030 -3.275643 2.033881 0
M  V30 34 H 7.050679 -3.418857 3.476713 0
M  V30 35 H 6.251523 -1.083188 3.063816 0
M  V30 36 H 5.635726 -1.754107 4.659309 0
M  V30 37 H 3.657310 -2.414771 2.577336 0
M  V30 38 H 1.995582 1.765378 3.726643 0
M  V30 39 H -0.378034 2.035306 2.951560 0
M  V30 40 H 0.955219 2.313559 -3.698916 0
M  V30 41 H 0.851782 1.897353 -3.403865 0
M  V30 42 H -7.784659 -0.145061 -0.311598 0
M  V30 43 H -6.318805 1.648535 -2.161543 0
M  V30 44 H -5.995188 0.002356 -2.692087 0
M  V30 45 H -4.119213 0.725427 -3.524419 0
M  V30 46 H -4.358996 2.348516 -2.904944 0
M  V30 47 H -0.176024 -1.912801 1.353599 0
M  V30 END ATOM
M  V30 BEGIN BOND
M  V30 1 1 1 2
M  V30 2 1 2 3
M  V30 3 1 3 4
M  V30 4 1 4 5
M  V30 5 1 5 6
M  V30 6 2 6 7
M  V30 7 1 6 8
M  V30 8 2 8 9
M  V30 9 1 9 10
M  V30 10 2 10 11
M  V30 11 1 11 12
M  V30 12 1 12 13
M  V30 13 1 13 14
M  V30 14 1 14 15
M  V30 15 1 15 16
M  V30 16 1 16 17
M  V30 17 2 16 18
M  V30 18 2 15 19
M  V30 19 1 19 20
M  V30 20 1 20 21
M  V30 21 1 21 22
M  V30 22 1 22 23
M  V30 23 2 23 24
M  V30 24 1 24 25
M  V30 25 1 25 26
M  V30 26 1 26 27
M  V30 27 1 11 28
M  V30 28 2 28 29
M  V30 29 1 29 8
M  V30 30 2 20 13
M  V30 31 2 25 21
M  V30 32 1 27 19
M  V30 33 1 1 30
M  V30 34 1 1 31
M  V30 35 1 1 32
M  V30 36 1 3 33
M  V30 37 1 3 34
M  V30 38 1 4 35
M  V30 39 1 4 36
M  V30 40 1 5 37
M  V30 41 1 9 38
M  V30 42 1 10 39
M  V30 43 1 17 40
M  V30 44 1 17 41
M  V30 45 1 24 42
M  V30 46 1 26 43
M  V30 47 1 26 44
M  V30 48 1 27 45
M  V30 49 1 27 46
M  V30 50 1 28 47
M  V30 END BOND
M  V30 END CTAB
M  END
>  <Dataset>  (447) 
ChEMBL_Kinases

>  <Ligand_Instance>  (447) 
nan

>  <PDB_ID>  (447) 
nan

>  <Standardized_SMILES>  (447) 
COCCNC(=O)c1ccc(Oc2sc(C(N)=O)c3c2-c2sncc2CC3)cn1

>  <Name>  (447) 
nan

>  <Pocket>  (447) 
nan

>  <ATP_Site>  (447) 
nan

>  <Peripheral>  (447) 
nan

>  <Num_H_Atoms_ProtBoundConf>  (447) 
nan

>  <Num_Resolved_Atoms>  (447) 
nan

>  <Num_Not_Resolved_Atoms>  (447) 
nan

$$$$
CHEMBL3356474
     RDKit          3D

  0  0  0  0  0  0  0  0  0  0999 V3000
M  V30 BEGIN CTAB
M  V30 COUNTS 41 44 0 0 0
M  V30 BEGIN ATOM
M  V30 1 C 0.608285 -3.365013 1.727538 0
M  V30 2 C -0.715725 -2.842322 1.164406 0 CFG=2
M  V30 3 C -1.577964 -4.042637 1.020860 0
M  V30 4 O -2.088022 -4.507722 2.092885 0
M  V30 5 N -1.896342 -4.729898 -0.184161 0
M  V30 6 N -1.439825 -4.128987 -1.362327 0
M  V30 7 C -0.774197 -3.021977 -1.334424 0
M  V30 8 C -0.405686 -2.594927 -2.723210 0
M  V30 9 O 0.091612 -1.278372 -2.733352 0
M  V30 10 C 0.418958 -0.575976 -1.584523 0
M  V30 11 C 1.020043 0.656130 -1.728043 0
M  V30 12 C 1.379370 1.422750 -0.639334 0
M  V30 13 C 2.023220 2.742609 -0.829920 0
M  V30 14 F 3.273989 2.786905 -0.246104 0
M  V30 15 F 1.172952 3.690807 -0.265923 0
M  V30 16 F 2.203279 3.039940 -2.164317 0
M  V30 17 C 1.146054 0.975667 0.643557 0
M  V30 18 N 1.505870 1.744094 1.783813 0
M  V30 19 C 1.293503 1.351039 3.176856 0
M  V30 20 C -0.165356 1.136776 3.484038 0
M  V30 21 N -0.139450 2.146705 4.514642 0
M  V30 22 C 1.215333 2.465458 4.147036 0
M  V30 23 C 0.543345 -0.261055 0.748364 0
M  V30 24 C 0.164383 -1.067089 -0.307149 0
M  V30 25 N -0.449760 -2.325178 -0.135846 0
M  V30 26 H 0.612793 -3.367840 2.843755 0
M  V30 27 H 1.466160 -2.755477 1.380978 0
M  V30 28 H 0.766364 -4.423876 1.417119 0
M  V30 29 H -1.088881 -2.124176 1.900584 0
M  V30 30 H -2.442901 -5.630480 -0.143526 0
M  V30 31 H 0.355731 -3.294786 -3.152908 0
M  V30 32 H -1.270661 -2.628689 -3.419529 0
M  V30 33 H 1.222185 1.045797 -2.719903 0
M  V30 34 H 1.960866 2.668810 1.630781 0
M  V30 35 H 1.912593 0.475797 3.452311 0
M  V30 36 H -0.853033 1.370037 2.620968 0
M  V30 37 H -0.359791 0.099630 3.882184 0
M  V30 38 H -0.795192 2.929882 4.257072 0
M  V30 39 H 1.962724 2.349433 4.975843 0
M  V30 40 H 1.364202 3.443498 3.642772 0
M  V30 41 H 0.331808 -0.671339 1.721218 0
M  V30 END ATOM
M  V30 BEGIN BOND
M  V30 1 1 1 2
M  V30 2 1 2 3
M  V30 3 2 3 4
M  V30 4 1 3 5
M  V30 5 1 5 6
M  V30 6 2 6 7
M  V30 7 1 7 8
M  V30 8 1 8 9
M  V30 9 1 9 10
M  V30 10 2 10 11
M  V30 11 1 11 12
M  V30 12 1 12 13
M  V30 13 1 13 14
M  V30 14 1 13 15
M  V30 15 1 13 16
M  V30 16 2 12 17
M  V30 17 1 17 18
M  V30 18 1 18 19
M  V30 19 1 19 20
M  V30 20 1 20 21
M  V30 21 1 21 22
M  V30 22 1 17 23
M  V30 23 2 23 24
M  V30 24 1 24 25
M  V30 25 1 25 2
M  V30 26 1 25 7
M  V30 27 1 24 10
M  V30 28 1 22 19
M  V30 29 1 1 26
M  V30 30 1 1 27
M  V30 31 1 1 28
M  V30 32 1 2 29 CFG=1
M  V30 33 1 5 30
M  V30 34 1 8 31
M  V30 35 1 8 32
M  V30 36 1 11 33
M  V30 37 1 18 34
M  V30 38 1 19 35
M  V30 39 1 20 36
M  V30 40 1 20 37
M  V30 41 1 21 38
M  V30 42 1 22 39
M  V30 43 1 22 40
M  V30 44 1 23 41
M  V30 END BOND
M  V30 END CTAB
M  END
>  <Dataset>  (448) 
ChEMBL_Kinases

>  <Ligand_Instance>  (448) 
nan

>  <PDB_ID>  (448) 
nan

>  <Standardized_SMILES>  (448) 
C[C@@H]1C(=O)NN=C2COc3cc(C(F)(F)F)c(NC4CNC4)cc3N21

>  <Name>  (448) 
nan

>  <Pocket>  (448) 
nan

>  <ATP_Site>  (448) 
nan

>  <Peripheral>  (448) 
nan

>  <Num_H_Atoms_ProtBoundConf>  (448) 
nan

>  <Num_Resolved_Atoms>  (448) 
nan

>  <Num_Not_Resolved_Atoms>  (448) 
nan

$$$$
CHEMBL2147542
     RDKit          3D

  0  0  0  0  0  0  0  0  0  0999 V3000
M  V30 BEGIN CTAB
M  V30 COUNTS 42 45 0 0 0
M  V30 BEGIN ATOM
M  V30 1 C -0.007667 -5.951577 2.958223 0
M  V30 2 C 0.492909 -5.029542 2.052548 0
M  V30 3 C 0.021437 -3.739163 1.994677 0
M  V30 4 C 0.496428 -2.714581 1.072161 0
M  V30 5 C 1.492820 -3.000856 0.164658 0
M  V30 6 C 1.936353 -2.026640 -0.704289 0
M  V30 7 C 2.918703 -2.159426 -1.664050 0
M  V30 8 N 3.268621 -1.135433 -2.459326 0
M  V30 9 C 2.694440 0.093025 -2.385467 0
M  V30 10 C 1.707305 0.274312 -1.441216 0
M  V30 11 C 1.356006 -0.781040 -0.631016 0
M  V30 12 C 0.360206 -0.475134 0.267814 0
M  V30 13 N -0.356192 0.728580 0.504537 0
M  V30 14 C -1.187946 1.526452 -0.392576 0
M  V30 15 C -1.120441 2.977757 -0.079546 0
M  V30 16 C 0.218479 3.563358 0.146845 0
M  V30 17 N 1.180067 2.841771 0.841944 0
M  V30 18 C 0.897653 2.152248 2.013136 0
M  V30 19 C -0.179911 1.125380 1.890236 0
M  V30 20 N -0.038929 -1.479129 1.103365 0
M  V30 21 C -0.979038 -3.436375 2.899479 0
M  V30 22 C -1.482896 -4.347866 3.804094 0
M  V30 23 N -0.980409 -5.610075 3.818070 0
M  V30 24 H 0.425320 -6.959600 2.936676 0
M  V30 25 H 1.265662 -5.333104 1.383086 0
M  V30 26 H 1.972724 -3.962199 0.075135 0
M  V30 27 H 3.387660 -3.143498 -1.732560 0
M  V30 28 H 3.052573 0.865222 -3.082758 0
M  V30 29 H 1.258140 1.252031 -1.393101 0
M  V30 30 H -1.099118 1.243225 -1.443564 0
M  V30 31 H -2.245043 1.209300 -0.114297 0
M  V30 32 H -1.580061 3.508586 -0.965541 0
M  V30 33 H -1.831573 3.248548 0.756836 0
M  V30 34 H 0.060602 4.541478 0.691136 0
M  V30 35 H 0.641580 3.853460 -0.853505 0
M  V30 36 H 2.143152 2.816892 0.472882 0
M  V30 37 H 1.829789 1.590216 2.318469 0
M  V30 38 H 0.720661 2.837744 2.878249 0
M  V30 39 H -1.140675 1.557216 2.300877 0
M  V30 40 H 0.005992 0.237654 2.557260 0
M  V30 41 H -1.442845 -2.454598 2.963906 0
M  V30 42 H -2.267645 -4.097167 4.508228 0
M  V30 END ATOM
M  V30 BEGIN BOND
M  V30 1 2 1 2
M  V30 2 1 2 3
M  V30 3 1 3 4
M  V30 4 2 4 5
M  V30 5 1 5 6
M  V30 6 2 6 7
M  V30 7 1 7 8
M  V30 8 2 8 9
M  V30 9 1 9 10
M  V30 10 2 10 11
M  V30 11 1 11 12
M  V30 12 1 12 13
M  V30 13 1 13 14
M  V30 14 1 14 15
M  V30 15 1 15 16
M  V30 16 1 16 17
M  V30 17 1 17 18
M  V30 18 1 18 19
M  V30 19 2 12 20
M  V30 20 2 3 21
M  V30 21 1 21 22
M  V30 22 2 22 23
M  V30 23 1 23 1
M  V30 24 1 20 4
M  V30 25 1 11 6
M  V30 26 1 19 13
M  V30 27 1 1 24
M  V30 28 1 2 25
M  V30 29 1 5 26
M  V30 30 1 7 27
M  V30 31 1 9 28
M  V30 32 1 10 29
M  V30 33 1 14 30
M  V30 34 1 14 31
M  V30 35 1 15 32
M  V30 36 1 15 33
M  V30 37 1 16 34
M  V30 38 1 16 35
M  V30 39 1 17 36
M  V30 40 1 18 37
M  V30 41 1 18 38
M  V30 42 1 19 39
M  V30 43 1 19 40
M  V30 44 1 21 41
M  V30 45 1 22 42
M  V30 END BOND
M  V30 END CTAB
M  END
>  <Dataset>  (449) 
ChEMBL_Kinases

>  <Ligand_Instance>  (449) 
nan

>  <PDB_ID>  (449) 
nan

>  <Standardized_SMILES>  (449) 
c1cc(-c2cc3cnccc3c(N3CCCNCC3)n2)ccn1

>  <Name>  (449) 
nan

>  <Pocket>  (449) 
nan

>  <ATP_Site>  (449) 
nan

>  <Peripheral>  (449) 
nan

>  <Num_H_Atoms_ProtBoundConf>  (449) 
nan

>  <Num_Resolved_Atoms>  (449) 
nan

>  <Num_Not_Resolved_Atoms>  (449) 
nan

$$$$
CHEMBL3356472
     RDKit          3D

  0  0  0  0  0  0  0  0  0  0999 V3000
M  V30 BEGIN CTAB
M  V30 COUNTS 48 52 0 0 0
M  V30 BEGIN ATOM
M  V30 1 C 1.945559 -4.223106 1.292747 0
M  V30 2 C 1.658465 -3.942261 -0.176405 0 CFG=2
M  V30 3 C 2.365749 -4.969822 -0.983633 0
M  V30 4 O 1.895009 -6.150451 -0.918519 0
M  V30 5 N 3.502622 -4.709471 -1.796982 0
M  V30 6 N 3.910590 -3.387120 -1.961554 0
M  V30 7 C 3.260590 -2.435840 -1.382605 0
M  V30 8 C 3.832525 -1.108151 -1.667730 0
M  V30 9 O 2.981541 -0.053781 -1.278251 0
M  V30 10 C 1.866792 -0.182277 -0.474828 0
M  V30 11 C 1.163103 0.908841 -0.014255 0
M  V30 12 C 0.037449 0.726905 0.798567 0
M  V30 13 C -0.509017 2.011216 1.204791 0
M  V30 14 C -0.761260 2.536752 2.454816 0
M  V30 15 C -1.302784 3.791041 2.612234 0
M  V30 16 C -1.626173 4.597563 1.568329 0
M  V30 17 C -1.398073 4.130238 0.295571 0
M  V30 18 C -0.855082 2.871530 0.151538 0
M  V30 19 C -0.382217 -0.534141 1.146743 0
M  V30 20 N -1.547158 -0.691624 1.925179 0
M  V30 21 C -2.602855 0.016512 2.528874 0
M  V30 22 C -3.547341 0.811118 1.670530 0
M  V30 23 N -4.412272 -0.361698 1.520070 0
M  V30 24 C -3.873225 -0.828176 2.758043 0
M  V30 25 C 0.340379 -1.604475 0.673255 0
M  V30 26 C 1.444102 -1.443671 -0.121851 0
M  V30 27 N 2.117603 -2.619499 -0.557097 0
M  V30 28 H 2.795587 -4.912455 1.445589 0
M  V30 29 H 2.180586 -3.307125 1.867937 0
M  V30 30 H 1.041337 -4.746481 1.709723 0
M  V30 31 H 0.570995 -4.072142 -0.391577 0
M  V30 32 H 3.988021 -5.519947 -2.239719 0
M  V30 33 H 4.802628 -0.956956 -1.120399 0
M  V30 34 H 4.137667 -1.006923 -2.749427 0
M  V30 35 H 1.571797 1.867798 -0.344662 0
M  V30 36 H -0.475102 1.844251 3.249714 0
M  V30 37 H -1.461634 4.108938 3.649048 0
M  V30 38 H -2.046862 5.566680 1.794550 0
M  V30 39 H -1.642597 4.743407 -0.553932 0
M  V30 40 H -0.701325 2.565953 -0.891182 0
M  V30 41 H -1.702548 -1.694847 2.167620 0
M  V30 42 H -2.377341 0.453835 3.546569 0
M  V30 43 H -4.095301 1.532677 2.336357 0
M  V30 44 H -3.195612 1.214219 0.725736 0
M  V30 45 H -4.071914 -0.900605 0.693177 0
M  V30 46 H -3.634119 -1.929686 2.774643 0
M  V30 47 H -4.472881 -0.546464 3.619703 0
M  V30 48 H 0.028020 -2.627491 0.937680 0
M  V30 END ATOM
M  V30 BEGIN BOND
M  V30 1 1 1 2
M  V30 2 1 2 3
M  V30 3 2 3 4
M  V30 4 1 3 5
M  V30 5 1 5 6
M  V30 6 2 6 7
M  V30 7 1 7 8
M  V30 8 1 8 9
M  V30 9 1 9 10
M  V30 10 2 10 11
M  V30 11 1 11 12
M  V30 12 1 12 13
M  V30 13 2 13 14
M  V30 14 1 14 15
M  V30 15 2 15 16
M  V30 16 1 16 17
M  V30 17 2 17 18
M  V30 18 2 12 19
M  V30 19 1 19 20
M  V30 20 1 20 21
M  V30 21 1 21 22
M  V30 22 1 22 23
M  V30 23 1 23 24
M  V30 24 1 19 25
M  V30 25 2 25 26
M  V30 26 1 26 27
M  V30 27 1 27 2
M  V30 28 1 27 7
M  V30 29 1 26 10
M  V30 30 1 18 13
M  V30 31 1 24 21
M  V30 32 1 1 28
M  V30 33 1 1 29
M  V30 34 1 1 30
M  V30 35 1 2 31 CFG=1
M  V30 36 1 5 32
M  V30 37 1 8 33
M  V30 38 1 8 34
M  V30 39 1 11 35
M  V30 40 1 14 36
M  V30 41 1 15 37
M  V30 42 1 16 38
M  V30 43 1 17 39
M  V30 44 1 18 40
M  V30 45 1 20 41
M  V30 46 1 21 42
M  V30 47 1 22 43
M  V30 48 1 22 44
M  V30 49 1 23 45
M  V30 50 1 24 46
M  V30 51 1 24 47
M  V30 52 1 25 48
M  V30 END BOND
M  V30 END CTAB
M  END
>  <Dataset>  (450) 
ChEMBL_Kinases

>  <Ligand_Instance>  (450) 
nan

>  <PDB_ID>  (450) 
nan

>  <Standardized_SMILES>  (450) 
C[C@@H]1C(=O)NN=C2COc3cc(-c4ccccc4)c(NC4CNC4)cc3N21

>  <Name>  (450) 
nan

>  <Pocket>  (450) 
nan

>  <ATP_Site>  (450) 
nan

>  <Peripheral>  (450) 
nan

>  <Num_H_Atoms_ProtBoundConf>  (450) 
nan

>  <Num_Resolved_Atoms>  (450) 
nan

>  <Num_Not_Resolved_Atoms>  (450) 
nan

$$$$
CHEMBL50894
     RDKit          3D

  0  0  0  0  0  0  0  0  0  0999 V3000
M  V30 BEGIN CTAB
M  V30 COUNTS 33 36 0 0 0
M  V30 BEGIN ATOM
M  V30 1 O -1.388134 0.983298 3.778840 0
M  V30 2 C -1.238439 0.030315 2.939268 0
M  V30 3 C 0.167767 -0.351486 2.589511 0
M  V30 4 C 0.373766 -0.414436 1.124811 0
M  V30 5 C -0.458910 -0.947444 0.150483 0
M  V30 6 N 0.074113 -0.815420 -1.076941 0
M  V30 7 C 1.273980 -0.188334 -0.918286 0
M  V30 8 C 2.272498 0.217642 -1.811554 0
M  V30 9 C 3.422044 0.849780 -1.382313 0
M  V30 10 C 3.577767 1.081537 -0.031392 0
M  V30 11 N 4.775325 1.739991 0.414803 0 CHG=1 VAL=4
M  V30 12 O 4.951235 1.966548 1.628874 0
M  V30 13 O 5.744436 2.130034 -0.487324 0 CHG=-1 VAL=1
M  V30 14 C 2.627437 0.703660 0.894043 0
M  V30 15 C 1.487152 0.072846 0.434940 0
M  V30 16 C -1.757897 -1.587298 0.325035 0
M  V30 17 C -1.982591 -2.453984 -0.707193 0
M  V30 18 C -3.179245 -3.138855 -0.684415 0
M  V30 19 C -4.091598 -2.933841 0.354400 0
M  V30 20 C -3.848898 -2.051880 1.393607 0
M  V30 21 C -2.650214 -1.368919 1.366405 0
M  V30 22 N -2.512380 -0.485254 2.498541 0
M  V30 23 H 0.359935 -1.319416 3.098387 0
M  V30 24 H 0.822011 0.404150 3.032888 0
M  V30 25 H -0.236637 -1.079046 -2.034612 0
M  V30 26 H 2.160719 0.042283 -2.860970 0
M  V30 27 H 4.182463 1.153042 -2.114819 0
M  V30 28 H 2.743430 0.882542 1.955668 0
M  V30 29 H -1.334830 -2.665515 -1.531609 0
M  V30 30 H -3.443202 -3.845158 -1.459309 0
M  V30 31 H -5.042427 -3.485373 0.362116 0
M  V30 32 H -4.532736 -1.876305 2.203104 0
M  V30 33 H -3.376962 -0.231775 2.990119 0
M  V30 END ATOM
M  V30 BEGIN BOND
M  V30 1 2 1 2
M  V30 2 1 2 3
M  V30 3 1 3 4
M  V30 4 2 4 5
M  V30 5 1 5 6
M  V30 6 1 6 7
M  V30 7 2 7 8
M  V30 8 1 8 9
M  V30 9 2 9 10
M  V30 10 1 10 11
M  V30 11 2 11 12
M  V30 12 1 11 13
M  V30 13 1 10 14
M  V30 14 2 14 15
M  V30 15 1 5 16
M  V30 16 2 16 17
M  V30 17 1 17 18
M  V30 18 2 18 19
M  V30 19 1 19 20
M  V30 20 2 20 21
M  V30 21 1 21 22
M  V30 22 1 22 2
M  V30 23 1 15 4
M  V30 24 1 21 16
M  V30 25 1 15 7
M  V30 26 1 3 23
M  V30 27 1 3 24
M  V30 28 1 6 25
M  V30 29 1 8 26
M  V30 30 1 9 27
M  V30 31 1 14 28
M  V30 32 1 17 29
M  V30 33 1 18 30
M  V30 34 1 19 31
M  V30 35 1 20 32
M  V30 36 1 22 33
M  V30 END BOND
M  V30 END CTAB
M  END
>  <Dataset>  (451) 
ChEMBL_Kinases

>  <Ligand_Instance>  (451) 
nan

>  <PDB_ID>  (451) 
nan

>  <Standardized_SMILES>  (451) 
O=C1Cc2c([nH]c3ccc([N+](=O)[O-])cc23)-c2ccccc2N1

>  <Name>  (451) 
ALSTERPAULLONE

>  <Pocket>  (451) 
nan

>  <ATP_Site>  (451) 
nan

>  <Peripheral>  (451) 
nan

>  <Num_H_Atoms_ProtBoundConf>  (451) 
nan

>  <Num_Resolved_Atoms>  (451) 
nan

>  <Num_Not_Resolved_Atoms>  (451) 
nan

$$$$
CHEMBL5091510
     RDKit          3D

  0  0  0  0  0  0  0  0  0  0999 V3000
M  V30 BEGIN CTAB
M  V30 COUNTS 39 42 0 0 0
M  V30 BEGIN ATOM
M  V30 1 C 0.251640 -4.043677 4.634470 0
M  V30 2 C -0.098856 -2.786122 3.905320 0
M  V30 3 N 0.533648 -2.575585 2.715169 0
M  V30 4 C 0.244379 -1.450313 2.024904 0
M  V30 5 O 0.883615 -1.230043 0.817155 0
M  V30 6 C 1.813528 -2.107037 0.267171 0
M  V30 7 C 2.345233 -1.630121 -1.033519 0
M  V30 8 C 1.709490 -1.989127 -2.155718 0
M  V30 9 C 2.131325 -1.596229 -3.435546 0
M  V30 10 S 3.601735 -0.593321 -3.096116 0
M  V30 11 C 3.509159 -0.800363 -1.232160 0
M  V30 12 C -0.677879 -0.587589 2.577474 0
M  V30 13 C -1.079944 0.600273 2.003512 0
M  V30 14 C -0.807472 1.352721 0.786418 0
M  V30 15 C -0.489412 2.696751 0.950135 0
M  V30 16 C -0.210340 3.575668 -0.064743 0
M  V30 17 N -0.250959 3.084728 -1.317213 0
M  V30 18 C -0.550768 1.799101 -1.546588 0
M  V30 19 N -0.612217 1.207368 -2.859450 0
M  V30 20 C -0.829201 0.925342 -0.524929 0
M  V30 21 C -2.004919 1.110749 2.922701 0
M  V30 22 N -2.136616 0.274445 3.968259 0
M  V30 23 C -1.327162 -0.782633 3.778543 0
M  V30 24 N -1.003356 -1.919381 4.427169 0
M  V30 25 H -0.055111 -3.963781 5.686988 0
M  V30 26 H -0.433298 -4.826017 4.194411 0
M  V30 27 H 1.305933 -4.313626 4.475223 0
M  V30 28 H 2.692034 -2.237300 0.950483 0
M  V30 29 H 1.410290 -3.158153 0.173108 0
M  V30 30 H 0.833306 -2.589785 -2.316371 0
M  V30 31 H 1.929900 -1.659049 -4.458323 0
M  V30 32 H 4.061356 -0.495009 -0.155454 0
M  V30 33 H -0.446936 3.130780 1.953949 0
M  V30 34 H 0.030658 4.611237 0.125561 0
M  V30 35 H 0.273579 0.742354 -3.172784 0
M  V30 36 H -1.558485 1.340000 -3.303507 0
M  V30 37 H -1.080488 -0.107454 -0.666208 0
M  V30 38 H -2.596630 2.018869 2.925506 0
M  V30 39 H -2.723794 0.330524 4.821116 0
M  V30 END ATOM
M  V30 BEGIN BOND
M  V30 1 1 1 2
M  V30 2 2 2 3
M  V30 3 1 3 4
M  V30 4 1 4 5
M  V30 5 1 5 6
M  V30 6 1 6 7
M  V30 7 1 7 8
M  V30 8 2 8 9
M  V30 9 1 9 10
M  V30 10 1 10 11
M  V30 11 2 4 12
M  V30 12 1 12 13
M  V30 13 1 13 14
M  V30 14 2 14 15
M  V30 15 1 15 16
M  V30 16 2 16 17
M  V30 17 1 17 18
M  V30 18 1 18 19
M  V30 19 2 18 20
M  V30 20 2 13 21
M  V30 21 1 21 22
M  V30 22 1 22 23
M  V30 23 2 23 24
M  V30 24 1 24 2
M  V30 25 2 11 7
M  V30 26 1 23 12
M  V30 27 1 20 14
M  V30 28 1 1 25
M  V30 29 1 1 26
M  V30 30 1 1 27
M  V30 31 1 6 28
M  V30 32 1 6 29
M  V30 33 1 8 30
M  V30 34 1 9 31
M  V30 35 1 11 32
M  V30 36 1 15 33
M  V30 37 1 16 34
M  V30 38 1 19 35
M  V30 39 1 19 36
M  V30 40 1 20 37
M  V30 41 1 21 38
M  V30 42 1 22 39
M  V30 END BOND
M  V30 END CTAB
M  END
>  <Dataset>  (452) 
ChEMBL_Kinases

>  <Ligand_Instance>  (452) 
nan

>  <PDB_ID>  (452) 
nan

>  <Standardized_SMILES>  (452) 
Cc1nc(OCc2ccsc2)c2c(-c3ccnc(N)c3)c[nH]c2n1

>  <Name>  (452) 
nan

>  <Pocket>  (452) 
nan

>  <ATP_Site>  (452) 
nan

>  <Peripheral>  (452) 
nan

>  <Num_H_Atoms_ProtBoundConf>  (452) 
nan

>  <Num_Resolved_Atoms>  (452) 
nan

>  <Num_Not_Resolved_Atoms>  (452) 
nan

$$$$
CHEMBL2147544
     RDKit          3D

  0  0  0  0  0  0  0  0  0  0999 V3000
M  V30 BEGIN CTAB
M  V30 COUNTS 38 40 0 0 0
M  V30 BEGIN ATOM
M  V30 1 N -1.203688 -3.562218 5.104152 0
M  V30 2 C -0.009884 -4.027208 4.439140 0
M  V30 3 C 0.076739 -3.458942 3.045510 0
M  V30 4 C 0.114128 -1.924912 3.113080 0
M  V30 5 N 0.196125 -1.276509 1.873873 0
M  V30 6 C 0.278898 -0.621878 0.623002 0
M  V30 7 N 0.328947 0.707374 0.443888 0
M  V30 8 C 0.407045 1.363313 -0.707798 0
M  V30 9 C 0.451685 2.815601 -0.693289 0
M  V30 10 C 0.532829 3.572172 -1.839291 0
M  V30 11 C 0.573406 4.969988 -1.771961 0
M  V30 12 N 0.533221 5.590963 -0.581014 0
M  V30 13 C 0.453959 4.870289 0.549540 0
M  V30 14 C 0.412792 3.492650 0.507272 0
M  V30 15 C 0.434715 0.520582 -1.778749 0
M  V30 16 C 0.390840 -0.851717 -1.750040 0
M  V30 17 C 0.429329 -1.548563 -2.948608 0
M  V30 18 N 0.384213 -2.904609 -2.885202 0
M  V30 19 C 0.305259 -3.551008 -1.708255 0
M  V30 20 C 0.270599 -2.803317 -0.555141 0
M  V30 21 C 0.310187 -1.427055 -0.495589 0
M  V30 22 H -1.025698 -2.661580 5.604009 0
M  V30 23 H -1.969447 -3.449096 4.423278 0
M  V30 24 H 0.881418 -3.787206 5.045067 0
M  V30 25 H -0.084777 -5.124077 4.364147 0
M  V30 26 H -0.778443 -3.842725 2.488043 0
M  V30 27 H 1.003347 -3.853383 2.581123 0
M  V30 28 H -0.819605 -1.695937 3.696301 0
M  V30 29 H 0.963863 -1.724748 3.845550 0
M  V30 30 H 0.197991 -0.396697 2.489451 0
M  V30 31 H 0.560076 2.998190 -2.743118 0
M  V30 32 H 0.637237 5.436345 -2.754393 0
M  V30 33 H 0.421732 5.375891 1.510428 0
M  V30 34 H 0.348138 2.931288 1.447232 0
M  V30 35 H 0.497714 0.992599 -2.745225 0
M  V30 36 H 0.492681 -1.016472 -3.883091 0
M  V30 37 H 0.268510 -4.628727 -1.641238 0
M  V30 38 H 0.208641 -3.319793 0.370095 0
M  V30 END ATOM
M  V30 BEGIN BOND
M  V30 1 1 1 2
M  V30 2 1 2 3
M  V30 3 1 3 4
M  V30 4 1 4 5
M  V30 5 1 5 6
M  V30 6 2 6 7
M  V30 7 1 7 8
M  V30 8 1 8 9
M  V30 9 2 9 10
M  V30 10 1 10 11
M  V30 11 2 11 12
M  V30 12 1 12 13
M  V30 13 2 13 14
M  V30 14 2 8 15
M  V30 15 1 15 16
M  V30 16 2 16 17
M  V30 17 1 17 18
M  V30 18 2 18 19
M  V30 19 1 19 20
M  V30 20 2 20 21
M  V30 21 1 21 6
M  V30 22 1 14 9
M  V30 23 1 21 16
M  V30 24 1 1 22
M  V30 25 1 1 23
M  V30 26 1 2 24
M  V30 27 1 2 25
M  V30 28 1 3 26
M  V30 29 1 3 27
M  V30 30 1 4 28
M  V30 31 1 4 29
M  V30 32 1 5 30
M  V30 33 1 10 31
M  V30 34 1 11 32
M  V30 35 1 13 33
M  V30 36 1 14 34
M  V30 37 1 15 35
M  V30 38 1 17 36
M  V30 39 1 19 37
M  V30 40 1 20 38
M  V30 END BOND
M  V30 END CTAB
M  END
>  <Dataset>  (453) 
ChEMBL_Kinases

>  <Ligand_Instance>  (453) 
nan

>  <PDB_ID>  (453) 
nan

>  <Standardized_SMILES>  (453) 
NCCCNc1nc(-c2ccncc2)cc2cnccc12

>  <Name>  (453) 
nan

>  <Pocket>  (453) 
nan

>  <ATP_Site>  (453) 
nan

>  <Peripheral>  (453) 
nan

>  <Num_H_Atoms_ProtBoundConf>  (453) 
nan

>  <Num_Resolved_Atoms>  (453) 
nan

>  <Num_Not_Resolved_Atoms>  (453) 
nan

$$$$
CHEMBL4169078
     RDKit          3D

  0  0  0  0  0  0  0  0  0  0999 V3000
M  V30 BEGIN CTAB
M  V30 COUNTS 43 45 0 0 0
M  V30 BEGIN ATOM
M  V30 1 N 2.610126 -8.056445 5.211855 0
M  V30 2 C 2.172226 -7.090176 4.774250 0
M  V30 3 C 1.632425 -5.861305 4.241201 0
M  V30 4 C 2.490181 -4.826494 3.921955 0
M  V30 5 N 1.954554 -3.692355 3.426368 0
M  V30 6 C 0.623383 -3.540674 3.235732 0
M  V30 7 N 0.172609 -2.308097 2.710178 0
M  V30 8 C 0.051493 -2.112345 1.317926 0
M  V30 9 C -0.379311 -0.943769 0.727133 0
M  V30 10 C -0.512846 -0.706725 -0.620472 0
M  V30 11 N -0.976445 0.523846 -1.153856 0
M  V30 12 C -1.369008 1.745778 -0.497180 0
M  V30 13 C -0.269001 2.471241 0.200896 0 CFG=1
M  V30 14 C 0.797982 2.975904 -0.746525 0
M  V30 15 N 1.975209 3.278014 0.076097 0
M  V30 16 C 1.488132 3.943344 1.263740 0
M  V30 17 C 0.129279 4.572035 1.043926 0
M  V30 18 O -0.844925 3.618630 0.768884 0
M  V30 19 C -0.166627 -1.783042 -1.409232 0
M  V30 20 C -0.261143 -1.669606 -2.887867 0
M  V30 21 F 0.552436 -0.664536 -3.325946 0
M  V30 22 F -1.577784 -1.422019 -3.264932 0
M  V30 23 F 0.112146 -2.844703 -3.509442 0
M  V30 24 C 0.268220 -2.968970 -0.867460 0
M  V30 25 N 0.376950 -3.135156 0.471144 0
M  V30 26 C -0.233801 -4.587933 3.559890 0
M  V30 27 N 0.284336 -5.745473 4.062886 0
M  V30 28 H 3.555785 -4.918215 4.062958 0
M  V30 29 H -0.083904 -1.507107 3.331364 0
M  V30 30 H -0.620371 -0.198829 1.452004 0
M  V30 31 H -1.040523 0.538795 -2.201087 0
M  V30 32 H -2.123866 1.495469 0.315767 0
M  V30 33 H -1.922754 2.397621 -1.182333 0
M  V30 34 H 0.224484 1.948667 1.021855 0
M  V30 35 H 1.048291 2.190169 -1.512683 0
M  V30 36 H 0.526843 3.927973 -1.247460 0
M  V30 37 H 2.476282 2.409347 0.371100 0
M  V30 38 H 2.178608 4.773542 1.547772 0
M  V30 39 H 1.386033 3.235128 2.112332 0
M  V30 40 H -0.156181 5.065466 1.996551 0
M  V30 41 H 0.204874 5.308676 0.220569 0
M  V30 42 H 0.524350 -3.773668 -1.528122 0
M  V30 43 H -1.303782 -4.441384 3.397053 0
M  V30 END ATOM
M  V30 BEGIN BOND
M  V30 1 3 1 2
M  V30 2 1 2 3
M  V30 3 2 3 4
M  V30 4 1 4 5
M  V30 5 2 5 6
M  V30 6 1 6 7
M  V30 7 1 7 8
M  V30 8 2 8 9
M  V30 9 1 9 10
M  V30 10 1 10 11
M  V30 11 1 11 12
M  V30 12 1 12 13
M  V30 13 1 13 14
M  V30 14 1 14 15
M  V30 15 1 15 16
M  V30 16 1 16 17
M  V30 17 1 17 18
M  V30 18 2 10 19
M  V30 19 1 19 20
M  V30 20 1 20 21
M  V30 21 1 20 22
M  V30 22 1 20 23
M  V30 23 1 19 24
M  V30 24 2 24 25
M  V30 25 1 6 26
M  V30 26 2 26 27
M  V30 27 1 27 3
M  V30 28 1 25 8
M  V30 29 1 18 13
M  V30 30 1 4 28
M  V30 31 1 7 29
M  V30 32 1 9 30
M  V30 33 1 11 31
M  V30 34 1 12 32
M  V30 35 1 12 33
M  V30 36 1 13 34 CFG=1
M  V30 37 1 14 35
M  V30 38 1 14 36
M  V30 39 1 15 37
M  V30 40 1 16 38
M  V30 41 1 16 39
M  V30 42 1 17 40
M  V30 43 1 17 41
M  V30 44 1 24 42
M  V30 45 1 26 43
M  V30 END BOND
M  V30 END CTAB
M  END
>  <Dataset>  (454) 
ChEMBL_Kinases

>  <Ligand_Instance>  (454) 
nan

>  <PDB_ID>  (454) 
nan

>  <Standardized_SMILES>  (454) 
N#Cc1cnc(Nc2cc(NC[C@H]3CNCCO3)c(C(F)(F)F)cn2)cn1

>  <Name>  (454) 
nan

>  <Pocket>  (454) 
nan

>  <ATP_Site>  (454) 
nan

>  <Peripheral>  (454) 
nan

>  <Num_H_Atoms_ProtBoundConf>  (454) 
nan

>  <Num_Resolved_Atoms>  (454) 
nan

>  <Num_Not_Resolved_Atoms>  (454) 
nan

$$$$
CHEMBL2147543
     RDKit          3D

  0  0  0  0  0  0  0  0  0  0999 V3000
M  V30 BEGIN CTAB
M  V30 COUNTS 42 45 0 0 0
M  V30 BEGIN ATOM
M  V30 1 N 1.515184 -3.396831 2.044949 0
M  V30 2 C 1.076682 -3.788635 0.717483 0
M  V30 3 C -0.277280 -4.412035 0.829381 0
M  V30 4 C -1.270105 -3.960150 -0.185967 0
M  V30 5 C -1.268963 -2.523862 -0.543768 0
M  V30 6 N -0.152094 -1.830420 0.012601 0
M  V30 7 C -0.043223 -0.563324 0.687014 0
M  V30 8 N 0.769472 0.330439 0.052349 0
M  V30 9 C 0.982863 1.565046 0.543848 0
M  V30 10 C 1.870064 2.445758 -0.211464 0
M  V30 11 C 2.436577 1.970523 -1.376737 0
M  V30 12 C 3.284706 2.728713 -2.153852 0
M  V30 13 N 3.576459 4.000737 -1.755547 0
M  V30 14 C 3.031838 4.468360 -0.628232 0
M  V30 15 C 2.187595 3.734324 0.158943 0
M  V30 16 C 0.377389 1.963644 1.717337 0
M  V30 17 C -0.448035 1.076377 2.375529 0
M  V30 18 C -1.103504 1.370436 3.556380 0
M  V30 19 N -1.900896 0.444353 4.147766 0
M  V30 20 C -2.092592 -0.789812 3.624062 0
M  V30 21 C -1.463753 -1.140660 2.445911 0
M  V30 22 C -0.658773 -0.186151 1.861693 0
M  V30 23 C 1.106901 -2.554913 -0.142059 0
M  V30 24 H 0.761160 -2.990864 2.625168 0
M  V30 25 H 2.003592 -4.172818 2.543881 0
M  V30 26 H 1.859867 -4.488635 0.324900 0
M  V30 27 H -0.124178 -5.507966 0.671321 0
M  V30 28 H -0.676910 -4.326659 1.860549 0
M  V30 29 H -2.284264 -4.169400 0.269157 0
M  V30 30 H -1.261072 -4.590318 -1.098650 0
M  V30 31 H -1.210151 -2.413460 -1.667099 0
M  V30 32 H -2.213473 -1.970730 -0.290404 0
M  V30 33 H 2.269771 0.975186 -1.780916 0
M  V30 34 H 3.756123 2.409447 -3.073327 0
M  V30 35 H 3.282700 5.475297 -0.342876 0
M  V30 36 H 1.772707 4.135562 1.047335 0
M  V30 37 H 0.532825 2.937627 2.124458 0
M  V30 38 H -0.965116 2.345833 3.990046 0
M  V30 39 H -2.747076 -1.499455 4.142727 0
M  V30 40 H -1.610888 -2.123226 2.022083 0
M  V30 41 H 1.994995 -1.933149 0.083218 0
M  V30 42 H 1.187767 -2.836735 -1.197476 0
M  V30 END ATOM
M  V30 BEGIN BOND
M  V30 1 1 1 2
M  V30 2 1 2 3
M  V30 3 1 3 4
M  V30 4 1 4 5
M  V30 5 1 5 6
M  V30 6 1 6 7
M  V30 7 2 7 8
M  V30 8 1 8 9
M  V30 9 1 9 10
M  V30 10 2 10 11
M  V30 11 1 11 12
M  V30 12 2 12 13
M  V30 13 1 13 14
M  V30 14 2 14 15
M  V30 15 2 9 16
M  V30 16 1 16 17
M  V30 17 2 17 18
M  V30 18 1 18 19
M  V30 19 2 19 20
M  V30 20 1 20 21
M  V30 21 2 21 22
M  V30 22 1 6 23
M  V30 23 1 23 2
M  V30 24 1 22 7
M  V30 25 1 15 10
M  V30 26 1 22 17
M  V30 27 1 1 24
M  V30 28 1 1 25
M  V30 29 1 2 26
M  V30 30 1 3 27
M  V30 31 1 3 28
M  V30 32 1 4 29
M  V30 33 1 4 30
M  V30 34 1 5 31
M  V30 35 1 5 32
M  V30 36 1 11 33
M  V30 37 1 12 34
M  V30 38 1 14 35
M  V30 39 1 15 36
M  V30 40 1 16 37
M  V30 41 1 18 38
M  V30 42 1 20 39
M  V30 43 1 21 40
M  V30 44 1 23 41
M  V30 45 1 23 42
M  V30 END BOND
M  V30 END CTAB
M  END
>  <Dataset>  (455) 
ChEMBL_Kinases

>  <Ligand_Instance>  (455) 
nan

>  <PDB_ID>  (455) 
nan

>  <Standardized_SMILES>  (455) 
NC1CCCN(c2nc(-c3ccncc3)cc3cnccc23)C1

>  <Name>  (455) 
nan

>  <Pocket>  (455) 
nan

>  <ATP_Site>  (455) 
nan

>  <Peripheral>  (455) 
nan

>  <Num_H_Atoms_ProtBoundConf>  (455) 
nan

>  <Num_Resolved_Atoms>  (455) 
nan

>  <Num_Not_Resolved_Atoms>  (455) 
nan

$$$$
CHEMBL1898197
     RDKit          3D

  0  0  0  0  0  0  0  0  0  0999 V3000
M  V30 BEGIN CTAB
M  V30 COUNTS 38 41 0 0 0
M  V30 BEGIN ATOM
M  V30 1 Cl -0.893036 -5.833883 1.823573 0
M  V30 2 C 0.409318 -4.653783 1.644609 0
M  V30 3 C 1.625135 -4.974653 1.116978 0
M  V30 4 C 2.614736 -4.007730 0.998790 0
M  V30 5 C 2.325492 -2.717780 1.431971 0
M  V30 6 C 3.484432 -1.783447 1.250586 0
M  V30 7 N 3.495235 -1.167832 -0.058553 0
M  V30 8 C 2.559456 -0.306011 -0.678310 0
M  V30 9 N 2.797166 0.123413 -1.953868 0
M  V30 10 C 1.962622 0.936325 -2.590861 0
M  V30 11 C 0.820572 1.363599 -1.952069 0
M  V30 12 C 0.541894 0.955462 -0.666722 0
M  V30 13 C -0.669581 1.426512 -0.015297 0
M  V30 14 C -1.571172 2.267523 -0.624732 0
M  V30 15 C -2.725402 2.731152 -0.031685 0
M  V30 16 C -3.039436 2.355941 1.252725 0
M  V30 17 C -2.163002 1.512368 1.903323 0
M  V30 18 C -1.023642 1.076507 1.269209 0
M  V30 19 O -2.711033 1.287853 3.181037 0
M  V30 20 C -4.113991 1.591729 3.134712 0
M  V30 21 O -4.085233 2.621244 2.136791 0
M  V30 22 N 1.432420 0.136304 -0.093810 0
M  V30 23 C 1.088923 -2.418063 1.961980 0
M  V30 24 C 0.114813 -3.370173 2.078126 0
M  V30 25 Cl -1.387660 -2.827128 2.767756 0
M  V30 26 H 1.711700 -6.012256 0.822213 0
M  V30 27 H 3.526307 -4.388676 0.567556 0
M  V30 28 H 3.399234 -0.954353 2.002958 0
M  V30 29 H 4.424545 -2.289937 1.488827 0
M  V30 30 H 4.357961 -1.419854 -0.630360 0
M  V30 31 H 2.281976 1.191175 -3.594104 0
M  V30 32 H 0.221845 2.012516 -2.553802 0
M  V30 33 H -1.433140 2.629316 -1.630043 0
M  V30 34 H -3.419355 3.385589 -0.516670 0
M  V30 35 H -0.409129 0.430861 1.850235 0
M  V30 36 H -4.520371 1.919645 4.088443 0
M  V30 37 H -4.638778 0.721958 2.667318 0
M  V30 38 H 1.082897 -1.372565 2.233351 0
M  V30 END ATOM
M  V30 BEGIN BOND
M  V30 1 1 1 2
M  V30 2 2 2 3
M  V30 3 1 3 4
M  V30 4 2 4 5
M  V30 5 1 5 6
M  V30 6 1 6 7
M  V30 7 1 7 8
M  V30 8 2 8 9
M  V30 9 1 9 10
M  V30 10 2 10 11
M  V30 11 1 11 12
M  V30 12 1 12 13
M  V30 13 2 13 14
M  V30 14 1 14 15
M  V30 15 2 15 16
M  V30 16 1 16 17
M  V30 17 2 17 18
M  V30 18 1 17 19
M  V30 19 1 19 20
M  V30 20 1 20 21
M  V30 21 2 12 22
M  V30 22 1 5 23
M  V30 23 2 23 24
M  V30 24 1 24 25
M  V30 25 1 24 2
M  V30 26 1 22 8
M  V30 27 1 18 13
M  V30 28 1 21 16
M  V30 29 1 3 26
M  V30 30 1 4 27
M  V30 31 1 6 28
M  V30 32 1 6 29
M  V30 33 1 7 30
M  V30 34 1 10 31
M  V30 35 1 11 32
M  V30 36 1 14 33
M  V30 37 1 15 34
M  V30 38 1 18 35
M  V30 39 1 20 36
M  V30 40 1 20 37
M  V30 41 1 23 38
M  V30 END BOND
M  V30 END CTAB
M  END
>  <Dataset>  (456) 
ChEMBL_Kinases

>  <Ligand_Instance>  (456) 
nan

>  <PDB_ID>  (456) 
nan

>  <Standardized_SMILES>  (456) 
Clc1ccc(CNc2nccc(-c3ccc4c(c3)OCO4)n2)cc1Cl

>  <Name>  (456) 
nan

>  <Pocket>  (456) 
nan

>  <ATP_Site>  (456) 
nan

>  <Peripheral>  (456) 
nan

>  <Num_H_Atoms_ProtBoundConf>  (456) 
nan

>  <Num_Resolved_Atoms>  (456) 
nan

>  <Num_Not_Resolved_Atoms>  (456) 
nan

$$$$
CHEMBL67442
     RDKit          3D

  0  0  0  0  0  0  0  0  0  0999 V3000
M  V30 BEGIN CTAB
M  V30 COUNTS 63 66 0 0 0
M  V30 BEGIN ATOM
M  V30 1 O 2.299286 -1.316472 4.199818 0
M  V30 2 C 2.177663 -0.268182 3.515746 0
M  V30 3 N 3.080292 -0.032340 2.442853 0
M  V30 4 C 4.121923 -0.964077 2.128239 0 CFG=2
M  V30 5 C 5.513738 -0.375118 2.160274 0
M  V30 6 N 6.399859 -1.271878 1.478070 0
M  V30 7 C 5.938500 -2.643559 1.422325 0
M  V30 8 C 4.659140 -2.768841 0.615965 0
M  V30 9 C 3.925849 -1.454288 0.705971 0 CFG=1
M  V30 10 O 2.556942 -1.527390 0.462944 0
M  V30 11 C 1.890402 -0.859095 -0.540868 0
M  V30 12 O 2.633643 -0.139258 -1.265064 0
M  V30 13 C 0.455310 -0.956857 -0.768391 0
M  V30 14 C -0.268341 -1.765592 0.073485 0
M  V30 15 C -1.652727 -1.897055 -0.101167 0
M  V30 16 O -2.293191 -2.736387 0.800174 0
M  V30 17 C -2.292320 -1.219458 -1.113641 0
M  V30 18 C -3.723495 -1.295329 -1.235476 0
M  V30 19 O -4.169077 -1.606139 -0.067341 0
M  V30 20 C -4.802413 -1.148699 -2.163706 0
M  V30 21 C -6.000130 -0.722394 -1.600779 0
M  V30 22 O -6.189014 -0.423374 -0.240916 0
M  V30 23 C -7.168221 -0.541453 -2.341663 0
M  V30 24 C -7.085804 -0.808557 -3.683609 0
M  V30 25 C -5.949491 -1.232004 -4.304773 0
M  V30 26 C -4.848797 -1.384705 -3.496447 0
M  V30 27 C -3.698105 -2.010023 -4.179342 0
M  V30 28 O -2.569371 -2.497678 -3.931494 0
M  V30 29 O -3.595822 -2.241353 -5.531632 0
M  V30 30 C -1.472500 -0.416797 -1.921047 0
M  V30 31 O -2.008194 0.330996 -2.980026 0
M  V30 32 C -0.113061 -0.247315 -1.801474 0
M  V30 33 C 1.104148 0.655063 3.868169 0
M  V30 34 C 0.292937 0.314670 4.930702 0
M  V30 35 C -0.744213 1.155233 5.310066 0
M  V30 36 C -0.999842 2.336856 4.655693 0
M  V30 37 O -2.048089 3.170377 5.051388 0
M  V30 38 C -0.165890 2.639592 3.599619 0
M  V30 39 C 0.877291 1.832868 3.188345 0
M  V30 40 H 2.997192 0.830547 1.863064 0
M  V30 41 H 4.141722 -1.847339 2.787659 0
M  V30 42 H 5.806356 -0.114698 3.175929 0
M  V30 43 H 5.426737 0.584286 1.575935 0
M  V30 44 H 7.291214 -1.307779 2.035323 0
M  V30 45 H 6.716497 -3.220729 0.896244 0
M  V30 46 H 5.842253 -3.085373 2.432605 0
M  V30 47 H 4.899160 -3.029812 -0.421694 0
M  V30 48 H 4.073739 -3.570729 1.119710 0
M  V30 49 H 4.451620 -0.770844 -0.024040 0
M  V30 50 H 0.222810 -2.291547 0.857370 0
M  V30 51 H -2.687822 -2.398089 1.667970 0
M  V30 52 H -6.324318 0.553018 -0.006202 0
M  V30 53 H -8.103359 -0.213562 -1.930754 0
M  V30 54 H -7.973414 -0.674166 -4.281521 0
M  V30 55 H -5.944275 -1.425391 -5.356343 0
M  V30 56 H -2.877377 -1.898197 -6.168757 0
M  V30 57 H -1.630685 0.146070 -3.902396 0
M  V30 58 H 0.482799 0.372467 -2.436259 0
M  V30 59 H 0.425458 -0.597750 5.500062 0
M  V30 60 H -1.366918 0.862307 6.149980 0
M  V30 61 H -2.715179 2.811529 5.696478 0
M  V30 62 H -0.373403 3.576561 3.085412 0
M  V30 63 H 1.494914 2.112665 2.363526 0
M  V30 END ATOM
M  V30 BEGIN BOND
M  V30 1 2 1 2
M  V30 2 1 2 3
M  V30 3 1 3 4
M  V30 4 1 4 5
M  V30 5 1 5 6
M  V30 6 1 6 7
M  V30 7 1 7 8
M  V30 8 1 8 9
M  V30 9 1 9 10
M  V30 10 1 10 11
M  V30 11 2 11 12
M  V30 12 1 11 13
M  V30 13 2 13 14
M  V30 14 1 14 15
M  V30 15 1 15 16
M  V30 16 2 15 17
M  V30 17 1 17 18
M  V30 18 2 18 19
M  V30 19 1 18 20
M  V30 20 2 20 21
M  V30 21 1 21 22
M  V30 22 1 21 23
M  V30 23 2 23 24
M  V30 24 1 24 25
M  V30 25 2 25 26
M  V30 26 1 26 27
M  V30 27 2 27 28
M  V30 28 1 27 29
M  V30 29 1 17 30
M  V30 30 1 30 31
M  V30 31 2 30 32
M  V30 32 1 2 33
M  V30 33 2 33 34
M  V30 34 1 34 35
M  V30 35 2 35 36
M  V30 36 1 36 37
M  V30 37 1 36 38
M  V30 38 2 38 39
M  V30 39 1 9 4
M  V30 40 1 32 13
M  V30 41 1 39 33
M  V30 42 1 26 20
M  V30 43 1 3 40
M  V30 44 1 4 41 CFG=1
M  V30 45 1 5 42
M  V30 46 1 5 43
M  V30 47 1 6 44
M  V30 48 1 7 45
M  V30 49 1 7 46
M  V30 50 1 8 47
M  V30 51 1 8 48
M  V30 52 1 9 49 CFG=3
M  V30 53 1 14 50
M  V30 54 1 16 51
M  V30 55 1 22 52
M  V30 56 1 23 53
M  V30 57 1 24 54
M  V30 58 1 25 55
M  V30 59 1 29 56
M  V30 60 1 31 57
M  V30 61 1 32 58
M  V30 62 1 34 59
M  V30 63 1 35 60
M  V30 64 1 37 61
M  V30 65 1 38 62
M  V30 66 1 39 63
M  V30 END BOND
M  V30 END CTAB
M  END
>  <Dataset>  (457) 
ChEMBL_Kinases

>  <Ligand_Instance>  (457) 
nan

>  <PDB_ID>  (457) 
nan

>  <Standardized_SMILES>  (457) 
O=C(N[C@@H]1CNCC[C@H]1OC(=O)c1cc(O)c(C(=O)c2c(O)cccc2C(=O)O)c(O)c1)c1ccc(O)cc1

>  <Name>  (457) 
nan

>  <Pocket>  (457) 
nan

>  <ATP_Site>  (457) 
nan

>  <Peripheral>  (457) 
nan

>  <Num_H_Atoms_ProtBoundConf>  (457) 
nan

>  <Num_Resolved_Atoms>  (457) 
nan

>  <Num_Not_Resolved_Atoms>  (457) 
nan

$$$$
CHEMBL300549
     RDKit          3D

  0  0  0  0  0  0  0  0  0  0999 V3000
M  V30 BEGIN CTAB
M  V30 COUNTS 69 75 0 0 0
M  V30 BEGIN ATOM
M  V30 1 C 2.169030 -2.520487 4.465882 0
M  V30 2 N 2.731075 -1.716879 3.400465 0
M  V30 3 C 2.176846 -0.660798 2.792813 0
M  V30 4 C 3.011271 -0.125170 1.801133 0
M  V30 5 C 2.544669 1.031325 1.030403 0
M  V30 6 C 1.298517 1.156573 0.525128 0
M  V30 7 C 0.292531 0.122147 0.704301 0
M  V30 8 C -0.977346 0.242414 1.221348 0
M  V30 9 N -1.690914 -0.922183 1.247966 0
M  V30 10 C -3.013863 -1.116918 1.736099 0
M  V30 11 C -4.039145 -1.604641 0.781104 0
M  V30 12 C -4.117594 -0.737712 -0.448956 0
M  V30 13 N -3.396286 0.490335 -0.175363 0
M  V30 14 C -3.625253 1.422908 -1.265698 0
M  V30 15 C -3.192331 0.810293 -2.543141 0
M  V30 16 C -1.922499 0.879860 -3.075060 0
M  V30 17 C -1.592893 0.290297 -4.276924 0
M  V30 18 C -2.509242 -0.402207 -5.018305 0
M  V30 19 C -3.795360 -0.504982 -4.535923 0
M  V30 20 C -4.101694 0.092433 -3.331794 0
M  V30 21 C -3.993145 1.020631 1.052324 0
M  V30 22 C -3.517031 0.239471 2.248780 0
M  V30 23 C -0.822074 -1.821633 0.716957 0
M  V30 24 C -0.931530 -3.169716 0.459663 0
M  V30 25 C 0.047994 -3.952104 -0.100594 0
M  V30 26 C 1.247825 -3.348431 -0.439625 0
M  V30 27 C 1.381824 -1.994804 -0.190075 0
M  V30 28 C 0.391764 -1.213879 0.376387 0
M  V30 29 C 1.292004 2.453967 -0.145114 0
M  V30 30 O 0.282195 2.900224 -0.731467 0
M  V30 31 N 2.545519 3.103397 -0.036397 0
M  V30 32 C 3.345203 2.202346 0.710440 0
M  V30 33 O 4.542508 2.484963 0.988936 0
M  V30 34 C 4.126052 -0.927822 1.837503 0
M  V30 35 C 5.230945 -0.790394 1.030796 0
M  V30 36 C 6.243713 -1.719245 1.237526 0
M  V30 37 C 6.084389 -2.696731 2.212460 0
M  V30 38 C 4.955265 -2.796654 3.000323 0
M  V30 39 C 3.941246 -1.884649 2.809593 0
M  V30 40 H 1.384356 -1.946955 5.005491 0
M  V30 41 H 2.930808 -2.917294 5.142964 0
M  V30 42 H 1.654860 -3.392398 3.991269 0
M  V30 43 H 1.172109 -0.312031 3.096069 0
M  V30 44 H -1.309997 1.235993 1.562311 0
M  V30 45 H -3.009697 -1.799056 2.647991 0
M  V30 46 H -5.037591 -1.504670 1.315321 0
M  V30 47 H -3.919094 -2.647607 0.423547 0
M  V30 48 H -5.172405 -0.411455 -0.651445 0
M  V30 49 H -3.700920 -1.268870 -1.331821 0
M  V30 50 H -3.087476 2.367919 -1.084374 0
M  V30 51 H -4.723934 1.583474 -1.318305 0
M  V30 52 H -1.192395 1.424372 -2.499593 0
M  V30 53 H -0.554756 0.420756 -4.582150 0
M  V30 54 H -2.190846 -0.840667 -5.951313 0
M  V30 55 H -4.535111 -1.049688 -5.108057 0
M  V30 56 H -5.120988 -0.021896 -3.009102 0
M  V30 57 H -3.797184 2.101263 1.140852 0
M  V30 58 H -5.095293 0.929936 0.932168 0
M  V30 59 H -2.777327 0.751363 2.858547 0
M  V30 60 H -4.392507 0.054255 2.913266 0
M  V30 61 H -1.831119 -3.687154 0.703250 0
M  V30 62 H -0.045138 -5.005038 -0.298687 0
M  V30 63 H 2.059234 -3.927059 -0.889411 0
M  V30 64 H 2.331278 -1.577328 -0.487723 0
M  V30 65 H 2.817980 4.037135 -0.420751 0
M  V30 66 H 5.324351 -0.022329 0.279504 0
M  V30 67 H 7.156438 -1.712875 0.664375 0
M  V30 68 H 6.840367 -3.450428 2.421273 0
M  V30 69 H 4.786649 -3.532993 3.764968 0
M  V30 END ATOM
M  V30 BEGIN BOND
M  V30 1 1 1 2
M  V30 2 1 2 3
M  V30 3 2 3 4
M  V30 4 1 4 5
M  V30 5 2 5 6
M  V30 6 1 6 7
M  V30 7 2 7 8
M  V30 8 1 8 9
M  V30 9 1 9 10
M  V30 10 1 10 11
M  V30 11 1 11 12
M  V30 12 1 12 13
M  V30 13 1 13 14
M  V30 14 1 14 15
M  V30 15 2 15 16
M  V30 16 1 16 17
M  V30 17 2 17 18
M  V30 18 1 18 19
M  V30 19 2 19 20
M  V30 20 1 13 21
M  V30 21 1 21 22
M  V30 22 1 9 23
M  V30 23 2 23 24
M  V30 24 1 24 25
M  V30 25 2 25 26
M  V30 26 1 26 27
M  V30 27 2 27 28
M  V30 28 1 6 29
M  V30 29 2 29 30
M  V30 30 1 29 31
M  V30 31 1 31 32
M  V30 32 2 32 33
M  V30 33 1 4 34
M  V30 34 2 34 35
M  V30 35 1 35 36
M  V30 36 2 36 37
M  V30 37 1 37 38
M  V30 38 2 38 39
M  V30 39 1 39 2
M  V30 40 1 32 5
M  V30 41 1 39 34
M  V30 42 1 28 7
M  V30 43 1 22 10
M  V30 44 1 28 23
M  V30 45 1 20 15
M  V30 46 1 1 40
M  V30 47 1 1 41
M  V30 48 1 1 42
M  V30 49 1 3 43
M  V30 50 1 8 44
M  V30 51 1 10 45
M  V30 52 1 11 46
M  V30 53 1 11 47
M  V30 54 1 12 48
M  V30 55 1 12 49
M  V30 56 1 14 50
M  V30 57 1 14 51
M  V30 58 1 16 52
M  V30 59 1 17 53
M  V30 60 1 18 54
M  V30 61 1 19 55
M  V30 62 1 20 56
M  V30 63 1 21 57
M  V30 64 1 21 58
M  V30 65 1 22 59
M  V30 66 1 22 60
M  V30 67 1 24 61
M  V30 68 1 25 62
M  V30 69 1 26 63
M  V30 70 1 27 64
M  V30 71 1 31 65
M  V30 72 1 35 66
M  V30 73 1 36 67
M  V30 74 1 37 68
M  V30 75 1 38 69
M  V30 END BOND
M  V30 END CTAB
M  END
>  <Dataset>  (458) 
ChEMBL_Kinases

>  <Ligand_Instance>  (458) 
nan

>  <PDB_ID>  (458) 
nan

>  <Standardized_SMILES>  (458) 
Cn1cc(C2=C(c3cn(C4CCN(Cc5ccccc5)CC4)c4ccccc34)C(=O)NC2=O)c2ccccc21

>  <Name>  (458) 
nan

>  <Pocket>  (458) 
nan

>  <ATP_Site>  (458) 
nan

>  <Peripheral>  (458) 
nan

>  <Num_H_Atoms_ProtBoundConf>  (458) 
nan

>  <Num_Resolved_Atoms>  (458) 
nan

>  <Num_Not_Resolved_Atoms>  (458) 
nan

$$$$
CHEMBL59828
     RDKit          3D

  0  0  0  0  0  0  0  0  0  0999 V3000
M  V30 BEGIN CTAB
M  V30 COUNTS 60 63 0 0 0
M  V30 BEGIN ATOM
M  V30 1 O 3.506235 -1.897233 0.772073 0
M  V30 2 C 3.037505 -2.367031 1.850066 0
M  V30 3 N 3.182286 -1.530285 2.972445 0
M  V30 4 C 3.820288 -0.259748 2.833086 0 CFG=2
M  V30 5 C 4.898401 0.034645 3.840625 0
M  V30 6 N 5.011325 1.489226 3.835705 0
M  V30 7 C 3.819547 2.016018 3.201153 0
M  V30 8 C 2.857226 0.878722 3.198186 0 CFG=1
M  V30 9 O 1.858426 0.903438 2.239872 0
M  V30 10 C 0.514968 0.716310 2.439062 0
M  V30 11 O 0.192890 0.501283 3.635941 0
M  V30 12 C -0.508900 0.750493 1.396958 0
M  V30 13 C -1.810916 0.540767 1.780909 0
M  V30 14 C -2.810351 0.564342 0.815033 0
M  V30 15 O -4.107171 0.337594 1.321564 0
M  V30 16 C -2.538046 0.790794 -0.515567 0
M  V30 17 C -3.627086 0.870808 -1.445650 0
M  V30 18 O -4.680838 1.217083 -0.793938 0
M  V30 19 C -3.952941 0.705302 -2.824422 0
M  V30 20 C -5.027088 1.410008 -3.326229 0
M  V30 21 O -5.780224 2.317989 -2.554881 0
M  V30 22 C -5.424577 1.251496 -4.650844 0
M  V30 23 C -4.765905 0.395849 -5.492252 0
M  V30 24 C -3.698375 -0.324727 -5.040012 0
M  V30 25 C -3.365155 -0.121115 -3.732296 0
M  V30 26 C -2.302362 -1.025522 -3.330522 0
M  V30 27 O -1.642692 -1.843594 -4.012596 0
M  V30 28 O -1.378217 -1.704475 -2.587068 0
M  V30 29 C -1.215565 0.996759 -0.839008 0
M  V30 30 O -0.745284 1.249003 -2.097375 0
M  V30 31 C -0.187284 0.982692 0.078753 0
M  V30 32 C 2.391803 -3.671591 1.951867 0
M  V30 33 C 1.869264 -4.217059 3.106676 0
M  V30 34 C 1.272049 -5.462181 3.120177 0
M  V30 35 C 1.216082 -6.148969 1.923513 0
M  V30 36 O 0.619513 -7.400024 1.921658 0
M  V30 37 C 1.718478 -5.662725 0.732981 0
M  V30 38 C 2.300527 -4.419135 0.783020 0
M  V30 39 H 2.839977 -1.796028 3.922383 0
M  V30 40 H 4.159916 -0.030853 1.817527 0
M  V30 41 H 5.848847 -0.458221 3.615061 0
M  V30 42 H 4.497910 -0.251358 4.834764 0
M  V30 43 H 5.876949 1.704422 3.303042 0
M  V30 44 H 3.450371 2.951369 3.659369 0
M  V30 45 H 4.107304 2.264355 2.143516 0
M  V30 46 H 2.543825 0.687829 4.239219 0
M  V30 47 H -2.040489 0.361169 2.822036 0
M  V30 48 H -4.200954 -0.492267 1.893983 0
M  V30 49 H -6.796098 2.221717 -2.638390 0
M  V30 50 H -6.270531 1.822312 -5.001680 0
M  V30 51 H -5.142497 0.345078 -6.485870 0
M  V30 52 H -3.227457 -0.975528 -5.747272 0
M  V30 53 H -1.417999 -1.796206 -1.575192 0
M  V30 54 H -1.339607 1.795206 -2.726505 0
M  V30 55 H 0.860592 1.134505 -0.112976 0
M  V30 56 H 1.945540 -3.627141 4.010488 0
M  V30 57 H 0.879595 -5.843980 4.046065 0
M  V30 58 H 0.509524 -7.959320 1.085676 0
M  V30 59 H 1.658788 -6.229585 -0.195113 0
M  V30 60 H 2.695335 -4.037645 -0.153923 0
M  V30 END ATOM
M  V30 BEGIN BOND
M  V30 1 2 1 2
M  V30 2 1 2 3
M  V30 3 1 3 4
M  V30 4 1 4 5
M  V30 5 1 5 6
M  V30 6 1 6 7
M  V30 7 1 7 8
M  V30 8 1 8 9
M  V30 9 1 9 10
M  V30 10 2 10 11
M  V30 11 1 10 12
M  V30 12 2 12 13
M  V30 13 1 13 14
M  V30 14 1 14 15
M  V30 15 2 14 16
M  V30 16 1 16 17
M  V30 17 2 17 18
M  V30 18 1 17 19
M  V30 19 2 19 20
M  V30 20 1 20 21
M  V30 21 1 20 22
M  V30 22 2 22 23
M  V30 23 1 23 24
M  V30 24 2 24 25
M  V30 25 1 25 26
M  V30 26 2 26 27
M  V30 27 1 26 28
M  V30 28 1 16 29
M  V30 29 1 29 30
M  V30 30 2 29 31
M  V30 31 1 2 32
M  V30 32 2 32 33
M  V30 33 1 33 34
M  V30 34 2 34 35
M  V30 35 1 35 36
M  V30 36 1 35 37
M  V30 37 2 37 38
M  V30 38 1 8 4
M  V30 39 1 31 12
M  V30 40 1 38 32
M  V30 41 1 25 19
M  V30 42 1 3 39
M  V30 43 1 4 40 CFG=3
M  V30 44 1 5 41
M  V30 45 1 5 42
M  V30 46 1 6 43
M  V30 47 1 7 44
M  V30 48 1 7 45
M  V30 49 1 8 46 CFG=1
M  V30 50 1 13 47
M  V30 51 1 15 48
M  V30 52 1 21 49
M  V30 53 1 22 50
M  V30 54 1 23 51
M  V30 55 1 24 52
M  V30 56 1 28 53
M  V30 57 1 30 54
M  V30 58 1 31 55
M  V30 59 1 33 56
M  V30 60 1 34 57
M  V30 61 1 36 58
M  V30 62 1 37 59
M  V30 63 1 38 60
M  V30 END BOND
M  V30 END CTAB
M  END
>  <Dataset>  (459) 
ChEMBL_Kinases

>  <Ligand_Instance>  (459) 
nan

>  <PDB_ID>  (459) 
nan

>  <Standardized_SMILES>  (459) 
O=C(N[C@@H]1CNC[C@H]1OC(=O)c1cc(O)c(C(=O)c2c(O)cccc2C(=O)O)c(O)c1)c1ccc(O)cc1

>  <Name>  (459) 
nan

>  <Pocket>  (459) 
nan

>  <ATP_Site>  (459) 
nan

>  <Peripheral>  (459) 
nan

>  <Num_H_Atoms_ProtBoundConf>  (459) 
nan

>  <Num_Resolved_Atoms>  (459) 
nan

>  <Num_Not_Resolved_Atoms>  (459) 
nan

$$$$
CHEMBL3885431
     RDKit          3D

  0  0  0  0  0  0  0  0  0  0999 V3000
M  V30 BEGIN CTAB
M  V30 COUNTS 32 35 0 0 0
M  V30 BEGIN ATOM
M  V30 1 C 0.952863 -4.872255 2.062484 0
M  V30 2 O 0.685317 -3.671383 1.361787 0
M  V30 3 C 0.524457 -3.567207 0.062879 0
M  V30 4 C 0.358544 -3.459450 -1.276397 0
M  V30 5 C 0.128740 -2.778526 -2.397491 0
M  V30 6 C -0.027734 -1.486470 -2.005622 0
M  V30 7 C 0.060041 -1.103921 -0.685112 0
M  V30 8 C 0.325579 -2.093337 0.318408 0
M  V30 9 N 0.294044 -1.155749 1.375666 0
M  V30 10 C 0.059984 0.121522 1.081547 0
M  V30 11 C -0.011173 1.150237 1.977526 0
M  V30 12 C 0.154142 1.012488 3.329422 0
M  V30 13 C 0.047561 2.142277 4.076697 0
M  V30 14 N -0.211725 3.350399 3.493269 0
M  V30 15 C -0.370423 3.463216 2.165092 0
M  V30 16 C -0.278705 2.362875 1.327488 0
M  V30 17 C -0.444080 2.486063 -0.021466 0
M  V30 18 C -0.352959 1.384600 -0.831443 0
M  V30 19 C -0.521481 1.501156 -2.235258 0
M  V30 20 N -0.656202 1.616426 -3.382036 0
M  V30 21 C -0.098051 0.191828 -0.264713 0
M  V30 22 H 0.076766 -5.559990 1.889067 0
M  V30 23 H 1.915749 -5.329745 1.871803 0
M  V30 24 H 0.888746 -4.645320 3.162442 0
M  V30 25 H 0.530845 -4.610940 -1.325733 0
M  V30 26 H 0.124881 -3.380085 -3.284465 0
M  V30 27 H -0.214241 -0.914100 -2.880499 0
M  V30 28 H 0.456992 -1.494105 2.359822 0
M  V30 29 H 0.355770 0.048931 3.747347 0
M  V30 30 H 0.169132 2.118936 5.166248 0
M  V30 31 H -0.574801 4.408810 1.684389 0
M  V30 32 H -0.650693 3.418523 -0.515774 0
M  V30 END ATOM
M  V30 BEGIN BOND
M  V30 1 1 1 2
M  V30 2 1 2 3
M  V30 3 2 3 4
M  V30 4 1 4 5
M  V30 5 2 5 6
M  V30 6 1 6 7
M  V30 7 2 7 8
M  V30 8 1 8 9
M  V30 9 1 9 10
M  V30 10 2 10 11
M  V30 11 1 11 12
M  V30 12 2 12 13
M  V30 13 1 13 14
M  V30 14 2 14 15
M  V30 15 1 15 16
M  V30 16 2 16 17
M  V30 17 1 17 18
M  V30 18 1 18 19
M  V30 19 3 19 20
M  V30 20 2 18 21
M  V30 21 1 8 3
M  V30 22 1 21 10
M  V30 23 1 21 7
M  V30 24 1 16 11
M  V30 25 1 1 22
M  V30 26 1 1 23
M  V30 27 1 1 24
M  V30 28 1 4 25
M  V30 29 1 5 26
M  V30 30 1 6 27
M  V30 31 1 9 28
M  V30 32 1 12 29
M  V30 33 1 13 30
M  V30 34 1 15 31
M  V30 35 1 17 32
M  V30 END BOND
M  V30 END CTAB
M  END
>  <Dataset>  (460) 
ChEMBL_Kinases

>  <Ligand_Instance>  (460) 
nan

>  <PDB_ID>  (460) 
nan

>  <Standardized_SMILES>  (460) 
COc1cccc2c1[nH]c1c3ccncc3cc(C#N)c21

>  <Name>  (460) 
nan

>  <Pocket>  (460) 
nan

>  <ATP_Site>  (460) 
nan

>  <Peripheral>  (460) 
nan

>  <Num_H_Atoms_ProtBoundConf>  (460) 
nan

>  <Num_Resolved_Atoms>  (460) 
nan

>  <Num_Not_Resolved_Atoms>  (460) 
nan

$$$$
CHEMBL1738797
     RDKit          3D

  0  0  0  0  0  0  0  0  0  0999 V3000
M  V30 BEGIN CTAB
M  V30 COUNTS 70 75 0 0 0
M  V30 BEGIN ATOM
M  V30 1 C 1.141587 -3.334589 4.100308 0
M  V30 2 C 0.649818 -3.963929 2.825777 0
M  V30 3 C 0.591179 -3.016500 1.681454 0
M  V30 4 C 1.634581 -3.079993 0.754895 0
M  V30 5 C 1.673652 -2.237995 -0.329346 0
M  V30 6 C 0.694393 -1.292175 -0.561275 0
M  V30 7 C -0.317299 -1.280676 0.398940 0
M  V30 8 C -0.419009 -2.094976 1.508650 0
M  V30 9 N -1.514101 -1.980088 2.406622 0
M  V30 10 C -1.635090 -1.612134 3.807829 0
M  V30 11 C -2.865861 -0.848004 4.134091 0
M  V30 12 C -3.563059 -0.180681 3.002115 0
M  V30 13 N -3.031739 1.072904 2.574772 0
M  V30 14 C -2.968583 2.083631 3.609205 0
M  V30 15 C -2.445369 3.356819 2.984014 0
M  V30 16 O -3.112359 3.742519 1.837026 0
M  V30 17 C -4.267163 2.989917 1.691328 0
M  V30 18 C -3.849745 1.548602 1.456825 0
M  V30 19 C -3.688188 -1.074652 1.785495 0
M  V30 20 C -2.828496 -2.290541 1.875267 0
M  V30 21 C 0.613011 -0.336378 -1.670871 0
M  V30 22 C -0.688326 -0.381528 -2.417982 0
M  V30 23 C 0.769550 1.050556 -1.044328 0
M  V30 24 C 1.785926 -0.534769 -2.556483 0
M  V30 25 N 1.967533 0.213100 -3.663151 0
M  V30 26 C 3.104534 -0.192758 -4.256137 0
M  V30 27 C 3.804117 0.182099 -5.399660 0
M  V30 28 C 4.995000 -0.431116 -5.787244 0
M  V30 29 C 5.669189 -0.001802 -6.974497 0
M  V30 30 N 6.208754 0.339757 -7.952935 0
M  V30 31 C 5.494408 -1.449826 -5.000943 0
M  V30 32 C 4.858772 -1.870424 -3.862170 0
M  V30 33 C 3.686841 -1.218961 -3.540674 0
M  V30 34 C 2.839820 -1.420647 -2.471405 0
M  V30 35 C 2.759535 -2.296890 -1.303792 0
M  V30 36 O 3.680400 -3.142625 -1.140125 0
M  V30 37 H 0.442805 -3.543690 4.908118 0
M  V30 38 H 2.127733 -3.847519 4.325043 0
M  V30 39 H 1.322126 -2.259524 3.890674 0
M  V30 40 H 1.264838 -4.862679 2.528233 0
M  V30 41 H -0.358187 -4.399147 3.033966 0
M  V30 42 H 2.441869 -3.817339 0.893456 0
M  V30 43 H -1.115991 -0.561298 0.276435 0
M  V30 44 H -1.654320 -2.574969 4.359554 0
M  V30 45 H -0.714000 -1.066738 4.172467 0
M  V30 46 H -3.623545 -1.558765 4.583880 0
M  V30 47 H -2.649748 -0.113667 4.933319 0
M  V30 48 H -4.621100 0.030671 3.337467 0
M  V30 49 H -2.172614 1.754577 4.317884 0
M  V30 50 H -3.893464 2.219219 4.171662 0
M  V30 51 H -2.588367 4.209719 3.710720 0
M  V30 52 H -1.350836 3.284054 2.767786 0
M  V30 53 H -4.849289 3.313857 0.791286 0
M  V30 54 H -4.881940 3.032493 2.601432 0
M  V30 55 H -3.235402 1.452137 0.546788 0
M  V30 56 H -4.743072 0.899320 1.357001 0
M  V30 57 H -4.746559 -1.426559 1.624776 0
M  V30 58 H -3.431768 -0.549833 0.845957 0
M  V30 59 H -2.758470 -2.694649 0.822353 0
M  V30 60 H -3.289056 -3.058155 2.537485 0
M  V30 61 H -0.896935 -1.410657 -2.740194 0
M  V30 62 H -0.533929 0.218735 -3.347960 0
M  V30 63 H -1.495607 0.120476 -1.874854 0
M  V30 64 H 0.095189 1.110023 -0.147879 0
M  V30 65 H 1.816921 1.242075 -0.740393 0
M  V30 66 H 0.457936 1.843820 -1.731485 0
M  V30 67 H 1.422936 0.999668 -4.116785 0
M  V30 68 H 3.417324 0.982577 -6.022312 0
M  V30 69 H 6.423208 -1.949935 -5.276262 0
M  V30 70 H 5.224874 -2.667870 -3.222707 0
M  V30 END ATOM
M  V30 BEGIN BOND
M  V30 1 1 1 2
M  V30 2 1 2 3
M  V30 3 2 3 4
M  V30 4 1 4 5
M  V30 5 2 5 6
M  V30 6 1 6 7
M  V30 7 2 7 8
M  V30 8 1 8 9
M  V30 9 1 9 10
M  V30 10 1 10 11
M  V30 11 1 11 12
M  V30 12 1 12 13
M  V30 13 1 13 14
M  V30 14 1 14 15
M  V30 15 1 15 16
M  V30 16 1 16 17
M  V30 17 1 17 18
M  V30 18 1 12 19
M  V30 19 1 19 20
M  V30 20 1 6 21
M  V30 21 1 21 22
M  V30 22 1 21 23
M  V30 23 1 21 24
M  V30 24 1 24 25
M  V30 25 1 25 26
M  V30 26 2 26 27
M  V30 27 1 27 28
M  V30 28 1 28 29
M  V30 29 3 29 30
M  V30 30 2 28 31
M  V30 31 1 31 32
M  V30 32 2 32 33
M  V30 33 1 33 34
M  V30 34 1 34 35
M  V30 35 2 35 36
M  V30 36 1 8 3
M  V30 37 1 20 9
M  V30 38 2 34 24
M  V30 39 1 35 5
M  V30 40 1 18 13
M  V30 41 1 33 26
M  V30 42 1 1 37
M  V30 43 1 1 38
M  V30 44 1 1 39
M  V30 45 1 2 40
M  V30 46 1 2 41
M  V30 47 1 4 42
M  V30 48 1 7 43
M  V30 49 1 10 44
M  V30 50 1 10 45
M  V30 51 1 11 46
M  V30 52 1 11 47
M  V30 53 1 12 48
M  V30 54 1 14 49
M  V30 55 1 14 50
M  V30 56 1 15 51
M  V30 57 1 15 52
M  V30 58 1 17 53
M  V30 59 1 17 54
M  V30 60 1 18 55
M  V30 61 1 18 56
M  V30 62 1 19 57
M  V30 63 1 19 58
M  V30 64 1 20 59
M  V30 65 1 20 60
M  V30 66 1 22 61
M  V30 67 1 22 62
M  V30 68 1 22 63
M  V30 69 1 23 64
M  V30 70 1 23 65
M  V30 71 1 23 66
M  V30 72 1 25 67
M  V30 73 1 27 68
M  V30 74 1 31 69
M  V30 75 1 32 70
M  V30 END BOND
M  V30 END CTAB
M  END
>  <Dataset>  (461) 
ChEMBL_Kinases

>  <Ligand_Instance>  (461) 
nan

>  <PDB_ID>  (461) 
nan

>  <Standardized_SMILES>  (461) 
CCc1cc2c(cc1N1CCC(N3CCOCC3)CC1)C(C)(C)c1[nH]c3cc(C#N)ccc3c1C2=O

>  <Name>  (461) 
ALECTINIB

>  <Pocket>  (461) 
nan

>  <ATP_Site>  (461) 
nan

>  <Peripheral>  (461) 
nan

>  <Num_H_Atoms_ProtBoundConf>  (461) 
nan

>  <Num_Resolved_Atoms>  (461) 
nan

>  <Num_Not_Resolved_Atoms>  (461) 
nan

$$$$
CHEMBL4064291
     RDKit          3D

  0  0  0  0  0  0  0  0  0  0999 V3000
M  V30 BEGIN CTAB
M  V30 COUNTS 54 58 0 0 0
M  V30 BEGIN ATOM
M  V30 1 C 4.177997 2.886516 1.753878 0
M  V30 2 N 3.222970 1.918234 1.223802 0
M  V30 3 C 2.002544 2.003929 2.012067 0
M  V30 4 C 3.775834 0.572873 1.306036 0
M  V30 5 C 2.800309 -0.407417 0.771144 0
M  V30 6 C 1.862252 -0.966763 1.609493 0
M  V30 7 C 0.965487 -1.880555 1.117869 0
M  V30 8 C 0.928645 -2.302029 -0.208922 0
M  V30 9 C 0.004457 -3.258509 -0.642892 0
M  V30 10 C -1.024806 -3.751953 0.293232 0
M  V30 11 C -1.938640 -3.017137 0.959062 0
M  V30 12 C -2.301445 -1.586055 1.053174 0
M  V30 13 C -2.554418 -0.826560 2.173302 0
M  V30 14 N -2.855368 0.420080 1.775484 0
M  V30 15 C -3.193372 1.581357 2.603454 0
M  V30 16 C -2.816875 0.538446 0.423948 0
M  V30 17 C -3.054597 1.606828 -0.436896 0
M  V30 18 C -2.944957 1.424542 -1.812776 0
M  V30 19 C -2.600814 0.181638 -2.297565 0
M  V30 20 C -2.378231 -0.831547 -1.398208 0
M  V30 21 C -2.465186 -0.735940 -0.038093 0
M  V30 22 C -2.758122 -3.932648 1.773731 0
M  V30 23 O -3.722415 -3.743735 2.557684 0
M  V30 24 N -2.298276 -5.277451 1.572780 0
M  V30 25 C -1.212550 -5.153219 0.642675 0
M  V30 26 O -0.515047 -6.090457 0.184777 0
M  V30 27 C 0.071743 -3.634173 -1.972014 0
M  V30 28 Cl -1.071744 -4.830620 -2.529939 0
M  V30 29 C 1.002792 -3.089896 -2.829173 0
M  V30 30 C 1.914135 -2.137611 -2.383641 0
M  V30 31 C 1.879875 -1.739227 -1.065775 0
M  V30 32 C 2.778280 -0.814297 -0.546936 0
M  V30 33 H 4.874278 3.189162 0.977946 0
M  V30 34 H 3.584397 3.770963 2.065232 0
M  V30 35 H 4.681403 2.388955 2.613141 0
M  V30 36 H 1.182643 1.377990 1.645293 0
M  V30 37 H 2.277119 1.621085 3.034167 0
M  V30 38 H 1.631696 3.044173 2.065254 0
M  V30 39 H 3.967190 0.311597 2.363917 0
M  V30 40 H 4.745413 0.535568 0.754179 0
M  V30 41 H 1.843921 -0.685144 2.655491 0
M  V30 42 H 0.282538 -2.281486 1.852102 0
M  V30 43 H -2.515295 -1.184244 3.197370 0
M  V30 44 H -2.556962 2.419628 2.209602 0
M  V30 45 H -4.241645 1.884021 2.426658 0
M  V30 46 H -3.041089 1.413124 3.673113 0
M  V30 47 H -3.329141 2.591500 -0.042735 0
M  V30 48 H -3.140494 2.287358 -2.438445 0
M  V30 49 H -2.518009 0.054992 -3.368714 0
M  V30 50 H -2.123422 -1.772210 -1.837216 0
M  V30 51 H -2.623924 -6.189453 1.974635 0
M  V30 52 H 1.041205 -3.394078 -3.865186 0
M  V30 53 H 2.663787 -1.677460 -3.011192 0
M  V30 54 H 3.524893 -0.356139 -1.180677 0
M  V30 END ATOM
M  V30 BEGIN BOND
M  V30 1 1 1 2
M  V30 2 1 2 3
M  V30 3 1 2 4
M  V30 4 1 4 5
M  V30 5 2 5 6
M  V30 6 1 6 7
M  V30 7 2 7 8
M  V30 8 1 8 9
M  V30 9 1 9 10
M  V30 10 2 10 11
M  V30 11 1 11 12
M  V30 12 2 12 13
M  V30 13 1 13 14
M  V30 14 1 14 15
M  V30 15 1 14 16
M  V30 16 2 16 17
M  V30 17 1 17 18
M  V30 18 2 18 19
M  V30 19 1 19 20
M  V30 20 2 20 21
M  V30 21 1 11 22
M  V30 22 2 22 23
M  V30 23 1 22 24
M  V30 24 1 24 25
M  V30 25 2 25 26
M  V30 26 2 9 27
M  V30 27 1 27 28
M  V30 28 1 27 29
M  V30 29 2 29 30
M  V30 30 1 30 31
M  V30 31 2 31 32
M  V30 32 1 32 5
M  V30 33 1 31 8
M  V30 34 1 25 10
M  V30 35 1 21 12
M  V30 36 1 21 16
M  V30 37 1 1 33
M  V30 38 1 1 34
M  V30 39 1 1 35
M  V30 40 1 3 36
M  V30 41 1 3 37
M  V30 42 1 3 38
M  V30 43 1 4 39
M  V30 44 1 4 40
M  V30 45 1 6 41
M  V30 46 1 7 42
M  V30 47 1 13 43
M  V30 48 1 15 44
M  V30 49 1 15 45
M  V30 50 1 15 46
M  V30 51 1 17 47
M  V30 52 1 18 48
M  V30 53 1 19 49
M  V30 54 1 20 50
M  V30 55 1 24 51
M  V30 56 1 29 52
M  V30 57 1 30 53
M  V30 58 1 32 54
M  V30 END BOND
M  V30 END CTAB
M  END
>  <Dataset>  (462) 
ChEMBL_Kinases

>  <Ligand_Instance>  (462) 
nan

>  <PDB_ID>  (462) 
nan

>  <Standardized_SMILES>  (462) 
CN(C)Cc1ccc2c(C3=C(c4cn(C)c5ccccc45)C(=O)NC3=O)c(Cl)ccc2c1

>  <Name>  (462) 
nan

>  <Pocket>  (462) 
nan

>  <ATP_Site>  (462) 
nan

>  <Peripheral>  (462) 
nan

>  <Num_H_Atoms_ProtBoundConf>  (462) 
nan

>  <Num_Resolved_Atoms>  (462) 
nan

>  <Num_Not_Resolved_Atoms>  (462) 
nan

$$$$
CHEMBL1877990
     RDKit          3D

  0  0  0  0  0  0  0  0  0  0999 V3000
M  V30 BEGIN CTAB
M  V30 COUNTS 37 40 0 0 0
M  V30 BEGIN ATOM
M  V30 1 C 0.949973 -3.127612 3.249409 0
M  V30 2 C 0.057561 -3.494709 2.271859 0
M  V30 3 N 0.305915 -3.384616 0.949314 0
M  V30 4 C 1.479959 -2.893100 0.489546 0
M  V30 5 C 2.448871 -2.494056 1.409749 0
M  V30 6 C 3.794489 -1.925921 1.039434 0
M  V30 7 N 3.705586 -0.490612 0.935417 0
M  V30 8 C 2.991980 0.427046 0.129225 0
M  V30 9 N 3.524692 1.340734 -0.700874 0
M  V30 10 C 2.725725 2.159069 -1.417951 0
M  V30 11 C 1.366551 2.015726 -1.262816 0
M  V30 12 C 0.792811 1.087663 -0.419921 0
M  V30 13 C -0.647477 0.931142 -0.273428 0
M  V30 14 C -1.606925 1.679498 -0.918792 0
M  V30 15 C -2.967827 1.507386 -0.772229 0
M  V30 16 C -3.352224 0.509285 0.086232 0
M  V30 17 C -2.465323 -0.293693 0.778907 0
M  V30 18 C -1.125170 -0.049829 0.570868 0
M  V30 19 O -3.203087 -1.200455 1.558155 0
M  V30 20 C -4.502632 -1.279461 0.954635 0
M  V30 21 O -4.624353 0.061718 0.468738 0
M  V30 22 N 1.654422 0.291208 0.277350 0
M  V30 23 C 2.149591 -2.625517 2.757351 0
M  V30 24 H 0.755436 -3.212421 4.314628 0
M  V30 25 H -0.902481 -3.896152 2.541624 0
M  V30 26 H 1.743274 -2.778467 -0.551648 0
M  V30 27 H 4.067619 -2.368585 0.076958 0
M  V30 28 H 4.500843 -2.232219 1.820087 0
M  V30 29 H 4.276303 0.098747 1.575705 0
M  V30 30 H 3.129585 2.900308 -2.088264 0
M  V30 31 H 0.741504 2.681425 -1.845437 0
M  V30 32 H -1.263156 2.458311 -1.586443 0
M  V30 33 H -3.664406 2.137618 -1.313525 0
M  V30 34 H -0.414240 -0.658930 1.094131 0
M  V30 35 H -4.459301 -1.981247 0.086249 0
M  V30 36 H -5.282753 -1.549119 1.680301 0
M  V30 37 H 2.916314 -2.306590 3.478426 0
M  V30 END ATOM
M  V30 BEGIN BOND
M  V30 1 2 1 2
M  V30 2 1 2 3
M  V30 3 2 3 4
M  V30 4 1 4 5
M  V30 5 1 5 6
M  V30 6 1 6 7
M  V30 7 1 7 8
M  V30 8 2 8 9
M  V30 9 1 9 10
M  V30 10 2 10 11
M  V30 11 1 11 12
M  V30 12 1 12 13
M  V30 13 2 13 14
M  V30 14 1 14 15
M  V30 15 2 15 16
M  V30 16 1 16 17
M  V30 17 2 17 18
M  V30 18 1 17 19
M  V30 19 1 19 20
M  V30 20 1 20 21
M  V30 21 2 12 22
M  V30 22 2 5 23
M  V30 23 1 23 1
M  V30 24 1 22 8
M  V30 25 1 18 13
M  V30 26 1 21 16
M  V30 27 1 1 24
M  V30 28 1 2 25
M  V30 29 1 4 26
M  V30 30 1 6 27
M  V30 31 1 6 28
M  V30 32 1 7 29
M  V30 33 1 10 30
M  V30 34 1 11 31
M  V30 35 1 14 32
M  V30 36 1 15 33
M  V30 37 1 18 34
M  V30 38 1 20 35
M  V30 39 1 20 36
M  V30 40 1 23 37
M  V30 END BOND
M  V30 END CTAB
M  END
>  <Dataset>  (463) 
ChEMBL_Kinases

>  <Ligand_Instance>  (463) 
nan

>  <PDB_ID>  (463) 
nan

>  <Standardized_SMILES>  (463) 
c1cncc(CNc2nccc(-c3ccc4c(c3)OCO4)n2)c1

>  <Name>  (463) 
nan

>  <Pocket>  (463) 
nan

>  <ATP_Site>  (463) 
nan

>  <Peripheral>  (463) 
nan

>  <Num_H_Atoms_ProtBoundConf>  (463) 
nan

>  <Num_Resolved_Atoms>  (463) 
nan

>  <Num_Not_Resolved_Atoms>  (463) 
nan

$$$$
CHEMBL207544
     RDKit          3D

  0  0  0  0  0  0  0  0  0  0999 V3000
M  V30 BEGIN CTAB
M  V30 COUNTS 54 58 0 0 0
M  V30 BEGIN ATOM
M  V30 1 C 1.014484 -6.137725 3.516285 0
M  V30 2 C 1.473490 -5.134171 3.010580 0
M  V30 3 C 2.008262 -3.938344 2.434261 0
M  V30 4 N 3.211803 -3.412065 2.806330 0
M  V30 5 C 3.654722 -2.269072 2.216649 0
M  V30 6 C 2.938798 -1.581282 1.229326 0
M  V30 7 O 3.685177 -0.503269 0.883589 0
M  V30 8 C 3.428732 0.508920 -0.041069 0
M  V30 9 C 2.223246 1.324034 0.262118 0 CFG=1
M  V30 10 N 2.364802 1.979450 1.572602 0
M  V30 11 C 1.993307 2.413720 -0.787152 0
M  V30 12 C 0.771759 3.165034 -0.390562 0
M  V30 13 C 0.801619 4.424765 0.188072 0
M  V30 14 N -0.433326 4.886969 0.451543 0
M  V30 15 C -1.271335 3.907603 0.035190 0
M  V30 16 C -2.667848 3.853121 0.067213 0
M  V30 17 C -3.296466 2.711531 -0.432570 0
M  V30 18 C -2.543308 1.661559 -0.946822 0
M  V30 19 C -1.163150 1.714551 -0.978870 0
M  V30 20 C -0.563079 2.835733 -0.487285 0
M  V30 21 C 1.732057 -2.144155 0.882564 0
M  V30 22 C 1.261305 -3.298600 1.463354 0
M  V30 23 C -0.022198 -3.735680 0.963982 0
M  V30 24 C -0.241065 -5.047865 0.617401 0
M  V30 25 C -1.445417 -5.527490 0.137463 0
M  V30 26 C -2.509809 -4.668953 -0.015261 0
M  V30 27 C -3.712544 -5.130678 -0.491638 0
M  V30 28 N -4.776139 -4.293955 -0.649529 0
M  V30 29 C -4.643664 -2.980022 -0.329769 0
M  V30 30 C -3.422830 -2.515213 0.152956 0
M  V30 31 C -2.335684 -3.349240 0.318734 0
M  V30 32 C -1.110261 -2.887308 0.801622 0
M  V30 33 H 0.612484 -7.014899 3.964154 0
M  V30 34 H 4.628161 -2.052472 2.677976 0
M  V30 35 H 3.288421 0.065210 -1.056295 0
M  V30 36 H 4.325721 1.176796 -0.156597 0
M  V30 37 H 1.294410 0.762853 0.307543 0
M  V30 38 H 1.441121 2.015301 2.076533 0
M  V30 39 H 3.005885 1.418327 2.174409 0
M  V30 40 H 2.851828 3.079498 -0.898417 0
M  V30 41 H 1.775525 1.958945 -1.770977 0
M  V30 42 H 1.707229 4.981116 0.407157 0
M  V30 43 H -0.652395 5.809933 0.885561 0
M  V30 44 H -3.187488 4.704384 0.480169 0
M  V30 45 H -4.365698 2.773281 -0.360321 0
M  V30 46 H -3.103299 0.812946 -1.314831 0
M  V30 47 H -0.585271 0.902645 -1.376293 0
M  V30 48 H 1.256642 -1.558537 0.116315 0
M  V30 49 H 0.512531 -5.809385 0.690720 0
M  V30 50 H -1.613106 -6.563106 -0.134034 0
M  V30 51 H -3.860743 -6.174627 -0.759131 0
M  V30 52 H -5.483095 -2.330982 -0.456658 0
M  V30 53 H -3.350610 -1.467141 0.397380 0
M  V30 54 H -1.012732 -1.845442 1.053031 0
M  V30 END ATOM
M  V30 BEGIN BOND
M  V30 1 3 1 2
M  V30 2 1 2 3
M  V30 3 2 3 4
M  V30 4 1 4 5
M  V30 5 2 5 6
M  V30 6 1 6 7
M  V30 7 1 7 8
M  V30 8 1 8 9
M  V30 9 1 9 10
M  V30 10 1 9 11
M  V30 11 1 11 12
M  V30 12 2 12 13
M  V30 13 1 13 14
M  V30 14 1 14 15
M  V30 15 2 15 16
M  V30 16 1 16 17
M  V30 17 2 17 18
M  V30 18 1 18 19
M  V30 19 2 19 20
M  V30 20 1 6 21
M  V30 21 2 21 22
M  V30 22 1 22 23
M  V30 23 2 23 24
M  V30 24 1 24 25
M  V30 25 2 25 26
M  V30 26 1 26 27
M  V30 27 2 27 28
M  V30 28 1 28 29
M  V30 29 2 29 30
M  V30 30 1 30 31
M  V30 31 2 31 32
M  V30 32 1 22 3
M  V30 33 1 32 23
M  V30 34 1 20 12
M  V30 35 1 31 26
M  V30 36 1 20 15
M  V30 37 1 1 33
M  V30 38 1 5 34
M  V30 39 1 8 35
M  V30 40 1 8 36
M  V30 41 1 9 37 CFG=1
M  V30 42 1 10 38
M  V30 43 1 10 39
M  V30 44 1 11 40
M  V30 45 1 11 41
M  V30 46 1 13 42
M  V30 47 1 14 43
M  V30 48 1 16 44
M  V30 49 1 17 45
M  V30 50 1 18 46
M  V30 51 1 19 47
M  V30 52 1 21 48
M  V30 53 1 24 49
M  V30 54 1 25 50
M  V30 55 1 27 51
M  V30 56 1 29 52
M  V30 57 1 30 53
M  V30 58 1 32 54
M  V30 END BOND
M  V30 END CTAB
M  END
>  <Dataset>  (464) 
ChEMBL_Kinases

>  <Ligand_Instance>  (464) 
nan

>  <PDB_ID>  (464) 
nan

>  <Standardized_SMILES>  (464) 
C#Cc1ncc(OC[C@@H](N)Cc2c[nH]c3ccccc23)cc1-c1ccc2cnccc2c1

>  <Name>  (464) 
nan

>  <Pocket>  (464) 
nan

>  <ATP_Site>  (464) 
nan

>  <Peripheral>  (464) 
nan

>  <Num_H_Atoms_ProtBoundConf>  (464) 
nan

>  <Num_Resolved_Atoms>  (464) 
nan

>  <Num_Not_Resolved_Atoms>  (464) 
nan

$$$$
CHEMBL52529
     RDKit          3D

  0  0  0  0  0  0  0  0  0  0999 V3000
M  V30 BEGIN CTAB
M  V30 COUNTS 61 64 0 0 0
M  V30 BEGIN ATOM
M  V30 1 O 1.884069 -1.413853 4.035028 0
M  V30 2 C 2.246301 -0.238471 3.748105 0
M  V30 3 N 3.267356 -0.203819 2.764588 0
M  V30 4 C 3.975888 -1.197054 2.027646 0 CFG=2
M  V30 5 C 5.478579 -1.116893 2.221647 0
M  V30 6 C 5.976559 -1.981349 1.081679 0
M  V30 7 C 4.941418 -1.845547 -0.016818 0
M  V30 8 C 3.840764 -0.972426 0.544278 0 CFG=1
M  V30 9 O 2.576300 -1.319162 0.029095 0
M  V30 10 C 1.823555 -0.276769 -0.545339 0
M  V30 11 O 2.275450 0.895566 -0.585858 0
M  V30 12 C 0.518281 -0.590385 -1.086937 0
M  V30 13 C -0.193002 0.425247 -1.633332 0
M  V30 14 C -1.458257 0.215554 -2.177500 0
M  V30 15 O -2.105350 1.322122 -2.713534 0
M  V30 16 C -2.026846 -1.035747 -2.176027 0
M  V30 17 C -3.293045 -1.294130 -2.806213 0
M  V30 18 O -3.434737 -0.357719 -3.676999 0
M  V30 19 C -4.398293 -2.179866 -2.816334 0
M  V30 20 C -5.018208 -2.312694 -4.066494 0
M  V30 21 O -4.596323 -1.655491 -5.235605 0
M  V30 22 C -6.138701 -3.121208 -4.303348 0
M  V30 23 C -6.608106 -3.796276 -3.203482 0
M  V30 24 C -6.065577 -3.721589 -1.947679 0
M  V30 25 C -4.968812 -2.903154 -1.801222 0
M  V30 26 C -4.528212 -2.713886 -0.412247 0
M  V30 27 O -3.726731 -1.964891 0.197817 0
M  V30 28 O -4.990567 -3.445946 0.653216 0
M  V30 29 C -1.231988 -2.021906 -1.599053 0
M  V30 30 O -1.657068 -3.357570 -1.523572 0
M  V30 31 C 0.012249 -1.865610 -1.052739 0
M  V30 32 C 1.723512 0.998592 4.318626 0
M  V30 33 C 2.093336 2.291625 4.022405 0
M  V30 34 C 1.495000 3.357097 4.659106 0
M  V30 35 C 0.507995 3.207637 5.614333 0
M  V30 36 O -0.085278 4.288884 6.246977 0
M  V30 37 C 0.163811 1.884437 5.884049 0
M  V30 38 C 0.739022 0.793692 5.268601 0
M  V30 39 H 3.665440 0.701569 2.429588 0
M  V30 40 H 3.690801 -2.245006 2.240228 0
M  V30 41 H 5.778387 -0.065709 2.035419 0
M  V30 42 H 5.803328 -1.497000 3.206543 0
M  V30 43 H 6.004936 -3.048981 1.389357 0
M  V30 44 H 6.970224 -1.634566 0.729472 0
M  V30 45 H 4.458028 -2.826322 -0.272585 0
M  V30 46 H 5.417753 -1.398932 -0.907404 0
M  V30 47 H 4.039431 0.124627 0.397188 0
M  V30 48 H 0.215160 1.441223 -1.659158 0
M  V30 49 H -1.951557 2.242060 -2.305303 0
M  V30 50 H -5.052898 -0.751573 -5.405568 0
M  V30 51 H -6.612739 -3.220930 -5.267349 0
M  V30 52 H -7.467275 -4.434954 -3.330874 0
M  V30 53 H -6.482165 -4.277726 -1.123857 0
M  V30 54 H -4.364810 -3.916263 1.280469 0
M  V30 55 H -2.156592 -3.731216 -2.327493 0
M  V30 56 H 0.614359 -2.627561 -0.610905 0
M  V30 57 H 2.870307 2.376564 3.267766 0
M  V30 58 H 1.839477 4.325862 4.371612 0
M  V30 59 H -1.084534 4.497527 6.154099 0
M  V30 60 H -0.614349 1.729335 6.635309 0
M  V30 61 H 0.377131 -0.199689 5.572011 0
M  V30 END ATOM
M  V30 BEGIN BOND
M  V30 1 2 1 2
M  V30 2 1 2 3
M  V30 3 1 3 4
M  V30 4 1 4 5
M  V30 5 1 5 6
M  V30 6 1 6 7
M  V30 7 1 7 8
M  V30 8 1 8 9
M  V30 9 1 9 10
M  V30 10 2 10 11
M  V30 11 1 10 12
M  V30 12 2 12 13
M  V30 13 1 13 14
M  V30 14 1 14 15
M  V30 15 2 14 16
M  V30 16 1 16 17
M  V30 17 2 17 18
M  V30 18 1 17 19
M  V30 19 2 19 20
M  V30 20 1 20 21
M  V30 21 1 20 22
M  V30 22 2 22 23
M  V30 23 1 23 24
M  V30 24 2 24 25
M  V30 25 1 25 26
M  V30 26 2 26 27
M  V30 27 1 26 28
M  V30 28 1 16 29
M  V30 29 1 29 30
M  V30 30 2 29 31
M  V30 31 1 2 32
M  V30 32 2 32 33
M  V30 33 1 33 34
M  V30 34 2 34 35
M  V30 35 1 35 36
M  V30 36 1 35 37
M  V30 37 2 37 38
M  V30 38 1 8 4
M  V30 39 1 31 12
M  V30 40 1 38 32
M  V30 41 1 25 19
M  V30 42 1 3 39
M  V30 43 1 4 40 CFG=3
M  V30 44 1 5 41
M  V30 45 1 5 42
M  V30 46 1 6 43
M  V30 47 1 6 44
M  V30 48 1 7 45
M  V30 49 1 7 46
M  V30 50 1 8 47 CFG=1
M  V30 51 1 13 48
M  V30 52 1 15 49
M  V30 53 1 21 50
M  V30 54 1 22 51
M  V30 55 1 23 52
M  V30 56 1 24 53
M  V30 57 1 28 54
M  V30 58 1 30 55
M  V30 59 1 31 56
M  V30 60 1 33 57
M  V30 61 1 34 58
M  V30 62 1 36 59
M  V30 63 1 37 60
M  V30 64 1 38 61
M  V30 END BOND
M  V30 END CTAB
M  END
>  <Dataset>  (465) 
ChEMBL_Kinases

>  <Ligand_Instance>  (465) 
nan

>  <PDB_ID>  (465) 
nan

>  <Standardized_SMILES>  (465) 
O=C(N[C@@H]1CCC[C@H]1OC(=O)c1cc(O)c(C(=O)c2c(O)cccc2C(=O)O)c(O)c1)c1ccc(O)cc1

>  <Name>  (465) 
nan

>  <Pocket>  (465) 
nan

>  <ATP_Site>  (465) 
nan

>  <Peripheral>  (465) 
nan

>  <Num_H_Atoms_ProtBoundConf>  (465) 
nan

>  <Num_Resolved_Atoms>  (465) 
nan

>  <Num_Not_Resolved_Atoms>  (465) 
nan

$$$$
CHEMBL27768
     RDKit          3D

  0  0  0  0  0  0  0  0  0  0999 V3000
M  V30 BEGIN CTAB
M  V30 COUNTS 76 79 0 0 0
M  V30 BEGIN ATOM
M  V30 1 C 3.805349 -2.964321 3.302235 0
M  V30 2 C 4.266687 -3.487689 1.980094 0
M  V30 3 C 3.094553 -3.781548 1.061743 0
M  V30 4 C 2.366257 -2.496516 0.873030 0
M  V30 5 O 2.939851 -1.562336 1.525363 0
M  V30 6 O 1.220025 -2.454377 0.063846 0
M  V30 7 C 0.496318 -1.278777 -0.147140 0 CFG=2
M  V30 8 C -0.799052 -1.268576 0.670245 0 CFG=1
M  V30 9 C -0.371133 -1.811635 2.043455 0
M  V30 10 C -1.229148 0.140594 0.684116 0 CFG=1
M  V30 11 O -0.084390 0.940821 0.898827 0
M  V30 12 C -1.669151 0.476863 -0.724242 0 CFG=1
M  V30 13 C -2.127621 1.891951 -0.652827 0
M  V30 14 C -3.282314 2.278811 -0.066232 0
M  V30 15 C -3.527698 3.744034 -0.118288 0
M  V30 16 O -2.512812 4.425046 -0.764005 0
M  V30 17 C -4.351349 1.496779 0.620121 0
M  V30 18 C -3.679047 0.318495 1.296599 0 CFG=2
M  V30 19 O -3.934918 -0.890140 0.697558 0
M  V30 20 C -4.301077 0.209643 2.663795 0
M  V30 21 O -5.556220 0.308704 2.813680 0
M  V30 22 C -3.233623 -0.009779 3.646806 0
M  V30 23 C -3.632178 -0.410086 5.022722 0
M  V30 24 C -2.078480 0.215497 3.038667 0
M  V30 25 C -2.250844 0.594133 1.638287 0 CFG=1
M  V30 26 C -0.661820 0.225984 -1.770510 0 CFG=2
M  V30 27 C -0.616311 -1.037286 -2.504353 0
M  V30 28 C -1.515057 -2.192709 -2.292598 0
M  V30 29 C -0.269423 -0.860730 -3.985600 0
M  V30 30 C 0.423002 -0.704917 -1.494183 0 CFG=2
M  V30 31 O 1.693298 -0.554990 -2.111776 0
M  V30 32 C 2.429385 -1.677635 -2.417222 0
M  V30 33 O 2.175361 -2.895216 -2.259205 0
M  V30 34 C 3.758530 -1.455484 -3.042572 0
M  V30 35 C 4.902178 -1.536076 -2.077978 0
M  V30 36 C 4.705029 -0.474488 -1.018760 0
M  V30 37 H 2.718339 -2.955556 3.410087 0
M  V30 38 H 4.167801 -1.912416 3.481080 0
M  V30 39 H 4.297552 -3.555477 4.114196 0
M  V30 40 H 4.876456 -2.697903 1.488428 0
M  V30 41 H 4.927041 -4.372464 2.096719 0
M  V30 42 H 3.431550 -4.180245 0.106494 0
M  V30 43 H 2.444476 -4.492474 1.614693 0
M  V30 44 H 1.090525 -0.488950 0.439557 0
M  V30 45 H -1.559851 -1.955326 0.332491 0
M  V30 46 H 0.405656 -1.212833 2.514243 0
M  V30 47 H -1.232761 -2.089423 2.670021 0
M  V30 48 H 0.104455 -2.807900 1.796124 0
M  V30 49 H -0.269522 1.727874 1.438792 0
M  V30 50 H -2.576090 -0.109633 -1.031707 0
M  V30 51 H -1.496132 2.653774 -1.098093 0
M  V30 52 H -4.507229 4.010210 -0.555966 0
M  V30 53 H -3.510983 4.116191 0.944121 0
M  V30 54 H -2.617787 4.421994 -1.743456 0
M  V30 55 H -4.862305 2.154019 1.346732 0
M  V30 56 H -5.057437 1.073665 -0.124208 0
M  V30 57 H -4.666447 -0.872156 0.052334 0
M  V30 58 H -4.062648 0.443589 5.598498 0
M  V30 59 H -2.791760 -0.902791 5.553659 0
M  V30 60 H -4.445181 -1.176629 4.996097 0
M  V30 61 H -1.228954 0.077208 3.693943 0
M  V30 62 H -2.180422 1.727071 1.639916 0
M  V30 63 H -0.326488 1.182548 -2.268592 0
M  V30 64 H -2.508542 -1.971976 -1.856050 0
M  V30 65 H -1.794306 -2.753657 -3.238181 0
M  V30 66 H -0.943403 -2.977345 -1.732522 0
M  V30 67 H -0.219666 -1.819172 -4.510512 0
M  V30 68 H 0.615796 -0.229724 -4.078916 0
M  V30 69 H -1.120130 -0.298281 -4.453410 0
M  V30 70 H 3.788295 -0.453543 -3.561641 0
M  V30 71 H 3.928930 -2.183349 -3.860283 0
M  V30 72 H 4.967483 -2.557419 -1.651143 0
M  V30 73 H 5.834121 -1.381844 -2.651092 0
M  V30 74 H 5.278923 0.414531 -1.353461 0
M  V30 75 H 5.088805 -0.885118 -0.061688 0
M  V30 76 H 3.652287 -0.150940 -0.903545 0
M  V30 END ATOM
M  V30 BEGIN BOND
M  V30 1 1 1 2
M  V30 2 1 2 3
M  V30 3 1 3 4
M  V30 4 2 4 5
M  V30 5 1 4 6
M  V30 6 1 6 7
M  V30 7 1 7 8
M  V30 8 1 8 9
M  V30 9 1 8 10
M  V30 10 1 10 11 CFG=1
M  V30 11 1 10 12
M  V30 12 1 12 13
M  V30 13 2 13 14
M  V30 14 1 14 15
M  V30 15 1 15 16
M  V30 16 1 14 17
M  V30 17 1 17 18
M  V30 18 1 18 19 CFG=3
M  V30 19 1 18 20
M  V30 20 2 20 21
M  V30 21 1 20 22
M  V30 22 1 22 23
M  V30 23 2 22 24
M  V30 24 1 24 25
M  V30 25 1 12 26
M  V30 26 1 26 27
M  V30 27 1 27 28
M  V30 28 1 27 29
M  V30 29 1 27 30
M  V30 30 1 30 31 CFG=3
M  V30 31 1 31 32
M  V30 32 2 32 33
M  V30 33 1 32 34
M  V30 34 1 34 35
M  V30 35 1 35 36
M  V30 36 1 30 7
M  V30 37 1 25 10
M  V30 38 1 30 26
M  V30 39 1 25 18
M  V30 40 1 1 37
M  V30 41 1 1 38
M  V30 42 1 1 39
M  V30 43 1 2 40
M  V30 44 1 2 41
M  V30 45 1 3 42
M  V30 46 1 3 43
M  V30 47 1 7 44 CFG=1
M  V30 48 1 8 45 CFG=3
M  V30 49 1 9 46
M  V30 50 1 9 47
M  V30 51 1 9 48
M  V30 52 1 11 49
M  V30 53 1 12 50 CFG=3
M  V30 54 1 13 51
M  V30 55 1 15 52
M  V30 56 1 15 53
M  V30 57 1 16 54
M  V30 58 1 17 55
M  V30 59 1 17 56
M  V30 60 1 19 57
M  V30 61 1 23 58
M  V30 62 1 23 59
M  V30 63 1 23 60
M  V30 64 1 24 61
M  V30 65 1 25 62 CFG=1
M  V30 66 1 26 63 CFG=3
M  V30 67 1 28 64
M  V30 68 1 28 65
M  V30 69 1 28 66
M  V30 70 1 29 67
M  V30 71 1 29 68
M  V30 72 1 29 69
M  V30 73 1 34 70
M  V30 74 1 34 71
M  V30 75 1 35 72
M  V30 76 1 35 73
M  V30 77 1 36 74
M  V30 78 1 36 75
M  V30 79 1 36 76
M  V30 END BOND
M  V30 END CTAB
M  END
>  <Dataset>  (466) 
ChEMBL_Kinases

>  <Ligand_Instance>  (466) 
nan

>  <PDB_ID>  (466) 
nan

>  <Standardized_SMILES>  (466) 
CCCC(=O)O[C@@H]1[C@@H](C)[C@@]2(O)[C@@H](C=C(CO)C[C@]3(O)C(=O)C(C)=C[C@@H]23)[C@@H]2C(C)(C)[C@]12OC(=O)CCC

>  <Name>  (466) 
nan

>  <Pocket>  (466) 
nan

>  <ATP_Site>  (466) 
nan

>  <Peripheral>  (466) 
nan

>  <Num_H_Atoms_ProtBoundConf>  (466) 
nan

>  <Num_Resolved_Atoms>  (466) 
nan

>  <Num_Not_Resolved_Atoms>  (466) 
nan

$$$$
CHEMBL28
     RDKit          3D

  0  0  0  0  0  0  0  0  0  0999 V3000
M  V30 BEGIN CTAB
M  V30 COUNTS 30 32 0 0 0
M  V30 BEGIN ATOM
M  V30 1 O -3.260045 0.099207 1.462197 0
M  V30 2 C -2.038215 -0.124458 1.351047 0
M  V30 3 C -1.419957 -0.499362 0.167882 0
M  V30 4 C -0.061458 -0.734397 0.103065 0
M  V30 5 C 0.618960 -1.129893 -1.125441 0
M  V30 6 C 1.982814 -1.336659 -1.064792 0
M  V30 7 C 2.733103 -1.717974 -2.183516 0
M  V30 8 C 2.037637 -1.879363 -3.363332 0
M  V30 9 O 2.788352 -2.260370 -4.480432 0
M  V30 10 C 0.676930 -1.686976 -3.483700 0
M  V30 11 C 0.007111 -1.312091 -2.336555 0
M  V30 12 O 0.671569 -0.602284 1.182982 0
M  V30 13 C 0.135532 -0.244089 2.351540 0
M  V30 14 C 1.012450 -0.139345 3.413928 0
M  V30 15 C 0.522719 0.223242 4.633666 0
M  V30 16 O 1.213655 0.393653 5.849138 0
M  V30 17 C -0.837106 0.483640 4.806775 0
M  V30 18 C -1.675616 0.363583 3.705226 0
M  V30 19 O -3.053861 0.618472 3.841771 0
M  V30 20 C -1.219614 -0.000626 2.454982 0
M  V30 21 H -2.026561 -0.602056 -0.697248 0
M  V30 22 H 2.569297 -1.217431 -0.142485 0
M  V30 23 H 3.801590 -1.878453 -2.129499 0
M  V30 24 H 3.609016 -2.868229 -4.392059 0
M  V30 25 H 0.141700 -1.813472 -4.401555 0
M  V30 26 H -1.060881 -1.154806 -2.404004 0
M  V30 27 H 2.060388 -0.310818 3.406222 0
M  V30 28 H 2.226201 0.372033 5.807471 0
M  V30 29 H -1.324977 0.778713 5.737123 0
M  V30 30 H -3.627858 0.163467 4.512508 0
M  V30 END ATOM
M  V30 BEGIN BOND
M  V30 1 2 1 2
M  V30 2 1 2 3
M  V30 3 2 3 4
M  V30 4 1 4 5
M  V30 5 2 5 6
M  V30 6 1 6 7
M  V30 7 2 7 8
M  V30 8 1 8 9
M  V30 9 1 8 10
M  V30 10 2 10 11
M  V30 11 1 4 12
M  V30 12 1 12 13
M  V30 13 2 13 14
M  V30 14 1 14 15
M  V30 15 1 15 16
M  V30 16 2 15 17
M  V30 17 1 17 18
M  V30 18 1 18 19
M  V30 19 2 18 20
M  V30 20 1 20 2
M  V30 21 1 11 5
M  V30 22 1 20 13
M  V30 23 1 3 21
M  V30 24 1 6 22
M  V30 25 1 7 23
M  V30 26 1 9 24
M  V30 27 1 10 25
M  V30 28 1 11 26
M  V30 29 1 14 27
M  V30 30 1 16 28
M  V30 31 1 17 29
M  V30 32 1 19 30
M  V30 END BOND
M  V30 END CTAB
M  END
>  <Dataset>  (467) 
ChEMBL_Kinases

>  <Ligand_Instance>  (467) 
nan

>  <PDB_ID>  (467) 
nan

>  <Standardized_SMILES>  (467) 
O=c1cc(-c2ccc(O)cc2)oc2cc(O)cc(O)c12

>  <Name>  (467) 
APIGENIN

>  <Pocket>  (467) 
nan

>  <ATP_Site>  (467) 
nan

>  <Peripheral>  (467) 
nan

>  <Num_H_Atoms_ProtBoundConf>  (467) 
nan

>  <Num_Resolved_Atoms>  (467) 
nan

>  <Num_Not_Resolved_Atoms>  (467) 
nan

$$$$
CHEMBL280317
     RDKit          3D

  0  0  0  0  0  0  0  0  0  0999 V3000
M  V30 BEGIN CTAB
M  V30 COUNTS 44 47 0 0 0
M  V30 BEGIN ATOM
M  V30 1 C 3.591738 -6.934146 0.758269 0
M  V30 2 S 3.734268 -5.823869 -0.647554 0
M  V30 3 O 5.203935 -5.568052 -0.815407 0
M  V30 4 O 3.228899 -6.475244 -1.877918 0
M  V30 5 C 2.947099 -4.294111 -0.293173 0
M  V30 6 C 1.609365 -4.262492 -0.646051 0
M  V30 7 C 0.882787 -3.100443 -0.412620 0
M  V30 8 C 1.479853 -1.996435 0.159987 0
M  V30 9 C 0.695589 -0.785955 0.396730 0
M  V30 10 N 1.101678 0.363992 0.932910 0
M  V30 11 C 0.084090 1.260415 0.988607 0
M  V30 12 C 0.236846 2.606253 1.526141 0
M  V30 13 C 0.139222 3.794977 0.834668 0
M  V30 14 C 0.294536 5.030866 1.421249 0
M  V30 15 C 0.560791 5.035921 2.774438 0
M  V30 16 F 0.708596 6.291730 3.317310 0
M  V30 17 C 0.673282 3.889764 3.534740 0
M  V30 18 C 0.507770 2.680459 2.891139 0
M  V30 19 C -0.990017 0.586694 0.447446 0
M  V30 20 C -2.319954 1.162084 0.299004 0
M  V30 21 C -2.793426 2.189579 -0.451268 0
M  V30 22 C -4.124786 2.542598 -0.406183 0
M  V30 23 N -4.970568 1.867739 0.385874 0
M  V30 24 C -4.570942 0.840329 1.154718 0
M  V30 25 C -3.221586 0.469476 1.120633 0
M  V30 26 N -0.608003 -0.666181 0.087234 0
M  V30 27 C 2.818073 -2.069107 0.497739 0
M  V30 28 C 3.573845 -3.206026 0.281629 0
M  V30 29 H 3.509273 -6.354785 1.712415 0
M  V30 30 H 4.371500 -7.695913 0.754098 0
M  V30 31 H 2.574822 -7.408551 0.628362 0
M  V30 32 H 1.075716 -5.087323 -1.096869 0
M  V30 33 H -0.173128 -3.078220 -0.692452 0
M  V30 34 H -0.066748 3.715382 -0.213039 0
M  V30 35 H 0.203965 5.907670 0.817948 0
M  V30 36 H 0.883892 4.024890 4.586575 0
M  V30 37 H 0.605737 1.815637 3.531520 0
M  V30 38 H -2.027048 2.645906 -1.040915 0
M  V30 39 H -4.385158 3.373775 -1.045405 0
M  V30 40 H -5.311137 0.347610 1.764462 0
M  V30 41 H -3.022534 -0.380900 1.790907 0
M  V30 42 H -1.247376 -1.365980 -0.345217 0
M  V30 43 H 3.323463 -1.229075 0.947825 0
M  V30 44 H 4.609665 -3.331760 0.517084 0
M  V30 END ATOM
M  V30 BEGIN BOND
M  V30 1 1 1 2
M  V30 2 2 2 3
M  V30 3 2 2 4
M  V30 4 1 2 5
M  V30 5 2 5 6
M  V30 6 1 6 7
M  V30 7 2 7 8
M  V30 8 1 8 9
M  V30 9 2 9 10
M  V30 10 1 10 11
M  V30 11 1 11 12
M  V30 12 2 12 13
M  V30 13 1 13 14
M  V30 14 2 14 15
M  V30 15 1 15 16
M  V30 16 1 15 17
M  V30 17 2 17 18
M  V30 18 2 11 19
M  V30 19 1 19 20
M  V30 20 2 20 21
M  V30 21 1 21 22
M  V30 22 2 22 23
M  V30 23 1 23 24
M  V30 24 2 24 25
M  V30 25 1 19 26
M  V30 26 1 8 27
M  V30 27 2 27 28
M  V30 28 1 28 5
M  V30 29 1 26 9
M  V30 30 1 18 12
M  V30 31 1 25 20
M  V30 32 1 1 29
M  V30 33 1 1 30
M  V30 34 1 1 31
M  V30 35 1 6 32
M  V30 36 1 7 33
M  V30 37 1 13 34
M  V30 38 1 14 35
M  V30 39 1 17 36
M  V30 40 1 18 37
M  V30 41 1 21 38
M  V30 42 1 22 39
M  V30 43 1 24 40
M  V30 44 1 25 41
M  V30 45 1 26 42
M  V30 46 1 27 43
M  V30 47 1 28 44
M  V30 END BOND
M  V30 END CTAB
M  END
>  <Dataset>  (468) 
ChEMBL_Kinases

>  <Ligand_Instance>  (468) 
nan

>  <PDB_ID>  (468) 
nan

>  <Standardized_SMILES>  (468) 
CS(=O)(=O)c1ccc(-c2nc(-c3ccc(F)cc3)c(-c3ccncc3)[nH]2)cc1

>  <Name>  (468) 
nan

>  <Pocket>  (468) 
nan

>  <ATP_Site>  (468) 
nan

>  <Peripheral>  (468) 
nan

>  <Num_H_Atoms_ProtBoundConf>  (468) 
nan

>  <Num_Resolved_Atoms>  (468) 
nan

>  <Num_Not_Resolved_Atoms>  (468) 
nan

$$$$
CHEMBL1902528
     RDKit          3D

  0  0  0  0  0  0  0  0  0  0999 V3000
M  V30 BEGIN CTAB
M  V30 COUNTS 37 40 0 0 0
M  V30 BEGIN ATOM
M  V30 1 C 1.084887 -2.778548 3.141232 0
M  V30 2 C 0.138527 -3.264935 2.268758 0
M  V30 3 N 0.451703 -3.310044 0.964273 0
M  V30 4 C 1.665685 -2.886740 0.532699 0
M  V30 5 C 2.634515 -2.390918 1.410509 0
M  V30 6 C 3.888133 -1.983584 0.756974 0
M  V30 7 N 3.901231 -0.598008 0.334172 0
M  V30 8 C 2.800881 -0.471456 -0.590660 0
M  V30 9 N 2.887635 -0.709302 -1.931970 0
M  V30 10 C 1.749773 -0.538854 -2.661223 0
M  V30 11 C 0.529957 -0.140380 -2.103514 0
M  V30 12 C 0.509941 0.083026 -0.747813 0
M  V30 13 C -0.695051 0.506444 -0.037432 0
M  V30 14 C -0.618599 0.711117 1.325067 0
M  V30 15 C -1.667256 1.110660 2.128888 0
M  V30 16 C -2.881873 1.311097 1.464850 0
M  V30 17 N -4.078237 1.697646 1.961744 0
M  V30 18 N -4.943300 1.751812 0.950774 0
M  V30 19 C -4.330468 1.406568 -0.198806 0
M  V30 20 C -3.005620 1.119094 0.105864 0
M  V30 21 C -1.912475 0.717442 -0.641561 0
M  V30 22 N 1.632461 -0.084563 -0.024215 0
M  V30 23 C 2.312907 -2.344732 2.748623 0
M  V30 24 H 0.830195 -2.744180 4.186680 0
M  V30 25 H -0.838241 -3.610927 2.577824 0
M  V30 26 H 1.828965 -2.961518 -0.544696 0
M  V30 27 H 4.139529 -2.637848 -0.102251 0
M  V30 28 H 4.732093 -2.083555 1.498001 0
M  V30 29 H 4.522849 0.227867 0.576058 0
M  V30 30 H 1.854746 -0.735288 -3.718535 0
M  V30 31 H -0.339190 -0.016499 -2.699458 0
M  V30 32 H 0.324313 0.561140 1.874604 0
M  V30 33 H -1.554131 1.257570 3.196900 0
M  V30 34 H -4.282226 1.914493 2.964449 0
M  V30 35 H -4.753891 1.347787 -1.211408 0
M  V30 36 H -2.009654 0.568826 -1.696292 0
M  V30 37 H 3.086933 -1.957136 3.383860 0
M  V30 END ATOM
M  V30 BEGIN BOND
M  V30 1 2 1 2
M  V30 2 1 2 3
M  V30 3 2 3 4
M  V30 4 1 4 5
M  V30 5 1 5 6
M  V30 6 1 6 7
M  V30 7 1 7 8
M  V30 8 2 8 9
M  V30 9 1 9 10
M  V30 10 2 10 11
M  V30 11 1 11 12
M  V30 12 1 12 13
M  V30 13 2 13 14
M  V30 14 1 14 15
M  V30 15 2 15 16
M  V30 16 1 16 17
M  V30 17 1 17 18
M  V30 18 2 18 19
M  V30 19 1 19 20
M  V30 20 2 20 21
M  V30 21 2 12 22
M  V30 22 2 5 23
M  V30 23 1 23 1
M  V30 24 1 22 8
M  V30 25 1 21 13
M  V30 26 1 20 16
M  V30 27 1 1 24
M  V30 28 1 2 25
M  V30 29 1 4 26
M  V30 30 1 6 27
M  V30 31 1 6 28
M  V30 32 1 7 29
M  V30 33 1 10 30
M  V30 34 1 11 31
M  V30 35 1 14 32
M  V30 36 1 15 33
M  V30 37 1 17 34
M  V30 38 1 19 35
M  V30 39 1 21 36
M  V30 40 1 23 37
M  V30 END BOND
M  V30 END CTAB
M  END
>  <Dataset>  (469) 
ChEMBL_Kinases

>  <Ligand_Instance>  (469) 
nan

>  <PDB_ID>  (469) 
nan

>  <Standardized_SMILES>  (469) 
c1cncc(CNc2nccc(-c3ccc4[nH]ncc4c3)n2)c1

>  <Name>  (469) 
nan

>  <Pocket>  (469) 
nan

>  <ATP_Site>  (469) 
nan

>  <Peripheral>  (469) 
nan

>  <Num_H_Atoms_ProtBoundConf>  (469) 
nan

>  <Num_Resolved_Atoms>  (469) 
nan

>  <Num_Not_Resolved_Atoms>  (469) 
nan

$$$$
CHEMBL5090676
     RDKit          3D

  0  0  0  0  0  0  0  0  0  0999 V3000
M  V30 BEGIN CTAB
M  V30 COUNTS 38 41 0 0 0
M  V30 BEGIN ATOM
M  V30 1 C -0.272058 -3.535550 4.919983 0
M  V30 2 C -0.429808 -2.347317 4.038374 0
M  V30 3 N 0.067293 -2.432385 2.789914 0
M  V30 4 C -0.044717 -1.376747 1.930953 0
M  V30 5 O 0.451741 -1.444127 0.661254 0
M  V30 6 C 1.093761 -2.629856 0.231801 0
M  V30 7 C 1.569294 -2.535471 -1.159774 0
M  V30 8 C 2.771324 -2.100834 -1.587865 0
M  V30 9 N 3.018840 -2.088084 -2.885889 0
M  V30 10 C 2.255669 -2.434699 -3.728094 0
M  V30 11 S 0.754275 -2.943155 -2.650671 0
M  V30 12 C -0.684955 -0.271789 2.444714 0
M  V30 13 C -0.915441 0.905788 1.763457 0
M  V30 14 C -0.623332 1.438432 0.438139 0
M  V30 15 C -1.719300 2.003433 -0.228613 0
M  V30 16 C -1.637978 2.565783 -1.485692 0
M  V30 17 N -0.442261 2.566560 -2.092758 0
M  V30 18 C 0.643251 2.035797 -1.494324 0
M  V30 19 N 1.941150 2.018691 -2.114459 0
M  V30 20 C 0.551389 1.476903 -0.238966 0
M  V30 21 C -1.589621 1.699078 2.702421 0
M  V30 22 N -1.747492 1.036082 3.862807 0
M  V30 23 C -1.195102 -0.182492 3.722853 0
M  V30 24 N -1.054098 -1.256184 4.523192 0
M  V30 25 H -0.249527 -3.255244 5.983494 0
M  V30 26 H 0.650890 -4.082456 4.625071 0
M  V30 27 H -1.133887 -4.232925 4.739427 0
M  V30 28 H 1.978508 -2.876778 0.848865 0
M  V30 29 H 0.395726 -3.499425 0.276097 0
M  V30 30 H 3.555210 -1.756073 -0.900405 0
M  V30 31 H 2.405849 -2.446979 -4.831292 0
M  V30 32 H -2.722525 2.037412 0.205844 0
M  V30 33 H -2.486403 2.994516 -1.983154 0
M  V30 34 H 2.622638 2.781676 -2.328398 0
M  V30 35 H 2.474254 1.199136 -2.486720 0
M  V30 36 H 1.393510 1.059854 0.254721 0
M  V30 37 H -1.959670 2.706406 2.584086 0
M  V30 38 H -2.211676 1.381889 4.731786 0
M  V30 END ATOM
M  V30 BEGIN BOND
M  V30 1 1 1 2
M  V30 2 2 2 3
M  V30 3 1 3 4
M  V30 4 1 4 5
M  V30 5 1 5 6
M  V30 6 1 6 7
M  V30 7 2 7 8
M  V30 8 1 8 9
M  V30 9 2 9 10
M  V30 10 1 10 11
M  V30 11 2 4 12
M  V30 12 1 12 13
M  V30 13 1 13 14
M  V30 14 2 14 15
M  V30 15 1 15 16
M  V30 16 2 16 17
M  V30 17 1 17 18
M  V30 18 1 18 19
M  V30 19 2 18 20
M  V30 20 2 13 21
M  V30 21 1 21 22
M  V30 22 1 22 23
M  V30 23 2 23 24
M  V30 24 1 24 2
M  V30 25 1 11 7
M  V30 26 1 23 12
M  V30 27 1 20 14
M  V30 28 1 1 25
M  V30 29 1 1 26
M  V30 30 1 1 27
M  V30 31 1 6 28
M  V30 32 1 6 29
M  V30 33 1 8 30
M  V30 34 1 10 31
M  V30 35 1 15 32
M  V30 36 1 16 33
M  V30 37 1 19 34
M  V30 38 1 19 35
M  V30 39 1 20 36
M  V30 40 1 21 37
M  V30 41 1 22 38
M  V30 END BOND
M  V30 END CTAB
M  END
>  <Dataset>  (470) 
ChEMBL_Kinases

>  <Ligand_Instance>  (470) 
nan

>  <PDB_ID>  (470) 
nan

>  <Standardized_SMILES>  (470) 
Cc1nc(OCc2cncs2)c2c(-c3ccnc(N)c3)c[nH]c2n1

>  <Name>  (470) 
nan

>  <Pocket>  (470) 
nan

>  <ATP_Site>  (470) 
nan

>  <Peripheral>  (470) 
nan

>  <Num_H_Atoms_ProtBoundConf>  (470) 
nan

>  <Num_Resolved_Atoms>  (470) 
nan

>  <Num_Not_Resolved_Atoms>  (470) 
nan

$$$$
CHEMBL291975
     RDKit          3D

  0  0  0  0  0  0  0  0  0  0999 V3000
M  V30 BEGIN CTAB
M  V30 COUNTS 66 72 0 0 0
M  V30 BEGIN ATOM
M  V30 1 C 4.416738 -1.136140 1.323894 0
M  V30 2 N 3.387274 -0.329407 1.958732 0
M  V30 3 C 2.287922 -0.764274 2.579103 0
M  V30 4 C 1.529226 0.301300 3.064426 0
M  V30 5 C 0.254754 0.083430 3.775320 0
M  V30 6 C -0.681399 -0.764357 3.316005 0
M  V30 7 C -0.513284 -1.537463 2.068880 0
M  V30 8 C -0.032006 -0.984002 0.876660 0
M  V30 9 N 0.048547 -1.884921 -0.118881 0
M  V30 10 C 0.505287 -1.672858 -1.479954 0
M  V30 11 C -0.291697 -2.378541 -2.522903 0
M  V30 12 C -0.444819 -1.377401 -3.675035 0
M  V30 13 N -0.223312 -0.096105 -3.126565 0
M  V30 14 C -1.246742 0.876057 -3.221764 0
M  V30 15 C -2.542135 0.553968 -2.630569 0
M  V30 16 C -2.926019 0.810646 -1.314253 0
M  V30 17 C -4.164691 0.485716 -0.804223 0
M  V30 18 C -5.104718 -0.127013 -1.604967 0
M  V30 19 C -4.777784 -0.404231 -2.917902 0
M  V30 20 C -3.520143 -0.062209 -3.395355 0
M  V30 21 C 0.409046 -0.225033 -1.845439 0
M  V30 22 C -0.384391 -3.017402 0.442785 0
M  V30 23 C -0.553380 -4.311798 -0.001171 0
M  V30 24 C -1.014071 -5.350339 0.749001 0
M  V30 25 C -1.351443 -5.133997 2.068762 0
M  V30 26 C -1.208002 -3.864905 2.580688 0
M  V30 27 C -0.736989 -2.858661 1.768207 0
M  V30 28 C -1.817056 -0.762751 4.229858 0
M  V30 29 O -2.879744 -1.427849 4.131995 0
M  V30 30 N -1.515977 0.145447 5.285952 0
M  V30 31 C -0.227294 0.688954 5.028250 0
M  V30 32 O 0.425420 1.524293 5.697446 0
M  V30 33 C 2.229353 1.432422 2.705636 0
M  V30 34 C 1.897041 2.744265 2.948897 0
M  V30 35 C 2.783504 3.707282 2.469125 0
M  V30 36 C 3.931071 3.296519 1.785140 0
M  V30 37 C 4.231249 1.962354 1.559956 0
M  V30 38 C 3.358185 1.009519 2.031968 0
M  V30 39 H 4.578044 -2.065565 1.865006 0
M  V30 40 H 5.364950 -0.583704 1.214505 0
M  V30 41 H 4.070682 -1.434756 0.299695 0
M  V30 42 H 2.071377 -1.832292 2.662773 0
M  V30 43 H 0.228940 0.086589 0.827686 0
M  V30 44 H 1.593042 -1.984679 -1.568099 0
M  V30 45 H 0.297646 -3.267424 -2.881494 0
M  V30 46 H -1.298039 -2.701126 -2.197076 0
M  V30 47 H 0.389796 -1.619429 -4.398945 0
M  V30 48 H -1.362720 -1.562387 -4.218304 0
M  V30 49 H -1.411798 1.136839 -4.302437 0
M  V30 50 H -0.817471 1.835110 -2.799495 0
M  V30 51 H -2.227826 1.287082 -0.667751 0
M  V30 52 H -4.425861 0.704827 0.234875 0
M  V30 53 H -6.088151 -0.401144 -1.251617 0
M  V30 54 H -5.526782 -0.885656 -3.530903 0
M  V30 55 H -3.388123 -0.333734 -4.451270 0
M  V30 56 H 1.450566 0.201577 -1.961926 0
M  V30 57 H -0.055966 0.423353 -1.080493 0
M  V30 58 H -0.313099 -4.570225 -1.021102 0
M  V30 59 H -1.151011 -6.365634 0.412793 0
M  V30 60 H -1.721198 -5.905262 2.716079 0
M  V30 61 H -1.469293 -3.697559 3.611627 0
M  V30 62 H -2.134013 0.365088 6.094221 0
M  V30 63 H 1.003358 3.021090 3.478064 0
M  V30 64 H 2.604890 4.766143 2.613183 0
M  V30 65 H 4.644989 3.998968 1.395403 0
M  V30 66 H 5.112330 1.659092 1.034536 0
M  V30 END ATOM
M  V30 BEGIN BOND
M  V30 1 1 1 2
M  V30 2 1 2 3
M  V30 3 2 3 4
M  V30 4 1 4 5
M  V30 5 2 5 6
M  V30 6 1 6 7
M  V30 7 2 7 8
M  V30 8 1 8 9
M  V30 9 1 9 10
M  V30 10 1 10 11
M  V30 11 1 11 12
M  V30 12 1 12 13
M  V30 13 1 13 14
M  V30 14 1 14 15
M  V30 15 2 15 16
M  V30 16 1 16 17
M  V30 17 2 17 18
M  V30 18 1 18 19
M  V30 19 2 19 20
M  V30 20 1 13 21
M  V30 21 1 9 22
M  V30 22 2 22 23
M  V30 23 1 23 24
M  V30 24 2 24 25
M  V30 25 1 25 26
M  V30 26 2 26 27
M  V30 27 1 6 28
M  V30 28 2 28 29
M  V30 29 1 28 30
M  V30 30 1 30 31
M  V30 31 2 31 32
M  V30 32 1 4 33
M  V30 33 2 33 34
M  V30 34 1 34 35
M  V30 35 2 35 36
M  V30 36 1 36 37
M  V30 37 2 37 38
M  V30 38 1 38 2
M  V30 39 1 31 5
M  V30 40 1 38 33
M  V30 41 1 27 7
M  V30 42 1 21 10
M  V30 43 1 27 22
M  V30 44 1 20 15
M  V30 45 1 1 39
M  V30 46 1 1 40
M  V30 47 1 1 41
M  V30 48 1 3 42
M  V30 49 1 8 43
M  V30 50 1 10 44
M  V30 51 1 11 45
M  V30 52 1 11 46
M  V30 53 1 12 47
M  V30 54 1 12 48
M  V30 55 1 14 49
M  V30 56 1 14 50
M  V30 57 1 16 51
M  V30 58 1 17 52
M  V30 59 1 18 53
M  V30 60 1 19 54
M  V30 61 1 20 55
M  V30 62 1 21 56
M  V30 63 1 21 57
M  V30 64 1 23 58
M  V30 65 1 24 59
M  V30 66 1 25 60
M  V30 67 1 26 61
M  V30 68 1 30 62
M  V30 69 1 34 63
M  V30 70 1 35 64
M  V30 71 1 36 65
M  V30 72 1 37 66
M  V30 END BOND
M  V30 END CTAB
M  END
>  <Dataset>  (471) 
ChEMBL_Kinases

>  <Ligand_Instance>  (471) 
nan

>  <PDB_ID>  (471) 
nan

>  <Standardized_SMILES>  (471) 
Cn1cc(C2=C(c3cn(C4CCN(Cc5ccccc5)C4)c4ccccc34)C(=O)NC2=O)c2ccccc21

>  <Name>  (471) 
nan

>  <Pocket>  (471) 
nan

>  <ATP_Site>  (471) 
nan

>  <Peripheral>  (471) 
nan

>  <Num_H_Atoms_ProtBoundConf>  (471) 
nan

>  <Num_Resolved_Atoms>  (471) 
nan

>  <Num_Not_Resolved_Atoms>  (471) 
nan

$$$$
CHEMBL4877117
     RDKit          3D

  0  0  0  0  0  0  0  0  0  0999 V3000
M  V30 BEGIN CTAB
M  V30 COUNTS 54 59 0 0 0
M  V30 BEGIN ATOM
M  V30 1 C 2.216606 -3.806863 6.610076 0
M  V30 2 N 2.578456 -3.544957 5.230158 0
M  V30 3 C 2.330419 -2.412268 4.548036 0
M  V30 4 C 2.816814 -2.519555 3.263077 0
M  V30 5 N 2.845619 -1.669405 2.124365 0
M  V30 6 C 3.865455 -0.888502 1.728608 0
M  V30 7 N 3.508501 -0.246385 0.620640 0
M  V30 8 C 2.240326 -0.616818 0.294945 0
M  V30 9 C 1.447731 -0.216835 -0.768256 0
M  V30 10 N 1.934601 0.708055 -1.722555 0
M  V30 11 C 1.228661 1.223534 -2.877361 0
M  V30 12 C 0.037602 1.994233 -2.440802 0
M  V30 13 N 0.149074 3.330692 -2.179376 0
M  V30 14 C -1.021097 3.832389 -1.808059 0
M  V30 15 C -1.391218 5.116422 -1.449293 0
M  V30 16 C -2.701241 5.394537 -1.094393 0
M  V30 17 Cl -3.207405 7.011662 -0.633543 0
M  V30 18 C -3.588411 4.341001 -1.120354 0
M  V30 19 Cl -5.251185 4.653506 -0.678578 0
M  V30 20 C -3.229986 3.058154 -1.476229 0
M  V30 21 C -1.931891 2.799795 -1.824206 0
M  V30 22 N -1.243992 1.734950 -2.207617 0
M  V30 23 N 0.221770 -0.768177 -0.820084 0
M  V30 24 C -0.213102 -1.649563 0.094869 0
M  V30 25 N -1.491504 -2.266649 0.083007 0
M  V30 26 C -2.524876 -2.144373 -0.923788 0
M  V30 27 C -2.784769 -3.532997 -1.470135 0
M  V30 28 O -3.199244 -4.338677 -0.421162 0
M  V30 29 C -2.196629 -4.495525 0.538074 0
M  V30 30 C -1.921204 -3.140948 1.156947 0
M  V30 31 N 0.613240 -1.988758 1.097767 0
M  V30 32 C 1.844862 -1.503043 1.242788 0
M  V30 33 C 3.383999 -3.794716 3.191487 0
M  V30 34 N 3.210462 -4.359743 4.398425 0
M  V30 35 H 1.888476 -2.879009 7.079672 0
M  V30 36 H 3.112349 -4.200734 7.158336 0
M  V30 37 H 1.405635 -4.572478 6.617831 0
M  V30 38 H 1.838101 -1.510769 4.864927 0
M  V30 39 H 4.835144 -0.757801 2.185350 0
M  V30 40 H 2.924870 1.067027 -1.581763 0
M  V30 41 H 1.889744 1.859266 -3.492498 0
M  V30 42 H 0.884420 0.383164 -3.539898 0
M  V30 43 H -0.657731 5.908301 -1.444795 0
M  V30 44 H -3.922335 2.226095 -1.498611 0
M  V30 45 H -1.601192 0.766028 -2.336371 0
M  V30 46 H -2.299233 -1.414060 -1.695102 0
M  V30 47 H -3.464734 -1.831866 -0.392740 0
M  V30 48 H -1.862223 -3.966347 -1.914241 0
M  V30 49 H -3.628759 -3.472052 -2.189304 0
M  V30 50 H -1.277454 -4.925532 0.087994 0
M  V30 51 H -2.604117 -5.176804 1.307131 0
M  V30 52 H -2.889554 -2.745505 1.534436 0
M  V30 53 H -1.152289 -3.215023 1.949616 0
M  V30 54 H 3.895398 -4.359526 2.401251 0
M  V30 END ATOM
M  V30 BEGIN BOND
M  V30 1 1 1 2
M  V30 2 1 2 3
M  V30 3 2 3 4
M  V30 4 1 4 5
M  V30 5 1 5 6
M  V30 6 2 6 7
M  V30 7 1 7 8
M  V30 8 2 8 9
M  V30 9 1 9 10
M  V30 10 1 10 11
M  V30 11 1 11 12
M  V30 12 2 12 13
M  V30 13 1 13 14
M  V30 14 2 14 15
M  V30 15 1 15 16
M  V30 16 1 16 17
M  V30 17 2 16 18
M  V30 18 1 18 19
M  V30 19 1 18 20
M  V30 20 2 20 21
M  V30 21 1 21 22
M  V30 22 1 9 23
M  V30 23 2 23 24
M  V30 24 1 24 25
M  V30 25 1 25 26
M  V30 26 1 26 27
M  V30 27 1 27 28
M  V30 28 1 28 29
M  V30 29 1 29 30
M  V30 30 1 24 31
M  V30 31 2 31 32
M  V30 32 1 4 33
M  V30 33 2 33 34
M  V30 34 1 34 2
M  V30 35 1 32 5
M  V30 36 1 32 8
M  V30 37 1 22 12
M  V30 38 1 30 25
M  V30 39 1 21 14
M  V30 40 1 1 35
M  V30 41 1 1 36
M  V30 42 1 1 37
M  V30 43 1 3 38
M  V30 44 1 6 39
M  V30 45 1 10 40
M  V30 46 1 11 41
M  V30 47 1 11 42
M  V30 48 1 15 43
M  V30 49 1 20 44
M  V30 50 1 22 45
M  V30 51 1 26 46
M  V30 52 1 26 47
M  V30 53 1 27 48
M  V30 54 1 27 49
M  V30 55 1 29 50
M  V30 56 1 29 51
M  V30 57 1 30 52
M  V30 58 1 30 53
M  V30 59 1 33 54
M  V30 END BOND
M  V30 END CTAB
M  END
>  <Dataset>  (472) 
ChEMBL_Kinases

>  <Ligand_Instance>  (472) 
nan

>  <PDB_ID>  (472) 
nan

>  <Standardized_SMILES>  (472) 
Cn1cc(-n2cnc3c(NCc4nc5cc(Cl)c(Cl)cc5[nH]4)nc(N4CCOCC4)nc32)cn1

>  <Name>  (472) 
nan

>  <Pocket>  (472) 
nan

>  <ATP_Site>  (472) 
nan

>  <Peripheral>  (472) 
nan

>  <Num_H_Atoms_ProtBoundConf>  (472) 
nan

>  <Num_Resolved_Atoms>  (472) 
nan

>  <Num_Not_Resolved_Atoms>  (472) 
nan

$$$$
CHEMBL104264
     RDKit          3D

  0  0  0  0  0  0  0  0  0  0999 V3000
M  V30 BEGIN CTAB
M  V30 COUNTS 47 49 0 0 0
M  V30 BEGIN ATOM
M  V30 1 O -0.664878 -4.759158 -1.677505 0
M  V30 2 S -0.146108 -3.782065 -0.610425 0
M  V30 3 O 0.134881 -4.743014 0.551771 0
M  V30 4 N 1.339348 -3.130771 -1.041214 0
M  V30 5 C 1.465440 -2.221805 -2.102100 0
M  V30 6 C 2.902002 -1.796700 -2.304077 0
M  V30 7 N 3.475140 -1.180463 -1.211735 0
M  V30 8 C 3.180297 0.077026 -0.722615 0
M  V30 9 C 1.920172 0.394236 -0.074339 0
M  V30 10 C 1.934750 0.826356 1.203603 0
M  V30 11 C 0.813707 1.200375 2.043334 0
M  V30 12 C -0.509744 1.186571 1.654761 0
M  V30 13 C -1.526559 1.566598 2.503018 0
M  V30 14 C -1.285511 1.984092 3.793791 0
M  V30 15 Br -2.709587 2.501382 4.937680 0
M  V30 16 C 0.019850 1.994757 4.171005 0
M  V30 17 C 1.040000 1.617953 3.331790 0
M  V30 18 C -1.388242 -2.717083 -0.091146 0
M  V30 19 C -1.707731 -2.627821 1.276934 0
M  V30 20 C -2.633369 -1.789308 1.866505 0
M  V30 21 C -3.312867 -0.951531 1.002922 0
M  V30 22 C -3.082550 -0.957097 -0.340241 0
M  V30 23 C -3.768993 -0.145019 -1.221965 0
M  V30 24 N -3.527913 -0.203353 -2.536579 0
M  V30 25 C -2.607572 -1.050186 -3.086315 0
M  V30 26 C -1.939809 -1.846111 -2.177502 0
M  V30 27 C -2.143143 -1.828441 -0.823292 0
M  V30 28 H 1.950537 -2.866519 -0.238211 0
M  V30 29 H 1.187972 -2.760637 -3.045594 0
M  V30 30 H 0.860379 -1.315926 -1.959467 0
M  V30 31 H 3.539027 -2.711256 -2.553513 0
M  V30 32 H 2.948361 -1.227884 -3.270363 0
M  V30 33 H 3.999513 -1.766798 -0.538457 0
M  V30 34 H 4.044094 0.375832 -0.036698 0
M  V30 35 H 3.299397 0.886719 -1.536746 0
M  V30 36 H 0.885484 0.381068 -0.371692 0
M  V30 37 H 2.927962 0.903731 1.673435 0
M  V30 38 H -0.765080 0.870230 0.657376 0
M  V30 39 H -2.583999 1.562500 2.197593 0
M  V30 40 H 0.245507 2.319527 5.185378 0
M  V30 41 H 2.036994 1.667622 3.738143 0
M  V30 42 H -1.177075 -3.285390 1.967152 0
M  V30 43 H -2.795274 -1.805758 2.921350 0
M  V30 44 H -4.041849 -0.284100 1.437214 0
M  V30 45 H -4.483833 0.505070 -0.750642 0
M  V30 46 H -2.434522 -1.074466 -4.159110 0
M  V30 47 H -1.234232 -2.525994 -2.615076 0
M  V30 END ATOM
M  V30 BEGIN BOND
M  V30 1 2 1 2
M  V30 2 2 2 3
M  V30 3 1 2 4
M  V30 4 1 4 5
M  V30 5 1 5 6
M  V30 6 1 6 7
M  V30 7 1 7 8
M  V30 8 1 8 9
M  V30 9 2 9 10
M  V30 10 1 10 11
M  V30 11 2 11 12
M  V30 12 1 12 13
M  V30 13 2 13 14
M  V30 14 1 14 15
M  V30 15 1 14 16
M  V30 16 2 16 17
M  V30 17 1 2 18
M  V30 18 2 18 19
M  V30 19 1 19 20
M  V30 20 2 20 21
M  V30 21 1 21 22
M  V30 22 2 22 23
M  V30 23 1 23 24
M  V30 24 2 24 25
M  V30 25 1 25 26
M  V30 26 2 26 27
M  V30 27 1 17 11
M  V30 28 1 27 18
M  V30 29 1 27 22
M  V30 30 1 4 28
M  V30 31 1 5 29
M  V30 32 1 5 30
M  V30 33 1 6 31
M  V30 34 1 6 32
M  V30 35 1 7 33
M  V30 36 1 8 34
M  V30 37 1 8 35
M  V30 38 1 9 36
M  V30 39 1 10 37
M  V30 40 1 12 38
M  V30 41 1 13 39
M  V30 42 1 16 40
M  V30 43 1 17 41
M  V30 44 1 19 42
M  V30 45 1 20 43
M  V30 46 1 21 44
M  V30 47 1 23 45
M  V30 48 1 25 46
M  V30 49 1 26 47
M  V30 END BOND
M  V30 END CTAB
M  END
>  <Dataset>  (473) 
ChEMBL_Kinases

>  <Ligand_Instance>  (473) 
nan

>  <PDB_ID>  (473) 
nan

>  <Standardized_SMILES>  (473) 
O=S(=O)(NCCNC/C=C/c1ccc(Br)cc1)c1cccc2cnccc12

>  <Name>  (473) 
nan

>  <Pocket>  (473) 
nan

>  <ATP_Site>  (473) 
nan

>  <Peripheral>  (473) 
nan

>  <Num_H_Atoms_ProtBoundConf>  (473) 
nan

>  <Num_Resolved_Atoms>  (473) 
nan

>  <Num_Not_Resolved_Atoms>  (473) 
nan

$$$$
CHEMBL4875188
     RDKit          3D

  0  0  0  0  0  0  0  0  0  0999 V3000
M  V30 BEGIN CTAB
M  V30 COUNTS 37 39 0 0 0
M  V30 BEGIN ATOM
M  V30 1 C -0.304302 -4.363616 2.499560 0
M  V30 2 O -0.214621 -3.438037 1.463109 0
M  V30 3 C 0.899442 -2.811911 0.985588 0
M  V30 4 C 2.130894 -3.066203 1.537946 0
M  V30 5 C 3.265108 -2.442702 1.068160 0
M  V30 6 C 3.196755 -1.530202 0.012607 0
M  V30 7 C 1.932058 -1.284655 -0.536834 0
M  V30 8 C 0.788952 -1.903332 -0.074692 0
M  V30 9 C -0.508252 -1.599987 -0.703804 0
M  V30 10 C -0.902345 -0.405008 -1.126521 0
M  V30 11 N -0.347067 0.902144 -1.158953 0
M  V30 12 C -0.030910 1.757803 -0.069224 0
M  V30 13 C 0.497683 3.016618 -0.256742 0
M  V30 14 C 0.791829 3.813615 0.811657 0
M  V30 15 C 0.587743 3.430139 2.123608 0
M  V30 16 C 0.059776 2.173223 2.319648 0
M  V30 17 C -0.157305 1.759676 3.667139 0
M  V30 18 N -0.355099 1.426084 4.773574 0
M  V30 19 C -0.241433 1.357362 1.232469 0
M  V30 20 C -2.262076 -0.531586 -1.694948 0
M  V30 21 O -3.052845 0.308869 -2.216540 0
M  V30 22 N -2.685502 -1.906145 -1.592624 0
M  V30 23 C -1.566619 -2.565871 -0.964964 0
M  V30 24 O -1.609063 -3.800501 -0.725461 0
M  V30 25 H 0.626851 -4.821798 2.832728 0
M  V30 26 H -0.841277 -3.866200 3.348486 0
M  V30 27 H -0.946245 -5.206279 2.131311 0
M  V30 28 H 2.297199 -3.750466 2.353065 0
M  V30 29 H 4.232375 -2.613235 1.468129 0
M  V30 30 H 4.101210 -1.042603 -0.351459 0
M  V30 31 H 1.856648 -0.576033 -1.361437 0
M  V30 32 H -0.148648 1.268723 -2.135960 0
M  V30 33 H 0.679442 3.372254 -1.255725 0
M  V30 34 H 1.207785 4.800044 0.608339 0
M  V30 35 H 0.860745 4.153018 2.888960 0
M  V30 36 H -0.657700 0.370283 1.437409 0
M  V30 37 H -3.583542 -2.339911 -1.894636 0
M  V30 END ATOM
M  V30 BEGIN BOND
M  V30 1 1 1 2
M  V30 2 1 2 3
M  V30 3 2 3 4
M  V30 4 1 4 5
M  V30 5 2 5 6
M  V30 6 1 6 7
M  V30 7 2 7 8
M  V30 8 1 8 9
M  V30 9 2 9 10
M  V30 10 1 10 11
M  V30 11 1 11 12
M  V30 12 2 12 13
M  V30 13 1 13 14
M  V30 14 2 14 15
M  V30 15 1 15 16
M  V30 16 1 16 17
M  V30 17 3 17 18
M  V30 18 2 16 19
M  V30 19 1 10 20
M  V30 20 2 20 21
M  V30 21 1 20 22
M  V30 22 1 22 23
M  V30 23 2 23 24
M  V30 24 1 8 3
M  V30 25 1 23 9
M  V30 26 1 19 12
M  V30 27 1 1 25
M  V30 28 1 1 26
M  V30 29 1 1 27
M  V30 30 1 4 28
M  V30 31 1 5 29
M  V30 32 1 6 30
M  V30 33 1 7 31
M  V30 34 1 11 32
M  V30 35 1 13 33
M  V30 36 1 14 34
M  V30 37 1 15 35
M  V30 38 1 19 36
M  V30 39 1 22 37
M  V30 END BOND
M  V30 END CTAB
M  END
>  <Dataset>  (474) 
ChEMBL_Kinases

>  <Ligand_Instance>  (474) 
nan

>  <PDB_ID>  (474) 
nan

>  <Standardized_SMILES>  (474) 
COc1ccccc1C1=C(Nc2cccc(C#N)c2)C(=O)NC1=O

>  <Name>  (474) 
nan

>  <Pocket>  (474) 
nan

>  <ATP_Site>  (474) 
nan

>  <Peripheral>  (474) 
nan

>  <Num_H_Atoms_ProtBoundConf>  (474) 
nan

>  <Num_Resolved_Atoms>  (474) 
nan

>  <Num_Not_Resolved_Atoms>  (474) 
nan

$$$$
CHEMBL4794825
     RDKit          3D

  0  0  0  0  0  0  0  0  0  0999 V3000
M  V30 BEGIN CTAB
M  V30 COUNTS 43 46 0 0 0
M  V30 BEGIN ATOM
M  V30 1 C 0.853021 -6.498041 2.017084 0
M  V30 2 C 1.310223 -5.056127 2.074232 0
M  V30 3 C 0.918092 -4.456485 3.383461 0
M  V30 4 C 0.694881 -4.332817 0.896507 0
M  V30 5 C 1.069571 -2.895762 0.837822 0
M  V30 6 C 0.325635 -1.914034 1.459790 0
M  V30 7 C 0.732179 -0.597448 1.364191 0
M  V30 8 C 1.880290 -0.265571 0.647796 0
M  V30 9 C 2.236091 1.150381 0.598934 0
M  V30 10 C 3.414965 1.849918 0.756129 0
M  V30 11 O 3.171294 3.133464 0.609456 0
M  V30 12 C 1.912138 3.352258 0.364326 0
M  V30 13 C 1.136874 4.472481 0.134604 0
M  V30 14 C -0.223062 4.418757 -0.106960 0
M  V30 15 C -0.794554 3.162310 -0.109823 0
M  V30 16 C -2.226063 2.995430 -0.355255 0
M  V30 17 C -2.863049 1.771486 -0.372502 0
M  V30 18 N -4.166154 1.980649 -0.624817 0
M  V30 19 N -4.348648 3.287545 -0.762353 0
M  V30 20 C -3.183519 3.961195 -0.605604 0
M  V30 21 N -0.062552 2.066927 0.110093 0
M  V30 22 C 1.273879 2.109291 0.348315 0
M  V30 23 C 2.655043 -1.233262 0.007272 0
M  V30 24 C 2.203923 -2.531018 0.134867 0
M  V30 25 H 0.708461 -6.894905 3.054063 0
M  V30 26 H -0.168428 -6.500567 1.568672 0
M  V30 27 H 1.536355 -7.111535 1.415969 0
M  V30 28 H 2.414692 -4.969879 1.928070 0
M  V30 29 H 1.644955 -4.857746 4.143886 0
M  V30 30 H 0.995039 -3.353097 3.399416 0
M  V30 31 H -0.064785 -4.765230 3.735907 0
M  V30 32 H -0.421596 -4.439908 0.954948 0
M  V30 33 H 0.988970 -4.803503 -0.061799 0
M  V30 34 H -0.560798 -2.161475 2.014047 0
M  V30 35 H 0.153762 0.202064 1.852563 0
M  V30 36 H 4.343490 1.316210 0.966667 0
M  V30 37 H 1.626383 5.435303 0.146130 0
M  V30 38 H -0.800212 5.316102 -0.283050 0
M  V30 39 H -2.421887 0.782983 -0.213667 0
M  V30 40 H -5.284095 3.696665 -0.964206 0
M  V30 41 H -3.004793 5.021883 -0.658135 0
M  V30 42 H 3.535336 -0.952051 -0.538488 0
M  V30 43 H 2.833619 -3.272221 -0.379766 0
M  V30 END ATOM
M  V30 BEGIN BOND
M  V30 1 1 1 2
M  V30 2 1 2 3
M  V30 3 1 2 4
M  V30 4 1 4 5
M  V30 5 2 5 6
M  V30 6 1 6 7
M  V30 7 2 7 8
M  V30 8 1 8 9
M  V30 9 2 9 10
M  V30 10 1 10 11
M  V30 11 1 11 12
M  V30 12 2 12 13
M  V30 13 1 13 14
M  V30 14 2 14 15
M  V30 15 1 15 16
M  V30 16 1 16 17
M  V30 17 2 17 18
M  V30 18 1 18 19
M  V30 19 1 19 20
M  V30 20 1 15 21
M  V30 21 2 21 22
M  V30 22 1 8 23
M  V30 23 2 23 24
M  V30 24 1 24 5
M  V30 25 1 22 9
M  V30 26 1 22 12
M  V30 27 2 20 16
M  V30 28 1 1 25
M  V30 29 1 1 26
M  V30 30 1 1 27
M  V30 31 1 2 28
M  V30 32 1 3 29
M  V30 33 1 3 30
M  V30 34 1 3 31
M  V30 35 1 4 32
M  V30 36 1 4 33
M  V30 37 1 6 34
M  V30 38 1 7 35
M  V30 39 1 10 36
M  V30 40 1 13 37
M  V30 41 1 14 38
M  V30 42 1 17 39
M  V30 43 1 19 40
M  V30 44 1 20 41
M  V30 45 1 23 42
M  V30 46 1 24 43
M  V30 END BOND
M  V30 END CTAB
M  END
>  <Dataset>  (475) 
ChEMBL_Kinases

>  <Ligand_Instance>  (475) 
nan

>  <PDB_ID>  (475) 
nan

>  <Standardized_SMILES>  (475) 
CC(C)Cc1ccc(-c2coc3ccc(-c4cn[nH]c4)nc23)cc1

>  <Name>  (475) 
nan

>  <Pocket>  (475) 
nan

>  <ATP_Site>  (475) 
nan

>  <Peripheral>  (475) 
nan

>  <Num_H_Atoms_ProtBoundConf>  (475) 
nan

>  <Num_Resolved_Atoms>  (475) 
nan

>  <Num_Not_Resolved_Atoms>  (475) 
nan

$$$$
CHEMBL292495
     RDKit          3D

  0  0  0  0  0  0  0  0  0  0999 V3000
M  V30 BEGIN CTAB
M  V30 COUNTS 56 61 0 0 0
M  V30 BEGIN ATOM
M  V30 1 O 4.334413 0.247763 2.980087 0
M  V30 2 C 3.710269 -0.647152 2.359048 0
M  V30 3 N 4.306187 -1.960154 2.328074 0
M  V30 4 C 3.353182 -2.737171 1.546334 0
M  V30 5 O 3.588311 -3.978585 1.324948 0
M  V30 6 C 2.257454 -1.898706 1.148001 0
M  V30 7 C 2.434213 -0.690080 1.601703 0
M  V30 8 C 1.516743 0.434220 1.392719 0
M  V30 9 C 0.818219 0.628274 0.248714 0
M  V30 10 N 0.051952 1.758770 0.369693 0
M  V30 11 C 0.258176 2.290820 1.586505 0
M  V30 12 C -0.349675 3.429346 2.053727 0
M  V30 13 C -0.009452 3.819875 3.353657 0
M  V30 14 C 0.904175 3.039059 4.065712 0
M  V30 15 C 1.480947 1.899711 3.532377 0
M  V30 16 C 1.172016 1.480711 2.251649 0
M  V30 17 C -0.699686 1.907423 -0.865482 0
M  V30 18 C -2.069319 1.249358 -0.759214 0
M  V30 19 O -1.984706 -0.059645 -0.321012 0
M  V30 20 C -3.129314 -0.764175 -0.217009 0 CFG=2
M  V30 21 C -3.621587 -0.964056 1.225806 0
M  V30 22 O -3.875402 0.207667 1.882861 0
M  V30 23 C -3.196107 -2.088806 -0.829633 0
M  V30 24 C -2.294962 -3.169670 -0.347969 0
M  V30 25 N -0.887773 -2.983663 -0.409135 0
M  V30 26 C -0.211425 -2.460338 0.635324 0
M  V30 27 C 1.148038 -2.387401 0.337603 0
M  V30 28 C 1.245966 -2.903802 -0.961395 0
M  V30 29 C 2.266903 -3.107565 -1.817792 0
M  V30 30 C 2.141473 -3.646726 -3.094528 0
M  V30 31 C 0.871777 -3.998842 -3.512657 0
M  V30 32 C -0.209606 -3.811684 -2.675733 0
M  V30 33 C -0.027948 -3.271651 -1.416499 0
M  V30 34 H 5.182883 -2.310517 2.739457 0
M  V30 35 H 0.953095 -0.088812 -0.557857 0
M  V30 36 H -1.052900 4.005213 1.468155 0
M  V30 37 H -0.425678 4.687368 3.806512 0
M  V30 38 H 1.167364 3.348059 5.082599 0
M  V30 39 H 2.175593 1.310342 4.109058 0
M  V30 40 H -0.878825 3.002334 -0.927552 0
M  V30 41 H -0.146213 1.646217 -1.773681 0
M  V30 42 H -2.658834 1.868801 -0.069103 0
M  V30 43 H -2.457226 1.194141 -1.796505 0
M  V30 44 H -3.935659 -0.129555 -0.613835 0
M  V30 45 H -4.611098 -1.457690 1.082363 0
M  V30 46 H -3.021507 -1.674440 1.793453 0
M  V30 47 H -3.636999 0.220601 2.830276 0
M  V30 48 H -3.159967 -1.994184 -1.936795 0
M  V30 49 H -4.223748 -2.485637 -0.640947 0
M  V30 50 H -2.550039 -4.070179 -0.946592 0
M  V30 51 H -2.569742 -3.456587 0.690232 0
M  V30 52 H -0.652408 -2.142481 1.568156 0
M  V30 53 H 3.308876 -2.848274 -1.547384 0
M  V30 54 H 2.978285 -3.792917 -3.745517 0
M  V30 55 H 0.746559 -4.422177 -4.505758 0
M  V30 56 H -1.201758 -4.078620 -2.982375 0
M  V30 END ATOM
M  V30 BEGIN BOND
M  V30 1 2 1 2
M  V30 2 1 2 3
M  V30 3 1 3 4
M  V30 4 2 4 5
M  V30 5 1 4 6
M  V30 6 2 6 7
M  V30 7 1 7 8
M  V30 8 2 8 9
M  V30 9 1 9 10
M  V30 10 1 10 11
M  V30 11 2 11 12
M  V30 12 1 12 13
M  V30 13 2 13 14
M  V30 14 1 14 15
M  V30 15 2 15 16
M  V30 16 1 10 17
M  V30 17 1 17 18
M  V30 18 1 18 19
M  V30 19 1 19 20
M  V30 20 1 20 21
M  V30 21 1 21 22
M  V30 22 1 20 23
M  V30 23 1 23 24
M  V30 24 1 24 25
M  V30 25 1 25 26
M  V30 26 2 26 27
M  V30 27 1 27 28
M  V30 28 2 28 29
M  V30 29 1 29 30
M  V30 30 2 30 31
M  V30 31 1 31 32
M  V30 32 2 32 33
M  V30 33 1 7 2
M  V30 34 1 16 8
M  V30 35 1 33 25
M  V30 36 1 27 6
M  V30 37 1 33 28
M  V30 38 1 16 11
M  V30 39 1 3 34
M  V30 40 1 9 35
M  V30 41 1 12 36
M  V30 42 1 13 37
M  V30 43 1 14 38
M  V30 44 1 15 39
M  V30 45 1 17 40
M  V30 46 1 17 41
M  V30 47 1 18 42
M  V30 48 1 18 43
M  V30 49 1 20 44 CFG=3
M  V30 50 1 21 45
M  V30 51 1 21 46
M  V30 52 1 22 47
M  V30 53 1 23 48
M  V30 54 1 23 49
M  V30 55 1 24 50
M  V30 56 1 24 51
M  V30 57 1 26 52
M  V30 58 1 29 53
M  V30 59 1 30 54
M  V30 60 1 31 55
M  V30 61 1 32 56
M  V30 END BOND
M  V30 END CTAB
M  END
>  <Dataset>  (476) 
ChEMBL_Kinases

>  <Ligand_Instance>  (476) 
nan

>  <PDB_ID>  (476) 
nan

>  <Standardized_SMILES>  (476) 
O=C1NC(=O)C2=C1c1cn(c3ccccc13)CCO[C@H](CO)CCn1cc2c2ccccc21

>  <Name>  (476) 
nan

>  <Pocket>  (476) 
nan

>  <ATP_Site>  (476) 
nan

>  <Peripheral>  (476) 
nan

>  <Num_H_Atoms_ProtBoundConf>  (476) 
nan

>  <Num_Resolved_Atoms>  (476) 
nan

>  <Num_Not_Resolved_Atoms>  (476) 
nan

$$$$
CHEMBL427118
     RDKit          3D

  0  0  0  0  0  0  0  0  0  0999 V3000
M  V30 BEGIN CTAB
M  V30 COUNTS 61 64 0 0 0
M  V30 BEGIN ATOM
M  V30 1 O 3.787761 -1.960882 4.014721 0
M  V30 2 C 2.878585 -1.208154 3.577226 0
M  V30 3 N 3.268368 -0.278442 2.594768 0
M  V30 4 C 4.598143 -0.075762 2.016789 0 CFG=2
M  V30 5 C 5.062950 1.333136 2.141446 0
M  V30 6 C 6.003670 1.485708 0.953090 0
M  V30 7 C 5.431115 0.583014 -0.118912 0
M  V30 8 C 4.444723 -0.306448 0.531644 0
M  V30 9 O 3.121790 -0.204133 0.089032 0
M  V30 10 C 2.358968 -1.217807 -0.404083 0
M  V30 11 O 2.945654 -2.305091 -0.438887 0
M  V30 12 C 0.983759 -1.054875 -0.851622 0
M  V30 13 C 0.443849 0.202749 -0.762490 0
M  V30 14 C -0.874536 0.430963 -1.174010 0
M  V30 15 O -1.324002 1.752384 -1.039362 0
M  V30 16 C -1.654723 -0.585750 -1.671947 0
M  V30 17 C -2.960072 -0.328102 -2.161072 0
M  V30 18 O -2.988527 0.908308 -2.477792 0
M  V30 19 C -4.228472 -0.932675 -2.428718 0
M  V30 20 C -4.944801 -0.363133 -3.489739 0
M  V30 21 O -4.478568 0.709633 -4.274853 0
M  V30 22 C -6.211295 -0.796371 -3.893895 0
M  V30 23 C -6.735555 -1.836117 -3.181330 0
M  V30 24 C -6.105129 -2.444117 -2.133848 0
M  V30 25 C -4.861465 -1.967789 -1.785291 0
M  V30 26 C -4.304630 -2.539381 -0.553624 0
M  V30 27 O -3.358688 -2.351482 0.221746 0
M  V30 28 O -4.826798 -3.606292 0.111880 0
M  V30 29 C -1.015163 -1.833631 -1.726125 0
M  V30 30 O -1.672958 -2.959432 -2.216104 0
M  V30 31 C 0.268528 -2.123789 -1.339833 0
M  V30 32 C 1.492400 -1.255901 4.026940 0
M  V30 33 C 0.461528 -0.460254 3.585007 0
M  V30 34 C -0.820048 -0.584920 4.075981 0
M  V30 35 C -1.095082 -1.531916 5.040924 0
M  V30 36 O -2.427925 -1.550583 5.447869 0
M  V30 37 C -0.088745 -2.347941 5.509059 0
M  V30 38 C 1.194145 -2.209874 5.005183 0
M  V30 39 H 2.626122 0.406749 2.142372 0
M  V30 40 H 5.329778 -0.785710 2.466291 0
M  V30 41 H 4.278138 2.088237 2.188277 0
M  V30 42 H 5.627492 1.403157 3.112626 0
M  V30 43 H 7.002353 1.150459 1.310146 0
M  V30 44 H 6.117867 2.534041 0.649693 0
M  V30 45 H 6.276553 -0.026810 -0.501471 0
M  V30 46 H 5.044800 1.152045 -0.985116 0
M  V30 47 H 4.713110 -1.394633 0.384759 0
M  V30 48 H 1.031433 1.022805 -0.374943 0
M  V30 49 H -1.075522 2.380800 -1.795064 0
M  V30 50 H -4.613461 1.674101 -3.974967 0
M  V30 51 H -6.761165 -0.362830 -4.704986 0
M  V30 52 H -7.709281 -2.209997 -3.455054 0
M  V30 53 H -6.570165 -3.264293 -1.606134 0
M  V30 54 H -4.326689 -4.460371 0.335205 0
M  V30 55 H -2.018873 -3.028353 -3.165157 0
M  V30 56 H 0.735926 -3.086096 -1.389210 0
M  V30 57 H 0.710279 0.270820 2.829433 0
M  V30 58 H -1.562493 0.095991 3.656927 0
M  V30 59 H -3.197029 -1.452320 4.802594 0
M  V30 60 H -0.371744 -3.066828 6.263254 0
M  V30 61 H 1.916001 -2.886429 5.426190 0
M  V30 END ATOM
M  V30 BEGIN BOND
M  V30 1 2 1 2
M  V30 2 1 2 3
M  V30 3 1 3 4
M  V30 4 1 4 5
M  V30 5 1 5 6
M  V30 6 1 6 7
M  V30 7 1 7 8
M  V30 8 1 8 9
M  V30 9 1 9 10
M  V30 10 2 10 11
M  V30 11 1 10 12
M  V30 12 2 12 13
M  V30 13 1 13 14
M  V30 14 1 14 15
M  V30 15 2 14 16
M  V30 16 1 16 17
M  V30 17 2 17 18
M  V30 18 1 17 19
M  V30 19 2 19 20
M  V30 20 1 20 21
M  V30 21 1 20 22
M  V30 22 2 22 23
M  V30 23 1 23 24
M  V30 24 2 24 25
M  V30 25 1 25 26
M  V30 26 2 26 27
M  V30 27 1 26 28
M  V30 28 1 16 29
M  V30 29 1 29 30
M  V30 30 2 29 31
M  V30 31 1 2 32
M  V30 32 2 32 33
M  V30 33 1 33 34
M  V30 34 2 34 35
M  V30 35 1 35 36
M  V30 36 1 35 37
M  V30 37 2 37 38
M  V30 38 1 8 4
M  V30 39 1 31 12
M  V30 40 1 38 32
M  V30 41 1 25 19
M  V30 42 1 3 39
M  V30 43 1 4 40 CFG=1
M  V30 44 1 5 41
M  V30 45 1 5 42
M  V30 46 1 6 43
M  V30 47 1 6 44
M  V30 48 1 7 45
M  V30 49 1 7 46
M  V30 50 1 8 47
M  V30 51 1 13 48
M  V30 52 1 15 49
M  V30 53 1 21 50
M  V30 54 1 22 51
M  V30 55 1 23 52
M  V30 56 1 24 53
M  V30 57 1 28 54
M  V30 58 1 30 55
M  V30 59 1 31 56
M  V30 60 1 33 57
M  V30 61 1 34 58
M  V30 62 1 36 59
M  V30 63 1 37 60
M  V30 64 1 38 61
M  V30 END BOND
M  V30 END CTAB
M  END
>  <Dataset>  (477) 
ChEMBL_Kinases

>  <Ligand_Instance>  (477) 
nan

>  <PDB_ID>  (477) 
nan

>  <Standardized_SMILES>  (477) 
O=C(N[C@@H]1CCCC1OC(=O)c1cc(O)c(C(=O)c2c(O)cccc2C(=O)O)c(O)c1)c1ccc(O)cc1

>  <Name>  (477) 
nan

>  <Pocket>  (477) 
nan

>  <ATP_Site>  (477) 
nan

>  <Peripheral>  (477) 
nan

>  <Num_H_Atoms_ProtBoundConf>  (477) 
nan

>  <Num_Resolved_Atoms>  (477) 
nan

>  <Num_Not_Resolved_Atoms>  (477) 
nan

$$$$
CHEMBL378627
     RDKit          3D

  0  0  0  0  0  0  0  0  0  0999 V3000
M  V30 BEGIN CTAB
M  V30 COUNTS 55 56 0 0 0
M  V30 BEGIN ATOM
M  V30 1 C -2.735193 1.699991 3.346447 0
M  V30 2 O -2.183232 1.703673 2.069196 0
M  V30 3 C -0.848814 1.904151 1.746036 0
M  V30 4 C 0.127242 2.133508 2.714812 0
M  V30 5 C 1.449437 2.331811 2.386873 0
M  V30 6 S 2.701392 2.620250 3.574170 0
M  V30 7 C 2.080377 2.632900 5.232391 0
M  V30 8 O 3.460462 3.902242 3.291471 0
M  V30 9 O 3.706841 1.478597 3.492319 0
M  V30 10 C 1.839895 2.305149 1.046496 0
M  V30 11 O 3.169629 2.504000 0.705499 0
M  V30 12 C 3.495959 2.463512 -0.671882 0
M  V30 13 C 0.850416 2.076819 0.126118 0
M  V30 14 C -0.484795 1.873526 0.414589 0
M  V30 15 C -1.490350 1.626295 -0.680662 0
M  V30 16 C -1.836391 0.185564 -0.735155 0
M  V30 17 O -0.990908 0.223727 0.223549 0
M  V30 18 N -2.644398 -0.733256 -1.443022 0
M  V30 19 C -2.378232 -2.017028 -0.835790 0
M  V30 20 C -3.121772 -2.469805 0.234125 0
M  V30 21 C -2.786505 -3.707453 0.742190 0
M  V30 22 N -3.477431 -4.283833 1.843028 0
M  V30 23 C -1.741347 -4.362955 0.125688 0
M  V30 24 C -1.396272 -5.667531 0.668616 0
M  V30 25 N -1.137057 -6.714002 1.099440 0
M  V30 26 C -0.988585 -3.917903 -0.948486 0
M  V30 27 O 0.034909 -4.709851 -1.449164 0
M  V30 28 C 0.769011 -4.193369 -2.562029 0
M  V30 29 C 0.704019 -5.163491 -3.709118 0
M  V30 30 C 2.236989 -4.021338 -2.185873 0
M  V30 31 N -1.363159 -2.693023 -1.407571 0
M  V30 32 H -3.012137 0.683039 3.702917 0
M  V30 33 H -2.146202 2.199249 4.116538 0
M  V30 34 H -3.704378 2.280920 3.300965 0
M  V30 35 H -0.139005 2.160089 3.754801 0
M  V30 36 H 1.034458 2.933131 5.253954 0
M  V30 37 H 2.160847 1.602775 5.683998 0
M  V30 38 H 2.717915 3.268386 5.881968 0
M  V30 39 H 3.012670 3.287085 -1.226615 0
M  V30 40 H 3.082845 1.505112 -1.094565 0
M  V30 41 H 4.591914 2.484657 -0.839015 0
M  V30 42 H 1.088208 2.043617 -0.934309 0
M  V30 43 H -2.382710 2.190941 -0.412472 0
M  V30 44 H -1.090575 1.947209 -1.640976 0
M  V30 45 H -3.114413 -0.111860 -2.126260 0
M  V30 46 H -3.918233 -1.890287 0.647948 0
M  V30 47 H -3.054183 -4.664585 2.741743 0
M  V30 48 H -4.519860 -4.426283 1.945902 0
M  V30 49 H 0.355430 -3.205153 -2.869396 0
M  V30 50 H 0.565591 -4.582162 -4.643705 0
M  V30 51 H -0.156101 -5.853223 -3.574354 0
M  V30 52 H 1.641485 -5.767399 -3.747529 0
M  V30 53 H 2.574561 -2.977125 -2.209413 0
M  V30 54 H 2.896636 -4.599431 -2.880647 0
M  V30 55 H 2.438184 -4.460512 -1.178533 0
M  V30 END ATOM
M  V30 BEGIN BOND
M  V30 1 1 1 2
M  V30 2 1 2 3
M  V30 3 2 3 4
M  V30 4 1 4 5
M  V30 5 1 5 6
M  V30 6 1 6 7
M  V30 7 2 6 8
M  V30 8 2 6 9
M  V30 9 2 5 10
M  V30 10 1 10 11
M  V30 11 1 11 12
M  V30 12 1 10 13
M  V30 13 2 13 14
M  V30 14 1 14 15
M  V30 15 1 15 16
M  V30 16 2 16 17
M  V30 17 1 16 18
M  V30 18 1 18 19
M  V30 19 2 19 20
M  V30 20 1 20 21
M  V30 21 1 21 22
M  V30 22 2 21 23
M  V30 23 1 23 24
M  V30 24 3 24 25
M  V30 25 1 23 26
M  V30 26 1 26 27
M  V30 27 1 27 28
M  V30 28 1 28 29
M  V30 29 1 28 30
M  V30 30 2 26 31
M  V30 31 1 14 3
M  V30 32 1 31 19
M  V30 33 1 1 32
M  V30 34 1 1 33
M  V30 35 1 1 34
M  V30 36 1 4 35
M  V30 37 1 7 36
M  V30 38 1 7 37
M  V30 39 1 7 38
M  V30 40 1 12 39
M  V30 41 1 12 40
M  V30 42 1 12 41
M  V30 43 1 13 42
M  V30 44 1 15 43
M  V30 45 1 15 44
M  V30 46 1 18 45
M  V30 47 1 20 46
M  V30 48 1 22 47
M  V30 49 1 22 48
M  V30 50 1 28 49
M  V30 51 1 29 50
M  V30 52 1 29 51
M  V30 53 1 29 52
M  V30 54 1 30 53
M  V30 55 1 30 54
M  V30 56 1 30 55
M  V30 END BOND
M  V30 END CTAB
M  END
>  <Dataset>  (478) 
ChEMBL_Kinases

>  <Ligand_Instance>  (478) 
nan

>  <PDB_ID>  (478) 
nan

>  <Standardized_SMILES>  (478) 
COc1cc(S(C)(=O)=O)c(OC)cc1CC(=O)Nc1cc(N)c(C#N)c(OC(C)C)n1

>  <Name>  (478) 
nan

>  <Pocket>  (478) 
nan

>  <ATP_Site>  (478) 
nan

>  <Peripheral>  (478) 
nan

>  <Num_H_Atoms_ProtBoundConf>  (478) 
nan

>  <Num_Resolved_Atoms>  (478) 
nan

>  <Num_Not_Resolved_Atoms>  (478) 
nan

$$$$
CHEMBL332551
     RDKit          3D

  0  0  0  0  0  0  0  0  0  0999 V3000
M  V30 BEGIN CTAB
M  V30 COUNTS 35 38 0 0 0
M  V30 BEGIN ATOM
M  V30 1 N 1.581651 -4.658340 2.124984 0
M  V30 2 C 1.066543 -3.310043 2.115916 0
M  V30 3 N 0.306788 -2.859014 1.123505 0
M  V30 4 C -0.021172 -1.556301 1.394171 0
M  V30 5 C -0.729666 -0.396547 0.913165 0
M  V30 6 C -0.505610 0.313587 -0.144529 0
M  V30 7 C -1.136352 1.502258 -0.764195 0
M  V30 8 N -0.473145 1.817009 -1.821509 0
M  V30 9 C 0.615201 0.923280 -2.011793 0
M  V30 10 C 1.576313 0.911240 -2.995786 0
M  V30 11 C 2.559211 -0.050226 -2.957066 0
M  V30 12 C 2.572062 -0.998135 -1.925372 0
M  V30 13 C 1.580006 -0.926639 -0.976089 0
M  V30 14 C 0.602124 0.003504 -0.989936 0
M  V30 15 C -2.323848 2.131604 -0.143369 0
M  V30 16 O -3.009185 2.733733 -1.035158 0
M  V30 17 N -2.736175 2.125677 1.244396 0
M  V30 18 C -1.989800 1.332581 2.240080 0
M  V30 19 C -1.887730 -0.095178 1.838349 0
M  V30 20 C 0.614566 -1.301222 2.623609 0
M  V30 21 O 0.709756 -0.186348 3.487825 0
M  V30 22 N 1.293591 -2.400197 3.071333 0
M  V30 23 H 1.173888 -5.516377 1.712326 0
M  V30 24 H 2.492017 -4.852824 2.602326 0
M  V30 25 H 1.531453 1.658298 -3.771866 0
M  V30 26 H 3.271835 0.007609 -3.761892 0
M  V30 27 H 3.416151 -1.670686 -2.057460 0
M  V30 28 H 1.793785 -1.689303 -0.304241 0
M  V30 29 H -3.582381 2.733810 1.384963 0
M  V30 30 H -1.022088 1.809046 2.476251 0
M  V30 31 H -2.602015 1.367056 3.164218 0
M  V30 32 H -2.854520 -0.328008 1.293941 0
M  V30 33 H -1.884516 -0.738209 2.713543 0
M  V30 34 H 0.027137 -0.107790 4.253324 0
M  V30 35 H 1.868291 -2.600360 3.911325 0
M  V30 END ATOM
M  V30 BEGIN BOND
M  V30 1 1 1 2
M  V30 2 2 2 3
M  V30 3 1 3 4
M  V30 4 1 4 5
M  V30 5 2 5 6
M  V30 6 1 6 7
M  V30 7 2 7 8
M  V30 8 1 8 9
M  V30 9 2 9 10
M  V30 10 1 10 11
M  V30 11 2 11 12
M  V30 12 1 12 13
M  V30 13 2 13 14
M  V30 14 1 7 15
M  V30 15 2 15 16
M  V30 16 1 15 17
M  V30 17 1 17 18
M  V30 18 1 18 19
M  V30 19 2 4 20
M  V30 20 1 20 21
M  V30 21 1 20 22
M  V30 22 1 22 2
M  V30 23 1 19 5
M  V30 24 1 14 6
M  V30 25 1 14 9
M  V30 26 1 1 23
M  V30 27 1 1 24
M  V30 28 1 10 25
M  V30 29 1 11 26
M  V30 30 1 12 27
M  V30 31 1 13 28
M  V30 32 1 17 29
M  V30 33 1 18 30
M  V30 34 1 18 31
M  V30 35 1 19 32
M  V30 36 1 19 33
M  V30 37 1 21 34
M  V30 38 1 22 35
M  V30 END BOND
M  V30 END CTAB
M  END
>  <Dataset>  (479) 
ChEMBL_Kinases

>  <Ligand_Instance>  (479) 
nan

>  <PDB_ID>  (479) 
nan

>  <Standardized_SMILES>  (479) 
Nc1nc(C2=C3C(=Nc4ccccc43)C(=O)NCC2)c(O)[nH]1

>  <Name>  (479) 
nan

>  <Pocket>  (479) 
nan

>  <ATP_Site>  (479) 
nan

>  <Peripheral>  (479) 
nan

>  <Num_H_Atoms_ProtBoundConf>  (479) 
nan

>  <Num_Resolved_Atoms>  (479) 
nan

>  <Num_Not_Resolved_Atoms>  (479) 
nan

$$$$
CHEMBL1899256
     RDKit          3D

  0  0  0  0  0  0  0  0  0  0999 V3000
M  V30 BEGIN CTAB
M  V30 COUNTS 38 41 0 0 0
M  V30 BEGIN ATOM
M  V30 1 Br -0.982769 -5.947539 1.677104 0
M  V30 2 C 0.446424 -4.707515 1.500843 0
M  V30 3 C 1.700699 -4.987493 0.974052 0
M  V30 4 C 2.665753 -4.000263 0.895746 0
M  V30 5 C 2.392682 -2.700712 1.347373 0
M  V30 6 C 3.505087 -1.732283 1.218285 0
M  V30 7 N 3.543754 -1.063076 -0.064004 0
M  V30 8 C 2.596958 -0.193671 -0.672710 0
M  V30 9 N 2.830508 0.296164 -1.924390 0
M  V30 10 C 1.945575 1.120478 -2.499114 0
M  V30 11 C 0.784280 1.503252 -1.866491 0
M  V30 12 C 0.543604 1.016775 -0.612403 0
M  V30 13 C -0.683557 1.435820 0.043958 0
M  V30 14 C -1.595199 2.278460 -0.542028 0
M  V30 15 C -2.763231 2.691554 0.060793 0
M  V30 16 C -3.078592 2.257903 1.330548 0
M  V30 17 C -2.202256 1.408747 1.973299 0
M  V30 18 C -1.052894 1.037165 1.309416 0
M  V30 19 O -2.751908 1.130392 3.216779 0
M  V30 20 C -4.160929 1.406182 3.165470 0
M  V30 21 O -4.142397 2.472136 2.208146 0
M  V30 22 N 1.455669 0.192960 -0.071756 0
M  V30 23 C 1.139132 -2.453072 1.865526 0
M  V30 24 C 0.166987 -3.426277 1.949930 0
M  V30 25 Br -1.463335 -2.805575 2.704711 0
M  V30 26 H 1.819066 -6.008334 0.654026 0
M  V30 27 H 3.593517 -4.335743 0.471000 0
M  V30 28 H 3.344700 -0.973221 2.040968 0
M  V30 29 H 4.462070 -2.264093 1.359909 0
M  V30 30 H 4.415896 -1.243246 -0.656132 0
M  V30 31 H 2.267895 1.429071 -3.497356 0
M  V30 32 H 0.205599 2.156469 -2.469074 0
M  V30 33 H -1.462463 2.681382 -1.524509 0
M  V30 34 H -3.469944 3.348507 -0.400828 0
M  V30 35 H -0.416364 0.374570 1.875041 0
M  V30 36 H -4.553037 1.713477 4.137928 0
M  V30 37 H -4.647817 0.502947 2.731088 0
M  V30 38 H 1.075558 -1.433430 2.171035 0
M  V30 END ATOM
M  V30 BEGIN BOND
M  V30 1 1 1 2
M  V30 2 2 2 3
M  V30 3 1 3 4
M  V30 4 2 4 5
M  V30 5 1 5 6
M  V30 6 1 6 7
M  V30 7 1 7 8
M  V30 8 2 8 9
M  V30 9 1 9 10
M  V30 10 2 10 11
M  V30 11 1 11 12
M  V30 12 1 12 13
M  V30 13 2 13 14
M  V30 14 1 14 15
M  V30 15 2 15 16
M  V30 16 1 16 17
M  V30 17 2 17 18
M  V30 18 1 17 19
M  V30 19 1 19 20
M  V30 20 1 20 21
M  V30 21 2 12 22
M  V30 22 1 5 23
M  V30 23 2 23 24
M  V30 24 1 24 25
M  V30 25 1 24 2
M  V30 26 1 22 8
M  V30 27 1 18 13
M  V30 28 1 21 16
M  V30 29 1 3 26
M  V30 30 1 4 27
M  V30 31 1 6 28
M  V30 32 1 6 29
M  V30 33 1 7 30
M  V30 34 1 10 31
M  V30 35 1 11 32
M  V30 36 1 14 33
M  V30 37 1 15 34
M  V30 38 1 18 35
M  V30 39 1 20 36
M  V30 40 1 20 37
M  V30 41 1 23 38
M  V30 END BOND
M  V30 END CTAB
M  END
>  <Dataset>  (480) 
ChEMBL_Kinases

>  <Ligand_Instance>  (480) 
nan

>  <PDB_ID>  (480) 
nan

>  <Standardized_SMILES>  (480) 
Brc1ccc(CNc2nccc(-c3ccc4c(c3)OCO4)n2)cc1Br

>  <Name>  (480) 
nan

>  <Pocket>  (480) 
nan

>  <ATP_Site>  (480) 
nan

>  <Peripheral>  (480) 
nan

>  <Num_H_Atoms_ProtBoundConf>  (480) 
nan

>  <Num_Resolved_Atoms>  (480) 
nan

>  <Num_Not_Resolved_Atoms>  (480) 
nan

$$$$
CHEMBL6453
     RDKit          3D

  0  0  0  0  0  0  0  0  0  0999 V3000
M  V30 BEGIN CTAB
M  V30 COUNTS 67 68 0 0 0
M  V30 BEGIN ATOM
M  V30 1 C 3.521968 -2.926463 6.468171 0
M  V30 2 C 4.426530 -1.728832 6.578178 0
M  V30 3 C 4.528075 -0.940073 5.285626 0
M  V30 4 C 3.198374 -0.418620 4.836784 0
M  V30 5 C 3.282057 0.375842 3.530641 0
M  V30 6 C 4.180959 1.562923 3.665055 0
M  V30 7 C 4.352475 2.366957 2.431420 0
M  V30 8 C 3.147074 2.969500 1.807016 0
M  V30 9 C 2.144157 2.043161 1.308118 0
M  V30 10 C 1.300541 1.271235 0.867989 0
M  V30 11 C 0.324559 0.354722 0.339980 0
M  V30 12 C -0.506610 -0.385445 1.161365 0
M  V30 13 C -1.420946 -1.247428 0.570175 0
M  V30 14 C -1.533537 -1.394959 -0.799381 0
M  V30 15 C -0.717178 -0.668893 -1.637973 0
M  V30 16 C 0.202343 0.198386 -1.029606 0
M  V30 17 C -0.509963 -0.523656 -3.072194 0
M  V30 18 C -1.784096 -0.124456 -3.784414 0 CFG=1
M  V30 19 C -1.431198 0.610837 -5.042387 0
M  V30 20 O -0.784082 1.821071 -4.810574 0
M  V30 21 N -2.452434 -1.365356 -4.171393 0
M  V30 22 C -3.184908 -2.308546 -3.362156 0
M  V30 23 O -3.650998 -3.157987 -4.202307 0
M  V30 24 C -3.575082 -2.641450 -2.009217 0 CFG=2
M  V30 25 C -4.948474 -2.160221 -1.620413 0
M  V30 26 C -5.936593 -2.802693 -2.565695 0
M  V30 27 C -5.094396 -0.666911 -1.642109 0
M  V30 28 N -2.568805 -2.356302 -0.972382 0
M  V30 29 C -2.638264 -3.275492 0.155103 0
M  V30 30 H 4.077757 -3.865178 6.743828 0
M  V30 31 H 3.083732 -3.084434 5.481026 0
M  V30 32 H 2.722504 -2.833884 7.242027 0
M  V30 33 H 5.449917 -2.066567 6.819961 0
M  V30 34 H 4.136348 -1.017900 7.366764 0
M  V30 35 H 5.005757 -1.587443 4.532590 0
M  V30 36 H 5.225294 -0.106067 5.500605 0
M  V30 37 H 2.782002 0.265346 5.604198 0
M  V30 38 H 2.448897 -1.223679 4.699764 0
M  V30 39 H 2.241862 0.796625 3.432070 0
M  V30 40 H 3.522962 -0.256847 2.663960 0
M  V30 41 H 5.219595 1.228265 3.979790 0
M  V30 42 H 3.854809 2.221444 4.531391 0
M  V30 43 H 4.767019 1.644435 1.649882 0
M  V30 44 H 5.182767 3.104838 2.562457 0
M  V30 45 H 3.454924 3.679867 0.984456 0
M  V30 46 H 2.647333 3.588159 2.607386 0
M  V30 47 H -0.401618 -0.254619 2.230380 0
M  V30 48 H -2.066354 -1.822726 1.180758 0
M  V30 49 H 0.859290 0.784487 -1.644112 0
M  V30 50 H 0.209398 0.300526 -3.255260 0
M  V30 51 H -0.073804 -1.447495 -3.486308 0
M  V30 52 H -2.401723 0.500296 -3.128489 0
M  V30 53 H -2.335047 0.781482 -5.642450 0
M  V30 54 H -0.748359 -0.059410 -5.630067 0
M  V30 55 H -1.322854 2.567484 -5.207458 0
M  V30 56 H -2.379717 -1.593280 -5.203229 0
M  V30 57 H -3.656456 -3.768986 -1.951033 0
M  V30 58 H -5.196701 -2.533776 -0.608308 0
M  V30 59 H -6.164534 -2.181694 -3.457107 0
M  V30 60 H -5.562805 -3.809259 -2.802894 0
M  V30 61 H -6.902224 -2.923823 -2.029406 0
M  V30 62 H -5.975526 -0.385369 -1.028124 0
M  V30 63 H -5.260989 -0.323282 -2.671760 0
M  V30 64 H -4.154027 -0.227353 -1.252239 0
M  V30 65 H -1.687280 -3.657750 0.526304 0
M  V30 66 H -2.975076 -4.250827 -0.342502 0
M  V30 67 H -3.487857 -3.162670 0.822506 0
M  V30 END ATOM
M  V30 BEGIN BOND
M  V30 1 1 1 2
M  V30 2 1 2 3
M  V30 3 1 3 4
M  V30 4 1 4 5
M  V30 5 1 5 6
M  V30 6 1 6 7
M  V30 7 1 7 8
M  V30 8 1 8 9
M  V30 9 3 9 10
M  V30 10 1 10 11
M  V30 11 2 11 12
M  V30 12 1 12 13
M  V30 13 2 13 14
M  V30 14 1 14 15
M  V30 15 2 15 16
M  V30 16 1 15 17
M  V30 17 1 17 18
M  V30 18 1 18 19
M  V30 19 1 19 20
M  V30 20 1 18 21
M  V30 21 1 21 22
M  V30 22 2 22 23
M  V30 23 1 22 24
M  V30 24 1 24 25
M  V30 25 1 25 26
M  V30 26 1 25 27
M  V30 27 1 24 28
M  V30 28 1 28 29
M  V30 29 1 16 11
M  V30 30 1 28 14
M  V30 31 1 1 30
M  V30 32 1 1 31
M  V30 33 1 1 32
M  V30 34 1 2 33
M  V30 35 1 2 34
M  V30 36 1 3 35
M  V30 37 1 3 36
M  V30 38 1 4 37
M  V30 39 1 4 38
M  V30 40 1 5 39
M  V30 41 1 5 40
M  V30 42 1 6 41
M  V30 43 1 6 42
M  V30 44 1 7 43
M  V30 45 1 7 44
M  V30 46 1 8 45
M  V30 47 1 8 46
M  V30 48 1 12 47
M  V30 49 1 13 48
M  V30 50 1 16 49
M  V30 51 1 17 50
M  V30 52 1 17 51
M  V30 53 1 18 52 CFG=1
M  V30 54 1 19 53
M  V30 55 1 19 54
M  V30 56 1 20 55
M  V30 57 1 21 56
M  V30 58 1 24 57 CFG=3
M  V30 59 1 25 58
M  V30 60 1 26 59
M  V30 61 1 26 60
M  V30 62 1 26 61
M  V30 63 1 27 62
M  V30 64 1 27 63
M  V30 65 1 27 64
M  V30 66 1 29 65
M  V30 67 1 29 66
M  V30 68 1 29 67
M  V30 END BOND
M  V30 END CTAB
M  END
>  <Dataset>  (481) 
ChEMBL_Kinases

>  <Ligand_Instance>  (481) 
nan

>  <PDB_ID>  (481) 
nan

>  <Standardized_SMILES>  (481) 
CCCCCCCCC#Cc1ccc2c(c1)C[C@@H](CO)NC(=O)[C@H](C(C)C)N2C

>  <Name>  (481) 
nan

>  <Pocket>  (481) 
nan

>  <ATP_Site>  (481) 
nan

>  <Peripheral>  (481) 
nan

>  <Num_H_Atoms_ProtBoundConf>  (481) 
nan

>  <Num_Resolved_Atoms>  (481) 
nan

>  <Num_Not_Resolved_Atoms>  (481) 
nan

$$$$
CHEMBL3975634
     RDKit          3D

  0  0  0  0  0  0  0  0  0  0999 V3000
M  V30 BEGIN CTAB
M  V30 COUNTS 58 65 0 0 0
M  V30 BEGIN ATOM
M  V30 1 C 3.464318 -2.201087 2.799270 0
M  V30 2 N 2.691140 -1.058406 3.244224 0
M  V30 3 C 1.505972 -0.876205 2.429213 0 CFG=1
M  V30 4 C 0.666769 -2.098704 2.533328 0
M  V30 5 C -0.775332 -1.939019 2.180046 0
M  V30 6 O -1.341773 -0.728791 2.442098 0
M  V30 7 C -0.631236 0.406316 2.221569 0
M  V30 8 C 0.716266 0.332968 2.831564 0 CFG=1
M  V30 9 O 0.534805 0.251550 4.223865 0
M  V30 10 C 1.183558 1.289543 4.880536 0
M  V30 11 N -0.663572 0.855312 0.839380 0
M  V30 12 C -0.607274 2.076831 0.336778 0
M  V30 13 C -0.495919 3.287523 0.997996 0
M  V30 14 C -0.456725 4.442776 0.231037 0
M  V30 15 C -0.525052 4.423587 -1.166832 0
M  V30 16 C -0.637495 3.190837 -1.820678 0
M  V30 17 C -0.674537 2.060215 -1.042624 0
M  V30 18 C -0.780304 0.747011 -1.447293 0
M  V30 19 C -0.883142 0.073308 -2.645086 0
M  V30 20 C -0.973554 -1.295236 -2.635620 0
M  V30 21 C -0.964054 -1.994570 -1.485091 0
M  V30 22 C -1.038241 -3.325760 -1.221855 0
M  V30 23 C -1.147644 -4.510943 -1.866863 0
M  V30 24 C -1.200617 -5.755380 -1.288659 0
M  V30 25 C -1.136868 -5.830614 0.103990 0
M  V30 26 C -1.023460 -4.633460 0.814226 0
M  V30 27 C -0.976039 -3.409772 0.151095 0
M  V30 28 N -0.866567 -2.181752 0.741044 0
M  V30 29 C -0.862088 -1.327173 -0.297468 0
M  V30 30 C -0.767960 0.048324 -0.234414 0
M  V30 31 C -1.066122 -1.680981 -4.014649 0
M  V30 32 O -1.177389 -2.857169 -4.697419 0
M  V30 33 N -1.036860 -0.669165 -4.796285 0
M  V30 34 C -0.916775 0.584620 -4.037760 0
M  V30 35 H 4.445255 -2.137748 3.347724 0
M  V30 36 H 3.638060 -2.128947 1.699541 0
M  V30 37 H 2.924489 -3.126754 3.071813 0
M  V30 38 H 3.333623 -0.231425 3.182420 0
M  V30 39 H 1.864692 -0.781912 1.373356 0
M  V30 40 H 1.143829 -2.873913 1.885006 0
M  V30 41 H 0.776839 -2.489388 3.564559 0
M  V30 42 H -1.323183 -2.779128 2.686886 0
M  V30 43 H -1.186485 1.224097 2.779397 0
M  V30 44 H 1.341880 1.229347 2.676732 0
M  V30 45 H 0.789113 2.281201 4.539898 0
M  V30 46 H 2.277027 1.217658 4.864489 0
M  V30 47 H 0.870954 1.207300 5.952790 0
M  V30 48 H -0.442696 3.309344 2.077686 0
M  V30 49 H -0.369044 5.425986 0.710649 0
M  V30 50 H -0.493592 5.331224 -1.755446 0
M  V30 51 H -0.693715 3.123067 -2.899192 0
M  V30 52 H -1.201184 -4.531132 -2.925347 0
M  V30 53 H -1.288990 -6.687626 -1.842726 0
M  V30 54 H -1.169504 -6.752610 0.666552 0
M  V30 55 H -0.974622 -4.692251 1.882727 0
M  V30 56 H -1.918268 -3.130684 -5.333982 0
M  V30 57 H -1.771698 1.223637 -4.259610 0
M  V30 58 H 0.035599 1.036271 -4.361319 0
M  V30 END ATOM
M  V30 BEGIN BOND
M  V30 1 1 1 2
M  V30 2 1 2 3
M  V30 3 1 3 4
M  V30 4 1 4 5
M  V30 5 1 5 6
M  V30 6 1 6 7
M  V30 7 1 7 8
M  V30 8 1 8 9
M  V30 9 1 9 10
M  V30 10 1 7 11
M  V30 11 1 11 12
M  V30 12 2 12 13
M  V30 13 1 13 14
M  V30 14 2 14 15
M  V30 15 1 15 16
M  V30 16 2 16 17
M  V30 17 1 17 18
M  V30 18 2 18 19
M  V30 19 1 19 20
M  V30 20 2 20 21
M  V30 21 1 21 22
M  V30 22 2 22 23
M  V30 23 1 23 24
M  V30 24 2 24 25
M  V30 25 1 25 26
M  V30 26 2 26 27
M  V30 27 1 27 28
M  V30 28 1 28 29
M  V30 29 2 29 30
M  V30 30 1 20 31
M  V30 31 1 31 32
M  V30 32 2 31 33
M  V30 33 1 33 34
M  V30 34 1 8 3
M  V30 35 1 30 11
M  V30 36 1 28 5
M  V30 37 1 17 12
M  V30 38 1 30 18
M  V30 39 1 34 19
M  V30 40 1 29 21
M  V30 41 1 27 22
M  V30 42 1 1 35
M  V30 43 1 1 36
M  V30 44 1 1 37
M  V30 45 1 2 38
M  V30 46 1 3 39 CFG=3
M  V30 47 1 4 40
M  V30 48 1 4 41
M  V30 49 1 5 42
M  V30 50 1 7 43
M  V30 51 1 8 44 CFG=1
M  V30 52 1 10 45
M  V30 53 1 10 46
M  V30 54 1 10 47
M  V30 55 1 13 48
M  V30 56 1 14 49
M  V30 57 1 15 50
M  V30 58 1 16 51
M  V30 59 1 23 52
M  V30 60 1 24 53
M  V30 61 1 25 54
M  V30 62 1 26 55
M  V30 63 1 32 56
M  V30 64 1 34 57
M  V30 65 1 34 58
M  V30 END BOND
M  V30 END CTAB
M  END
>  <Dataset>  (482) 
ChEMBL_Kinases

>  <Ligand_Instance>  (482) 
nan

>  <PDB_ID>  (482) 
nan

>  <Standardized_SMILES>  (482) 
CN[C@H]1CC2OC([C@H]1OC)n1c3ccccc3c3c4c(c5c6ccccc6n2c5c31)C(O)=NC4

>  <Name>  (482) 
nan

>  <Pocket>  (482) 
nan

>  <ATP_Site>  (482) 
nan

>  <Peripheral>  (482) 
nan

>  <Num_H_Atoms_ProtBoundConf>  (482) 
nan

>  <Num_Resolved_Atoms>  (482) 
nan

>  <Num_Not_Resolved_Atoms>  (482) 
nan

$$$$
CHEMBL311399
     RDKit          3D

  0  0  0  0  0  0  0  0  0  0999 V3000
M  V30 BEGIN CTAB
M  V30 COUNTS 66 69 0 0 0
M  V30 BEGIN ATOM
M  V30 1 O 1.799225 4.822724 2.021863 0
M  V30 2 C 2.685379 4.222284 1.359138 0
M  V30 3 N 2.344544 2.959368 0.865067 0
M  V30 4 C 1.325510 1.982463 0.814876 0 CFG=2
M  V30 5 C 1.656958 0.760152 1.639153 0
M  V30 6 N 1.229180 -0.416982 0.958160 0
M  V30 7 C 2.105192 -0.974915 -0.005231 0
M  V30 8 C 1.836769 -0.465405 -1.405807 0
M  V30 9 C 1.765763 1.019503 -1.464999 0
M  V30 10 C 0.733338 1.634342 -0.519117 0
M  V30 11 O -0.279845 0.712652 -0.326341 0
M  V30 12 C -1.535224 0.634754 -0.881691 0
M  V30 13 O -1.963980 1.457390 -1.729720 0
M  V30 14 C -2.312399 -0.504694 -0.397412 0
M  V30 15 C -2.025408 -1.142245 0.781824 0
M  V30 16 C -2.642552 -2.349526 1.191226 0
M  V30 17 O -2.115882 -2.730305 2.446349 0
M  V30 18 C -3.625952 -2.986271 0.379312 0
M  V30 19 C -3.973434 -4.216123 1.169342 0
M  V30 20 O -4.246150 -3.690728 2.220404 0
M  V30 21 C -3.769662 -5.235973 0.217308 0
M  V30 22 C -3.572287 -6.225199 -0.705436 0
M  V30 23 O -3.018325 -5.225037 -1.581463 0
M  V30 24 C -3.710527 -7.538243 -0.962322 0
M  V30 25 C -4.241243 -8.300141 -0.013275 0
M  V30 26 C -4.587191 -7.625210 1.128280 0
M  V30 27 C -4.359452 -6.175093 1.224122 0
M  V30 28 C -4.982150 -6.048474 2.618536 0
M  V30 29 O -5.334542 -5.239638 3.519399 0
M  V30 30 O -5.480112 -6.826125 3.620100 0
M  V30 31 C -3.913968 -2.324610 -0.803052 0
M  V30 32 O -4.881758 -3.074367 -1.425723 0
M  V30 33 C -3.270092 -1.174826 -1.111205 0
M  V30 34 C 3.978614 4.849274 1.150554 0
M  V30 35 C 4.947621 4.435699 0.287850 0
M  V30 36 C 6.185122 5.012378 0.179078 0
M  V30 37 C 6.457147 6.086093 1.000557 0
M  V30 38 O 7.721542 6.694098 0.903697 0
M  V30 39 C 5.541334 6.616412 1.935631 0
M  V30 40 C 4.348219 5.929303 1.926679 0
M  V30 41 H 3.097760 2.470374 0.301738 0
M  V30 42 H 0.464843 2.438677 1.372486 0
M  V30 43 H 2.732165 0.647113 1.849020 0
M  V30 44 H 1.174820 0.761103 2.646774 0
M  V30 45 H 0.952184 -1.173829 1.671747 0
M  V30 46 H 3.180908 -0.962746 0.268814 0
M  V30 47 H 1.843478 -2.078510 -0.066776 0
M  V30 48 H 0.828848 -0.849462 -1.731823 0
M  V30 49 H 2.645596 -0.845561 -2.044602 0
M  V30 50 H 1.372958 1.253066 -2.502825 0
M  V30 51 H 2.736499 1.547937 -1.430599 0
M  V30 52 H 0.338415 2.505955 -1.077059 0
M  V30 53 H -1.320226 -0.621237 1.397410 0
M  V30 54 H -2.500786 -2.408053 3.325084 0
M  V30 55 H -3.547338 -5.218449 -2.472221 0
M  V30 56 H -3.324513 -7.668002 -1.960033 0
M  V30 57 H -4.298212 -9.311399 -0.334831 0
M  V30 58 H -5.000140 -8.412606 1.800106 0
M  V30 59 H -4.968397 -7.109264 4.482083 0
M  V30 60 H -5.420624 -2.639648 -2.148683 0
M  V30 61 H -3.610448 -0.782525 -2.072675 0
M  V30 62 H 4.747446 3.583438 -0.360510 0
M  V30 63 H 6.972190 4.686404 -0.502741 0
M  V30 64 H 8.300366 6.523974 0.070731 0
M  V30 65 H 5.727730 7.440907 2.580011 0
M  V30 66 H 3.611934 6.309280 2.630901 0
M  V30 END ATOM
M  V30 BEGIN BOND
M  V30 1 2 1 2
M  V30 2 1 2 3
M  V30 3 1 3 4
M  V30 4 1 4 5
M  V30 5 1 5 6
M  V30 6 1 6 7
M  V30 7 1 7 8
M  V30 8 1 8 9
M  V30 9 1 9 10
M  V30 10 1 10 11
M  V30 11 1 11 12
M  V30 12 2 12 13
M  V30 13 1 12 14
M  V30 14 2 14 15
M  V30 15 1 15 16
M  V30 16 1 16 17
M  V30 17 2 16 18
M  V30 18 1 18 19
M  V30 19 2 19 20
M  V30 20 1 19 21
M  V30 21 2 21 22
M  V30 22 1 22 23
M  V30 23 1 22 24
M  V30 24 2 24 25
M  V30 25 1 25 26
M  V30 26 2 26 27
M  V30 27 1 27 28
M  V30 28 2 28 29
M  V30 29 1 28 30
M  V30 30 1 18 31
M  V30 31 1 31 32
M  V30 32 2 31 33
M  V30 33 1 2 34
M  V30 34 2 34 35
M  V30 35 1 35 36
M  V30 36 2 36 37
M  V30 37 1 37 38
M  V30 38 1 37 39
M  V30 39 2 39 40
M  V30 40 1 10 4
M  V30 41 1 33 14
M  V30 42 1 40 34
M  V30 43 1 27 21
M  V30 44 1 3 41
M  V30 45 1 4 42 CFG=1
M  V30 46 1 5 43
M  V30 47 1 5 44
M  V30 48 1 6 45
M  V30 49 1 7 46
M  V30 50 1 7 47
M  V30 51 1 8 48
M  V30 52 1 8 49
M  V30 53 1 9 50
M  V30 54 1 9 51
M  V30 55 1 10 52
M  V30 56 1 15 53
M  V30 57 1 17 54
M  V30 58 1 23 55
M  V30 59 1 24 56
M  V30 60 1 25 57
M  V30 61 1 26 58
M  V30 62 1 30 59
M  V30 63 1 32 60
M  V30 64 1 33 61
M  V30 65 1 35 62
M  V30 66 1 36 63
M  V30 67 1 38 64
M  V30 68 1 39 65
M  V30 69 1 40 66
M  V30 END BOND
M  V30 END CTAB
M  END
>  <Dataset>  (483) 
ChEMBL_Kinases

>  <Ligand_Instance>  (483) 
nan

>  <PDB_ID>  (483) 
nan

>  <Standardized_SMILES>  (483) 
O=C(N[C@@H]1CNCCCC1OC(=O)c1cc(O)c(C(=O)c2c(O)cccc2C(=O)O)c(O)c1)c1ccc(O)cc1

>  <Name>  (483) 
nan

>  <Pocket>  (483) 
nan

>  <ATP_Site>  (483) 
nan

>  <Peripheral>  (483) 
nan

>  <Num_H_Atoms_ProtBoundConf>  (483) 
nan

>  <Num_Resolved_Atoms>  (483) 
nan

>  <Num_Not_Resolved_Atoms>  (483) 
nan

$$$$
CHEMBL5088687
     RDKit          3D

  0  0  0  0  0  0  0  0  0  0999 V3000
M  V30 BEGIN CTAB
M  V30 COUNTS 42 45 0 0 0
M  V30 BEGIN ATOM
M  V30 1 C 1.591151 -4.440736 -1.469604 0
M  V30 2 C 1.309357 -3.535759 -0.318033 0
M  V30 3 N 0.477976 -2.495193 -0.488466 0
M  V30 4 C 0.183518 -1.638134 0.524418 0
M  V30 5 N -0.728598 -0.579959 0.320307 0
M  V30 6 C -1.265428 -0.433857 -1.014625 0
M  V30 7 C -0.182223 -0.199632 -2.014310 0
M  V30 8 N 0.322874 -1.082457 -2.896840 0
M  V30 9 C 1.313707 -0.683904 -3.733230 0
M  V30 10 C 1.825975 0.615225 -3.706224 0
M  V30 11 C 1.320204 1.530878 -2.809293 0
M  V30 12 C 0.303439 1.090487 -1.964327 0
M  V30 13 F -0.139748 2.066550 -1.105179 0
M  V30 14 C 0.810032 -1.937051 1.712757 0
M  V30 15 C 0.657849 -1.204772 2.865227 0
M  V30 16 C 0.007703 -0.001789 3.351944 0
M  V30 17 C -0.904090 -0.237911 4.395943 0
M  V30 18 C -1.611555 0.745006 5.045607 0
M  V30 19 N -1.412838 2.010510 4.651338 0
M  V30 20 C -0.567835 2.346929 3.667984 0
M  V30 21 N -0.295608 3.656082 3.186936 0
M  V30 22 C 0.132311 1.356487 3.027576 0
M  V30 23 C 1.467489 -1.876749 3.795402 0
M  V30 24 N 2.063879 -2.939502 3.227200 0
M  V30 25 C 1.669193 -2.988441 1.944603 0
M  V30 26 N 1.906342 -3.792251 0.882408 0
M  V30 27 H 2.559146 -4.190998 -1.960102 0
M  V30 28 H 1.592906 -5.519966 -1.165167 0
M  V30 29 H 0.818384 -4.331755 -2.236327 0
M  V30 30 H -1.099227 0.113625 0.962949 0
M  V30 31 H -2.011541 0.375754 -1.060241 0
M  V30 32 H -1.797578 -1.349158 -1.351062 0
M  V30 33 H 1.717937 -1.381857 -4.435839 0
M  V30 34 H 2.618037 0.919008 -4.380908 0
M  V30 35 H 1.713190 2.531373 -2.786884 0
M  V30 36 H -1.115928 -1.250979 4.771242 0
M  V30 37 H -2.304425 0.527737 5.843937 0
M  V30 38 H -0.360875 3.974894 2.191962 0
M  V30 39 H -0.002327 4.360397 3.907296 0
M  V30 40 H 0.861522 1.450447 2.205131 0
M  V30 41 H 1.700208 -1.710928 4.853178 0
M  V30 42 H 2.720387 -3.660197 3.593026 0
M  V30 END ATOM
M  V30 BEGIN BOND
M  V30 1 1 1 2
M  V30 2 2 2 3
M  V30 3 1 3 4
M  V30 4 1 4 5
M  V30 5 1 5 6
M  V30 6 1 6 7
M  V30 7 2 7 8
M  V30 8 1 8 9
M  V30 9 2 9 10
M  V30 10 1 10 11
M  V30 11 2 11 12
M  V30 12 1 12 13
M  V30 13 2 4 14
M  V30 14 1 14 15
M  V30 15 1 15 16
M  V30 16 2 16 17
M  V30 17 1 17 18
M  V30 18 2 18 19
M  V30 19 1 19 20
M  V30 20 1 20 21
M  V30 21 2 20 22
M  V30 22 2 15 23
M  V30 23 1 23 24
M  V30 24 1 24 25
M  V30 25 2 25 26
M  V30 26 1 26 2
M  V30 27 1 12 7
M  V30 28 1 25 14
M  V30 29 1 22 16
M  V30 30 1 1 27
M  V30 31 1 1 28
M  V30 32 1 1 29
M  V30 33 1 5 30
M  V30 34 1 6 31
M  V30 35 1 6 32
M  V30 36 1 9 33
M  V30 37 1 10 34
M  V30 38 1 11 35
M  V30 39 1 17 36
M  V30 40 1 18 37
M  V30 41 1 21 38
M  V30 42 1 21 39
M  V30 43 1 22 40
M  V30 44 1 23 41
M  V30 45 1 24 42
M  V30 END BOND
M  V30 END CTAB
M  END
>  <Dataset>  (484) 
ChEMBL_Kinases

>  <Ligand_Instance>  (484) 
nan

>  <PDB_ID>  (484) 
nan

>  <Standardized_SMILES>  (484) 
Cc1nc(NCc2ncccc2F)c2c(-c3ccnc(N)c3)c[nH]c2n1

>  <Name>  (484) 
nan

>  <Pocket>  (484) 
nan

>  <ATP_Site>  (484) 
nan

>  <Peripheral>  (484) 
nan

>  <Num_H_Atoms_ProtBoundConf>  (484) 
nan

>  <Num_Resolved_Atoms>  (484) 
nan

>  <Num_Not_Resolved_Atoms>  (484) 
nan

$$$$
CHEMBL4072828
     RDKit          3D

  0  0  0  0  0  0  0  0  0  0999 V3000
M  V30 BEGIN CTAB
M  V30 COUNTS 57 61 0 0 0
M  V30 BEGIN ATOM
M  V30 1 O -1.062433 -0.687484 5.821310 0
M  V30 2 C -0.739778 -0.840241 4.628822 0
M  V30 3 N 0.625954 -0.663216 4.271645 0
M  V30 4 C 1.587380 -0.312575 5.309183 0
M  V30 5 C 2.945540 -0.149951 4.778123 0
M  V30 6 C 3.886402 -1.171108 4.951366 0
M  V30 7 C 5.175113 -1.075188 4.465250 0
M  V30 8 C 5.563384 0.050155 3.788133 0
M  V30 9 C 4.603123 1.027746 3.642809 0
M  V30 10 C 3.283902 0.995079 4.108850 0
M  V30 11 C 2.374784 2.137631 3.876141 0
M  V30 12 F 1.252215 1.849801 3.167020 0
M  V30 13 F 3.067523 3.106262 3.149705 0
M  V30 14 F 2.068621 2.659402 5.125944 0
M  V30 15 C -1.784578 -1.190682 3.676021 0
M  V30 16 C -3.068041 -1.321501 4.155515 0
M  V30 17 C -4.105892 -1.655628 3.287606 0
M  V30 18 C -3.891354 -1.861944 1.952509 0
M  V30 19 C -2.598343 -1.730248 1.468289 0
M  V30 20 N -2.266086 -1.925935 0.084750 0
M  V30 21 C -0.920961 -1.801638 -0.476555 0
M  V30 22 C -0.916824 -2.069456 -1.927912 0
M  V30 23 N -0.731375 -3.330931 -2.417058 0
M  V30 24 N -0.771836 -3.297452 -3.749039 0
M  V30 25 C -0.980554 -2.026661 -4.086179 0
M  V30 26 N -1.072518 -1.256714 -2.989466 0
M  V30 27 C -1.288318 0.153769 -2.822246 0
M  V30 28 C -2.388932 0.580202 -3.769743 0
M  V30 29 O -1.875825 0.751985 -5.099892 0
M  V30 30 C -1.495326 -0.324463 -5.924585 0
M  V30 31 C -1.541744 -0.070887 -7.281975 0
M  V30 32 N -1.194962 -1.042151 -8.148080 0
M  V30 33 C -0.797650 -2.271846 -7.741244 0
M  V30 34 C -0.727344 -2.595975 -6.402523 0
M  V30 35 C -1.085844 -1.592771 -5.494384 0
M  V30 36 C -1.571949 -1.399503 2.328851 0
M  V30 37 H 0.867885 -0.797524 3.281852 0
M  V30 38 H 1.232086 0.580137 5.883404 0
M  V30 39 H 1.591087 -1.134355 6.054045 0
M  V30 40 H 3.587806 -2.081950 5.494040 0
M  V30 41 H 5.912495 -1.857563 4.591930 0
M  V30 42 H 6.543611 0.206323 3.377367 0
M  V30 43 H 4.900119 1.939163 3.100474 0
M  V30 44 H -3.320157 -1.170839 5.216119 0
M  V30 45 H -5.131542 -1.763071 3.656264 0
M  V30 46 H -4.679977 -2.121679 1.260670 0
M  V30 47 H -3.059223 -2.173253 -0.541139 0
M  V30 48 H -0.268141 -2.519580 0.058465 0
M  V30 49 H -0.496880 -0.796390 -0.266677 0
M  V30 50 H -1.472205 0.451509 -1.791177 0
M  V30 51 H -0.376934 0.728934 -3.159646 0
M  V30 52 H -3.202149 -0.172808 -3.733461 0
M  V30 53 H -2.761033 1.563006 -3.396125 0
M  V30 54 H -1.858354 0.910375 -7.608007 0
M  V30 55 H -0.511584 -3.075471 -8.415095 0
M  V30 56 H -0.413811 -3.573423 -6.020453 0
M  V30 57 H -0.576562 -1.301173 1.941284 0
M  V30 END ATOM
M  V30 BEGIN BOND
M  V30 1 2 1 2
M  V30 2 1 2 3
M  V30 3 1 3 4
M  V30 4 1 4 5
M  V30 5 2 5 6
M  V30 6 1 6 7
M  V30 7 2 7 8
M  V30 8 1 8 9
M  V30 9 2 9 10
M  V30 10 1 10 11
M  V30 11 1 11 12
M  V30 12 1 11 13
M  V30 13 1 11 14
M  V30 14 1 2 15
M  V30 15 2 15 16
M  V30 16 1 16 17
M  V30 17 2 17 18
M  V30 18 1 18 19
M  V30 19 1 19 20
M  V30 20 1 20 21
M  V30 21 1 21 22
M  V30 22 2 22 23
M  V30 23 1 23 24
M  V30 24 2 24 25
M  V30 25 1 25 26
M  V30 26 1 26 27
M  V30 27 1 27 28
M  V30 28 1 28 29
M  V30 29 1 29 30
M  V30 30 2 30 31
M  V30 31 1 31 32
M  V30 32 2 32 33
M  V30 33 1 33 34
M  V30 34 2 34 35
M  V30 35 2 19 36
M  V30 36 1 10 5
M  V30 37 1 36 15
M  V30 38 1 26 22
M  V30 39 1 35 30
M  V30 40 1 35 25
M  V30 41 1 3 37
M  V30 42 1 4 38
M  V30 43 1 4 39
M  V30 44 1 6 40
M  V30 45 1 7 41
M  V30 46 1 8 42
M  V30 47 1 9 43
M  V30 48 1 16 44
M  V30 49 1 17 45
M  V30 50 1 18 46
M  V30 51 1 20 47
M  V30 52 1 21 48
M  V30 53 1 21 49
M  V30 54 1 27 50
M  V30 55 1 27 51
M  V30 56 1 28 52
M  V30 57 1 28 53
M  V30 58 1 31 54
M  V30 59 1 33 55
M  V30 60 1 34 56
M  V30 61 1 36 57
M  V30 END BOND
M  V30 END CTAB
M  END
>  <Dataset>  (485) 
ChEMBL_Kinases

>  <Ligand_Instance>  (485) 
nan

>  <PDB_ID>  (485) 
nan

>  <Standardized_SMILES>  (485) 
O=C(NCc1ccccc1C(F)(F)F)c1cccc(NCc2nnc3n2CCOc2cnccc2-3)c1

>  <Name>  (485) 
nan

>  <Pocket>  (485) 
nan

>  <ATP_Site>  (485) 
nan

>  <Peripheral>  (485) 
nan

>  <Num_H_Atoms_ProtBoundConf>  (485) 
nan

>  <Num_Resolved_Atoms>  (485) 
nan

>  <Num_Not_Resolved_Atoms>  (485) 
nan

$$$$
CHEMBL1892019
     RDKit          3D

  0  0  0  0  0  0  0  0  0  0999 V3000
M  V30 BEGIN CTAB
M  V30 COUNTS 38 41 0 0 0
M  V30 BEGIN ATOM
M  V30 1 Cl -2.285794 -4.431967 4.013025 0
M  V30 2 C -1.132490 -4.153469 2.737038 0
M  V30 3 C -0.931861 -5.049060 1.693414 0
M  V30 4 C 0.016930 -4.736334 0.716195 0
M  V30 5 C 0.756910 -3.568275 0.758103 0
M  V30 6 C 1.683269 -3.506434 -0.392961 0
M  V30 7 N 0.973430 -2.895912 -1.495805 0
M  V30 8 C 0.422593 -1.600564 -1.649604 0
M  V30 9 N -0.238260 -1.317655 -2.809823 0
M  V30 10 C -0.768348 -0.104551 -2.998124 0
M  V30 11 C -0.653733 0.866968 -2.028411 0
M  V30 12 C 0.010476 0.590015 -0.857297 0
M  V30 13 C 0.121012 1.641290 0.144366 0
M  V30 14 C -0.415008 2.899713 -0.011959 0
M  V30 15 C -0.315912 3.904323 0.925432 0
M  V30 16 C 0.352923 3.676943 2.105873 0
M  V30 17 N 0.600286 4.453483 3.173718 0
M  V30 18 N 1.293475 3.753830 4.055752 0
M  V30 19 C 1.496362 2.522004 3.560602 0
M  V30 20 C 0.908990 2.434161 2.313669 0
M  V30 21 C 0.780423 1.461858 1.340784 0
M  V30 22 N 0.526805 -0.642052 -0.711812 0
M  V30 23 C 0.538318 -2.700590 1.801098 0
M  V30 24 C -0.391604 -3.000227 2.764932 0
M  V30 25 Cl -0.539921 -1.778602 4.023190 0
M  V30 26 H -1.535722 -5.938320 1.714451 0
M  V30 27 H 0.057612 -5.533518 -0.031069 0
M  V30 28 H 2.455989 -2.730455 -0.094634 0
M  V30 29 H 2.156436 -4.451017 -0.630337 0
M  V30 30 H 0.868402 -3.572893 -2.311294 0
M  V30 31 H -1.270056 0.013495 -3.952647 0
M  V30 32 H -1.120762 1.781031 -2.311246 0
M  V30 33 H -0.946196 3.172429 -0.892355 0
M  V30 34 H -0.746803 4.880376 0.775108 0
M  V30 35 H 0.306012 5.459472 3.319977 0
M  V30 36 H 2.025646 1.677702 4.006034 0
M  V30 37 H 1.243862 0.534831 1.588480 0
M  V30 38 H 1.171030 -1.833165 1.730319 0
M  V30 END ATOM
M  V30 BEGIN BOND
M  V30 1 1 1 2
M  V30 2 2 2 3
M  V30 3 1 3 4
M  V30 4 2 4 5
M  V30 5 1 5 6
M  V30 6 1 6 7
M  V30 7 1 7 8
M  V30 8 2 8 9
M  V30 9 1 9 10
M  V30 10 2 10 11
M  V30 11 1 11 12
M  V30 12 1 12 13
M  V30 13 2 13 14
M  V30 14 1 14 15
M  V30 15 2 15 16
M  V30 16 1 16 17
M  V30 17 1 17 18
M  V30 18 2 18 19
M  V30 19 1 19 20
M  V30 20 2 20 21
M  V30 21 2 12 22
M  V30 22 1 5 23
M  V30 23 2 23 24
M  V30 24 1 24 25
M  V30 25 1 24 2
M  V30 26 1 22 8
M  V30 27 1 21 13
M  V30 28 1 20 16
M  V30 29 1 3 26
M  V30 30 1 4 27
M  V30 31 1 6 28
M  V30 32 1 6 29
M  V30 33 1 7 30
M  V30 34 1 10 31
M  V30 35 1 11 32
M  V30 36 1 14 33
M  V30 37 1 15 34
M  V30 38 1 17 35
M  V30 39 1 19 36
M  V30 40 1 21 37
M  V30 41 1 23 38
M  V30 END BOND
M  V30 END CTAB
M  END
>  <Dataset>  (486) 
ChEMBL_Kinases

>  <Ligand_Instance>  (486) 
nan

>  <PDB_ID>  (486) 
nan

>  <Standardized_SMILES>  (486) 
Clc1ccc(CNc2nccc(-c3ccc4[nH]ncc4c3)n2)cc1Cl

>  <Name>  (486) 
nan

>  <Pocket>  (486) 
nan

>  <ATP_Site>  (486) 
nan

>  <Peripheral>  (486) 
nan

>  <Num_H_Atoms_ProtBoundConf>  (486) 
nan

>  <Num_Resolved_Atoms>  (486) 
nan

>  <Num_Not_Resolved_Atoms>  (486) 
nan

$$$$
CHEMBL3991934
     RDKit          3D

  0  0  0  0  0  0  0  0  0  0999 V3000
M  V30 BEGIN CTAB
M  V30 COUNTS 68 72 0 0 0
M  V30 BEGIN ATOM
M  V30 1 C -1.706688 -4.748175 1.525969 0
M  V30 2 O -0.735549 -5.147342 2.402428 0
M  V30 3 C 0.320193 -4.258843 2.489406 0
M  V30 4 C -0.046638 -2.894609 2.871085 0
M  V30 5 C -0.465909 -1.931530 1.941441 0
M  V30 6 C -0.612709 -1.847551 0.497535 0
M  V30 7 C 0.654497 -1.531812 -0.017443 0
M  V30 8 C 0.873615 -1.354132 -1.392239 0
M  V30 9 C -0.192187 -1.495696 -2.258422 0
M  V30 10 N -0.244374 -1.377299 -3.676428 0
M  V30 11 C -0.472982 -0.009877 -4.066297 0
M  V30 12 O -0.584358 0.889294 -3.192022 0
M  V30 13 N -0.592950 0.456111 -5.397780 0
M  V30 14 C -0.814145 1.844597 -5.688574 0
M  V30 15 C -2.002702 2.536692 -5.802887 0
M  V30 16 C -1.944087 3.888394 -6.098578 0
M  V30 17 C -3.247195 4.582891 -6.208147 0
M  V30 18 F -4.263794 3.720822 -6.557340 0
M  V30 19 F -3.621099 5.138018 -4.981151 0
M  V30 20 F -3.128931 5.592415 -7.163386 0
M  V30 21 C -0.753906 4.535924 -6.275707 0
M  V30 22 C 0.451295 3.865139 -6.166702 0
M  V30 23 C 0.393385 2.499890 -5.867927 0
M  V30 24 F 1.634124 1.939577 -5.783397 0
M  V30 25 C -1.434357 -1.806602 -1.739806 0
M  V30 26 F -2.586925 -1.979484 -2.457547 0
M  V30 27 C -1.657008 -1.982563 -0.389907 0
M  V30 28 C -0.804320 -0.780686 2.664808 0
M  V30 29 C -1.285636 0.492650 2.359609 0
M  V30 30 N -1.529749 0.828011 1.024116 0
M  V30 31 N -1.541488 1.437539 3.280344 0
M  V30 32 C -1.317426 1.126590 4.560104 0
M  V30 33 N -0.856497 -0.092846 4.849003 0
M  V30 34 N -0.596889 -1.039038 3.962705 0
M  V30 35 C -0.133393 -2.317407 4.124768 0
M  V30 36 C 0.229528 -2.849317 5.453623 0
M  V30 37 N 1.559357 -2.714116 5.890200 0
M  V30 38 C 1.976675 -1.363631 6.242074 0
M  V30 39 C 2.872099 -0.849060 5.153941 0
M  V30 40 O 4.110473 -1.503505 5.273466 0
M  V30 41 C 3.925415 -2.851746 5.566188 0
M  V30 42 C 2.574411 -3.343257 5.071446 0
M  V30 43 H -2.179378 -3.783190 1.834716 0
M  V30 44 H -2.576921 -5.474009 1.558480 0
M  V30 45 H -1.317760 -4.716317 0.476378 0
M  V30 46 H 0.771190 -4.268108 1.437667 0
M  V30 47 H 1.136439 -4.720726 3.118256 0
M  V30 48 H 1.612920 -1.379587 0.489861 0
M  V30 49 H 1.792975 -1.113195 -1.894264 0
M  V30 50 H -0.157811 -2.036098 -4.472195 0
M  V30 51 H -0.511764 -0.271285 -6.166844 0
M  V30 52 H -2.872070 1.914900 -5.641863 0
M  V30 53 H -0.827203 5.591872 -6.503263 0
M  V30 54 H 1.358613 4.413233 -6.313865 0
M  V30 55 H -2.560745 -2.215679 0.132002 0
M  V30 56 H -2.171638 1.005357 0.219416 0
M  V30 57 H -1.958788 1.044828 0.107371 0
M  V30 58 H -1.506026 1.848931 5.359579 0
M  V30 59 H 0.006552 -3.962598 5.434932 0
M  V30 60 H -0.460854 -2.453502 6.240849 0
M  V30 61 H 1.192730 -0.705174 6.584656 0
M  V30 62 H 2.655656 -1.508761 7.137356 0
M  V30 63 H 2.476620 -1.031194 4.137101 0
M  V30 64 H 3.081153 0.239468 5.278189 0
M  V30 65 H 4.054460 -2.993111 6.649095 0
M  V30 66 H 4.709497 -3.420708 5.041056 0
M  V30 67 H 2.529544 -4.427278 5.245974 0
M  V30 68 H 2.504206 -3.063364 4.021561 0
M  V30 END ATOM
M  V30 BEGIN BOND
M  V30 1 1 1 2
M  V30 2 1 2 3
M  V30 3 1 3 4
M  V30 4 1 4 5
M  V30 5 1 5 6
M  V30 6 2 6 7
M  V30 7 1 7 8
M  V30 8 2 8 9
M  V30 9 1 9 10
M  V30 10 1 10 11
M  V30 11 2 11 12
M  V30 12 1 11 13
M  V30 13 1 13 14
M  V30 14 2 14 15
M  V30 15 1 15 16
M  V30 16 1 16 17
M  V30 17 1 17 18
M  V30 18 1 17 19
M  V30 19 1 17 20
M  V30 20 2 16 21
M  V30 21 1 21 22
M  V30 22 2 22 23
M  V30 23 1 23 24
M  V30 24 1 9 25
M  V30 25 1 25 26
M  V30 26 2 25 27
M  V30 27 2 5 28
M  V30 28 1 28 29
M  V30 29 1 29 30
M  V30 30 2 29 31
M  V30 31 1 31 32
M  V30 32 2 32 33
M  V30 33 1 33 34
M  V30 34 1 34 35
M  V30 35 1 35 36
M  V30 36 1 36 37
M  V30 37 1 37 38
M  V30 38 1 38 39
M  V30 39 1 39 40
M  V30 40 1 40 41
M  V30 41 1 41 42
M  V30 42 2 35 4
M  V30 43 1 42 37
M  V30 44 1 27 6
M  V30 45 1 34 28
M  V30 46 1 23 14
M  V30 47 1 1 43
M  V30 48 1 1 44
M  V30 49 1 1 45
M  V30 50 1 3 46
M  V30 51 1 3 47
M  V30 52 1 7 48
M  V30 53 1 8 49
M  V30 54 1 10 50
M  V30 55 1 13 51
M  V30 56 1 15 52
M  V30 57 1 21 53
M  V30 58 1 22 54
M  V30 59 1 27 55
M  V30 60 1 30 56
M  V30 61 1 30 57
M  V30 62 1 32 58
M  V30 63 1 36 59
M  V30 64 1 36 60
M  V30 65 1 38 61
M  V30 66 1 38 62
M  V30 67 1 39 63
M  V30 68 1 39 64
M  V30 69 1 41 65
M  V30 70 1 41 66
M  V30 71 1 42 67
M  V30 72 1 42 68
M  V30 END BOND
M  V30 END CTAB
M  END
>  <Dataset>  (487) 
ChEMBL_Kinases

>  <Ligand_Instance>  (487) 
nan

>  <PDB_ID>  (487) 
nan

>  <Standardized_SMILES>  (487) 
COCc1c(-c2ccc(NC(=O)Nc3cc(C(F)(F)F)ccc3F)c(F)c2)c2c(N)ncnn2c1CN1CCOCC1

>  <Name>  (487) 
nan

>  <Pocket>  (487) 
nan

>  <ATP_Site>  (487) 
nan

>  <Peripheral>  (487) 
nan

>  <Num_H_Atoms_ProtBoundConf>  (487) 
nan

>  <Num_Resolved_Atoms>  (487) 
nan

>  <Num_Not_Resolved_Atoms>  (487) 
nan

$$$$
CHEMBL4068028
     RDKit          3D

  0  0  0  0  0  0  0  0  0  0999 V3000
M  V30 BEGIN CTAB
M  V30 COUNTS 63 68 0 0 0
M  V30 BEGIN ATOM
M  V30 1 C 2.086655 -1.971945 4.546539 0
M  V30 2 N 2.903342 -1.574607 3.429301 0
M  V30 3 C 3.080450 -2.650385 2.499115 0
M  V30 4 C 3.687269 -2.245472 1.203313 0
M  V30 5 N 3.128329 -1.097200 0.588756 0
M  V30 6 C 2.129414 -1.415658 -0.367019 0
M  V30 7 C 1.498477 -0.276951 -1.046174 0
M  V30 8 C 2.124576 0.157811 -2.221434 0
M  V30 9 C 1.556760 1.230668 -2.892858 0
M  V30 10 C 0.416646 1.874369 -2.453430 0
M  V30 11 C -0.143940 2.952811 -3.102506 0
M  V30 12 C -1.271983 3.566685 -2.607839 0
M  V30 13 C -1.840891 3.083806 -1.443289 0
M  V30 14 Cl -3.269395 3.972398 -0.952893 0
M  V30 15 C -1.329154 1.999878 -0.737609 0
M  V30 16 C -2.022483 1.599707 0.476728 0
M  V30 17 C -2.582165 0.480575 0.966991 0
M  V30 18 C -2.662471 -0.820188 0.323696 0
M  V30 19 C -3.006385 -0.889921 -1.028726 0
M  V30 20 N -3.024960 -2.162251 -1.468795 0
M  V30 21 C -3.336093 -2.633036 -2.805862 0
M  V30 22 C -2.694055 -2.892322 -0.399359 0
M  V30 23 C -2.539336 -4.259786 -0.212095 0
M  V30 24 C -2.174969 -4.801486 1.023983 0
M  V30 25 C -1.962434 -3.950308 2.090819 0
M  V30 26 C -2.109997 -2.582833 1.931464 0
M  V30 27 C -2.466062 -2.122262 0.705208 0
M  V30 28 C -3.131179 0.781234 2.298556 0
M  V30 29 O -3.738064 0.044772 3.114723 0
M  V30 30 N -2.894206 2.134848 2.630125 0
M  V30 31 C -2.193238 2.667110 1.487720 0
M  V30 32 O -1.840672 3.888189 1.497168 0
M  V30 33 C -0.202057 1.453240 -1.304766 0
M  V30 34 C 0.363367 0.390808 -0.640567 0
M  V30 35 C 2.892931 -0.048904 1.492066 0
M  V30 36 C 2.426653 -0.354833 2.853818 0
M  V30 37 H 1.405942 -2.811857 4.344839 0
M  V30 38 H 1.439682 -1.098165 4.839392 0
M  V30 39 H 2.739013 -2.138397 5.437935 0
M  V30 40 H 2.149499 -3.246413 2.325978 0
M  V30 41 H 3.793098 -3.369680 2.994887 0
M  V30 42 H 4.784366 -2.028975 1.353374 0
M  V30 43 H 3.623831 -3.113373 0.508754 0
M  V30 44 H 1.331823 -2.062190 0.078509 0
M  V30 45 H 2.615269 -2.089748 -1.126669 0
M  V30 46 H 3.021425 -0.257870 -2.674916 0
M  V30 47 H 1.977385 1.632676 -3.811672 0
M  V30 48 H 0.338396 3.291630 -4.009915 0
M  V30 49 H -1.634675 4.395678 -3.177713 0
M  V30 50 H -3.246789 -0.068770 -1.722564 0
M  V30 51 H -3.399522 -3.736693 -2.766177 0
M  V30 52 H -2.556976 -2.370449 -3.549009 0
M  V30 53 H -4.342540 -2.292674 -3.136146 0
M  V30 54 H -2.712781 -4.912546 -1.071060 0
M  V30 55 H -2.080913 -5.879112 1.065927 0
M  V30 56 H -1.684198 -4.419161 3.018087 0
M  V30 57 H -1.935831 -1.929061 2.766644 0
M  V30 58 H -3.162830 2.660413 3.513499 0
M  V30 59 H -0.027989 -0.003701 0.281546 0
M  V30 60 H 2.149896 0.667201 1.033766 0
M  V30 61 H 3.830785 0.578550 1.555309 0
M  V30 62 H 2.762384 0.472759 3.536276 0
M  V30 63 H 1.308109 -0.331200 2.936540 0
M  V30 END ATOM
M  V30 BEGIN BOND
M  V30 1 1 1 2
M  V30 2 1 2 3
M  V30 3 1 3 4
M  V30 4 1 4 5
M  V30 5 1 5 6
M  V30 6 1 6 7
M  V30 7 2 7 8
M  V30 8 1 8 9
M  V30 9 2 9 10
M  V30 10 1 10 11
M  V30 11 2 11 12
M  V30 12 1 12 13
M  V30 13 1 13 14
M  V30 14 2 13 15
M  V30 15 1 15 16
M  V30 16 2 16 17
M  V30 17 1 17 18
M  V30 18 2 18 19
M  V30 19 1 19 20
M  V30 20 1 20 21
M  V30 21 1 20 22
M  V30 22 2 22 23
M  V30 23 1 23 24
M  V30 24 2 24 25
M  V30 25 1 25 26
M  V30 26 2 26 27
M  V30 27 1 17 28
M  V30 28 2 28 29
M  V30 29 1 28 30
M  V30 30 1 30 31
M  V30 31 2 31 32
M  V30 32 1 15 33
M  V30 33 2 33 34
M  V30 34 1 5 35
M  V30 35 1 35 36
M  V30 36 1 36 2
M  V30 37 1 34 7
M  V30 38 1 33 10
M  V30 39 1 31 16
M  V30 40 1 27 18
M  V30 41 1 27 22
M  V30 42 1 1 37
M  V30 43 1 1 38
M  V30 44 1 1 39
M  V30 45 1 3 40
M  V30 46 1 3 41
M  V30 47 1 4 42
M  V30 48 1 4 43
M  V30 49 1 6 44
M  V30 50 1 6 45
M  V30 51 1 8 46
M  V30 52 1 9 47
M  V30 53 1 11 48
M  V30 54 1 12 49
M  V30 55 1 19 50
M  V30 56 1 21 51
M  V30 57 1 21 52
M  V30 58 1 21 53
M  V30 59 1 23 54
M  V30 60 1 24 55
M  V30 61 1 25 56
M  V30 62 1 26 57
M  V30 63 1 30 58
M  V30 64 1 34 59
M  V30 65 1 35 60
M  V30 66 1 35 61
M  V30 67 1 36 62
M  V30 68 1 36 63
M  V30 END BOND
M  V30 END CTAB
M  END
>  <Dataset>  (488) 
ChEMBL_Kinases

>  <Ligand_Instance>  (488) 
nan

>  <PDB_ID>  (488) 
nan

>  <Standardized_SMILES>  (488) 
CN1CCN(Cc2ccc3ccc(Cl)c(C4=C(c5cn(C)c6ccccc56)C(=O)NC4=O)c3c2)CC1

>  <Name>  (488) 
nan

>  <Pocket>  (488) 
nan

>  <ATP_Site>  (488) 
nan

>  <Peripheral>  (488) 
nan

>  <Num_H_Atoms_ProtBoundConf>  (488) 
nan

>  <Num_Resolved_Atoms>  (488) 
nan

>  <Num_Not_Resolved_Atoms>  (488) 
nan

$$$$
CHEMBL304549
     RDKit          3D

  0  0  0  0  0  0  0  0  0  0999 V3000
M  V30 BEGIN CTAB
M  V30 COUNTS 67 70 0 0 0
M  V30 BEGIN ATOM
M  V30 1 O 2.104224 3.131179 0.993423 0
M  V30 2 C 3.097630 2.718905 1.598063 0
M  V30 3 N 2.958243 1.578548 2.413981 0
M  V30 4 C 1.768274 0.773231 2.668955 0 CFG=2
M  V30 5 C 1.404227 0.950116 4.089837 0
M  V30 6 C 0.765048 -0.241985 4.759397 0
M  V30 7 C 1.901965 -0.974522 5.404795 0
M  V30 8 C 2.834751 -1.446086 4.311404 0
M  V30 9 C 2.103745 -1.724156 3.059912 0
M  V30 10 C 1.807415 -0.615051 2.127015 0 CFG=1
M  V30 11 O 0.568013 -0.981111 1.516007 0
M  V30 12 C 0.412788 -1.321640 0.207992 0
M  V30 13 O 1.416699 -1.334118 -0.577202 0
M  V30 14 C -0.871376 -1.688226 -0.384311 0
M  V30 15 C -1.965465 -1.675286 0.449611 0
M  V30 16 C -3.220435 -2.015188 -0.049335 0
M  V30 17 O -4.261850 -1.968497 0.889429 0
M  V30 18 C -3.399369 -2.368209 -1.369272 0
M  V30 19 C -4.722784 -2.634958 -1.851072 0
M  V30 20 O -5.545702 -2.033428 -1.094682 0
M  V30 21 C -5.440065 -3.327932 -2.870815 0
M  V30 22 C -6.674527 -2.859556 -3.256652 0
M  V30 23 O -7.218371 -1.703208 -2.714352 0
M  V30 24 C -7.432257 -3.521615 -4.205408 0
M  V30 25 C -6.987703 -4.653845 -4.788665 0
M  V30 26 C -5.767402 -5.189875 -4.458793 0
M  V30 27 C -5.068769 -4.485384 -3.511311 0
M  V30 28 C -3.858401 -5.197562 -3.142888 0
M  V30 29 O -3.344245 -6.241689 -3.601695 0
M  V30 30 O -2.697061 -5.530246 -2.497132 0
M  V30 31 C -2.256816 -2.360949 -2.164574 0
M  V30 32 O -2.240757 -2.670366 -3.498909 0
M  V30 33 C -0.999785 -2.032477 -1.710696 0
M  V30 34 C 4.368094 3.418938 1.448574 0
M  V30 35 C 4.385625 4.503836 0.621257 0
M  V30 36 C 5.578076 5.197168 0.458173 0
M  V30 37 C 6.765812 4.841243 1.098113 0
M  V30 38 O 7.931972 5.561649 0.906470 0
M  V30 39 C 6.726089 3.756155 1.918290 0
M  V30 40 C 5.532263 3.050650 2.090939 0
M  V30 41 H 3.767576 1.186874 2.947774 0
M  V30 42 H 0.976378 1.284140 2.074400 0
M  V30 43 H 2.265030 1.317663 4.724636 0
M  V30 44 H 0.667289 1.773998 4.190906 0
M  V30 45 H 0.105809 -0.817079 4.124669 0
M  V30 46 H 0.115131 0.112927 5.615269 0
M  V30 47 H 1.602347 -1.776806 6.105566 0
M  V30 48 H 2.492441 -0.172828 5.945280 0
M  V30 49 H 3.224047 -2.440905 4.688711 0
M  V30 50 H 3.751072 -0.850586 4.207654 0
M  V30 51 H 1.197588 -2.321396 3.345917 0
M  V30 52 H 2.712910 -2.502564 2.501719 0
M  V30 53 H 2.506267 -0.685551 1.241324 0
M  V30 54 H -1.846184 -1.402807 1.484409 0
M  V30 55 H -4.107458 -2.467013 1.759777 0
M  V30 56 H -7.450095 -0.907086 -3.290911 0
M  V30 57 H -8.394337 -3.118805 -4.478611 0
M  V30 58 H -7.623467 -5.121438 -5.521155 0
M  V30 59 H -5.474827 -6.086665 -4.956529 0
M  V30 60 H -2.420426 -5.209340 -1.574356 0
M  V30 61 H -2.711576 -2.091773 -4.169203 0
M  V30 62 H -0.098087 -2.013633 -2.284685 0
M  V30 63 H 3.554950 4.891048 0.067095 0
M  V30 64 H 5.651898 6.070300 -0.188189 0
M  V30 65 H 7.962329 6.569296 1.053450 0
M  V30 66 H 7.602643 3.404265 2.459037 0
M  V30 67 H 5.523703 2.191101 2.746950 0
M  V30 END ATOM
M  V30 BEGIN BOND
M  V30 1 2 1 2
M  V30 2 1 2 3
M  V30 3 1 3 4
M  V30 4 1 4 5
M  V30 5 1 5 6
M  V30 6 1 6 7
M  V30 7 1 7 8
M  V30 8 1 8 9
M  V30 9 1 9 10
M  V30 10 1 10 11
M  V30 11 1 11 12
M  V30 12 2 12 13
M  V30 13 1 12 14
M  V30 14 2 14 15
M  V30 15 1 15 16
M  V30 16 1 16 17
M  V30 17 2 16 18
M  V30 18 1 18 19
M  V30 19 2 19 20
M  V30 20 1 19 21
M  V30 21 2 21 22
M  V30 22 1 22 23
M  V30 23 1 22 24
M  V30 24 2 24 25
M  V30 25 1 25 26
M  V30 26 2 26 27
M  V30 27 1 27 28
M  V30 28 2 28 29
M  V30 29 1 28 30
M  V30 30 1 18 31
M  V30 31 1 31 32
M  V30 32 2 31 33
M  V30 33 1 2 34
M  V30 34 2 34 35
M  V30 35 1 35 36
M  V30 36 2 36 37
M  V30 37 1 37 38
M  V30 38 1 37 39
M  V30 39 2 39 40
M  V30 40 1 10 4
M  V30 41 1 33 14
M  V30 42 1 40 34
M  V30 43 1 27 21
M  V30 44 1 3 41
M  V30 45 1 4 42 CFG=3
M  V30 46 1 5 43
M  V30 47 1 5 44
M  V30 48 1 6 45
M  V30 49 1 6 46
M  V30 50 1 7 47
M  V30 51 1 7 48
M  V30 52 1 8 49
M  V30 53 1 8 50
M  V30 54 1 9 51
M  V30 55 1 9 52
M  V30 56 1 10 53 CFG=3
M  V30 57 1 15 54
M  V30 58 1 17 55
M  V30 59 1 23 56
M  V30 60 1 24 57
M  V30 61 1 25 58
M  V30 62 1 26 59
M  V30 63 1 30 60
M  V30 64 1 32 61
M  V30 65 1 33 62
M  V30 66 1 35 63
M  V30 67 1 36 64
M  V30 68 1 38 65
M  V30 69 1 39 66
M  V30 70 1 40 67
M  V30 END BOND
M  V30 END CTAB
M  END
>  <Dataset>  (489) 
ChEMBL_Kinases

>  <Ligand_Instance>  (489) 
nan

>  <PDB_ID>  (489) 
nan

>  <Standardized_SMILES>  (489) 
O=C(N[C@@H]1CCCCC[C@H]1OC(=O)c1cc(O)c(C(=O)c2c(O)cccc2C(=O)O)c(O)c1)c1ccc(O)cc1

>  <Name>  (489) 
nan

>  <Pocket>  (489) 
nan

>  <ATP_Site>  (489) 
nan

>  <Peripheral>  (489) 
nan

>  <Num_H_Atoms_ProtBoundConf>  (489) 
nan

>  <Num_Resolved_Atoms>  (489) 
nan

>  <Num_Not_Resolved_Atoms>  (489) 
nan

$$$$
CHEMBL4072879
     RDKit          3D

  0  0  0  0  0  0  0  0  0  0999 V3000
M  V30 BEGIN CTAB
M  V30 COUNTS 51 55 0 0 0
M  V30 BEGIN ATOM
M  V30 1 C -1.241704 -0.744125 3.203023 0
M  V30 2 N -0.378577 -1.342186 4.166514 0
M  V30 3 C 0.767042 -2.025207 3.657045 0
M  V30 4 C 1.631622 -1.151877 2.810854 0
M  V30 5 C 2.559031 -0.362291 3.489212 0
M  V30 6 C 3.411932 0.466408 2.831503 0
M  V30 7 C 3.334252 0.504402 1.468243 0
M  V30 8 C 4.208561 1.327985 0.798790 0
M  V30 9 C 4.180205 1.386332 -0.571416 0
M  V30 10 C 3.259423 0.604346 -1.245474 0
M  V30 11 Cl 3.330945 0.786229 -2.987673 0
M  V30 12 C 2.348839 -0.248741 -0.602994 0
M  V30 13 C 1.466427 -1.024162 -1.460401 0
M  V30 14 C 0.158548 -1.204132 -1.601081 0
M  V30 15 C -0.967820 -0.643644 -0.895972 0
M  V30 16 C -1.186622 0.698032 -0.579838 0
M  V30 17 N -2.342386 0.860475 0.099979 0
M  V30 18 C -2.842312 2.146296 0.565331 0
M  V30 19 C -2.927050 -0.337138 0.261386 0
M  V30 20 C -4.091786 -0.749032 0.875318 0
M  V30 21 C -4.460734 -2.069329 0.909210 0
M  V30 22 C -3.638544 -3.001172 0.310755 0
M  V30 23 C -2.482100 -2.560485 -0.294846 0
M  V30 24 C -2.071864 -1.249072 -0.354221 0
M  V30 25 C -0.063641 -2.138875 -2.689960 0
M  V30 26 O -1.128511 -2.619614 -3.203036 0
M  V30 27 N 1.182759 -2.571011 -3.262467 0
M  V30 28 C 2.150127 -1.860741 -2.477677 0
M  V30 29 O 3.388846 -2.028760 -2.737829 0
M  V30 30 C 2.444039 -0.247601 0.749568 0
M  V30 31 C 1.594425 -1.076108 1.438818 0
M  V30 32 H -0.834166 -0.687034 2.195787 0
M  V30 33 H -2.233065 -1.263999 3.204181 0
M  V30 34 H -1.476499 0.318860 3.510949 0
M  V30 35 H -0.064478 -0.636194 4.865306 0
M  V30 36 H 0.503279 -2.960648 3.101579 0
M  V30 37 H 1.380640 -2.341545 4.525902 0
M  V30 38 H 2.607684 -0.404391 4.575437 0
M  V30 39 H 4.118585 1.066119 3.378274 0
M  V30 40 H 4.917877 1.928567 1.362010 0
M  V30 41 H 4.881592 2.043262 -1.045091 0
M  V30 42 H -0.515695 1.522062 -0.844915 0
M  V30 43 H -2.060609 2.709986 1.130683 0
M  V30 44 H -3.171503 2.697770 -0.353297 0
M  V30 45 H -3.725187 2.000050 1.217203 0
M  V30 46 H -4.734318 0.003226 1.347475 0
M  V30 47 H -5.389880 -2.336479 1.408210 0
M  V30 48 H -3.929242 -4.044969 0.338225 0
M  V30 49 H -1.885386 -3.336973 -0.732036 0
M  V30 50 H 1.365405 -3.238986 -4.058580 0
M  V30 51 H 0.899296 -1.690591 0.926694 0
M  V30 END ATOM
M  V30 BEGIN BOND
M  V30 1 1 1 2
M  V30 2 1 2 3
M  V30 3 1 3 4
M  V30 4 2 4 5
M  V30 5 1 5 6
M  V30 6 2 6 7
M  V30 7 1 7 8
M  V30 8 2 8 9
M  V30 9 1 9 10
M  V30 10 1 10 11
M  V30 11 2 10 12
M  V30 12 1 12 13
M  V30 13 2 13 14
M  V30 14 1 14 15
M  V30 15 2 15 16
M  V30 16 1 16 17
M  V30 17 1 17 18
M  V30 18 1 17 19
M  V30 19 2 19 20
M  V30 20 1 20 21
M  V30 21 2 21 22
M  V30 22 1 22 23
M  V30 23 2 23 24
M  V30 24 1 14 25
M  V30 25 2 25 26
M  V30 26 1 25 27
M  V30 27 1 27 28
M  V30 28 2 28 29
M  V30 29 1 12 30
M  V30 30 2 30 31
M  V30 31 1 31 4
M  V30 32 1 30 7
M  V30 33 1 28 13
M  V30 34 1 24 15
M  V30 35 1 24 19
M  V30 36 1 1 32
M  V30 37 1 1 33
M  V30 38 1 1 34
M  V30 39 1 2 35
M  V30 40 1 3 36
M  V30 41 1 3 37
M  V30 42 1 5 38
M  V30 43 1 6 39
M  V30 44 1 8 40
M  V30 45 1 9 41
M  V30 46 1 16 42
M  V30 47 1 18 43
M  V30 48 1 18 44
M  V30 49 1 18 45
M  V30 50 1 20 46
M  V30 51 1 21 47
M  V30 52 1 22 48
M  V30 53 1 23 49
M  V30 54 1 27 50
M  V30 55 1 31 51
M  V30 END BOND
M  V30 END CTAB
M  END
>  <Dataset>  (490) 
ChEMBL_Kinases

>  <Ligand_Instance>  (490) 
nan

>  <PDB_ID>  (490) 
nan

>  <Standardized_SMILES>  (490) 
CNCc1ccc2ccc(Cl)c(C3=C(c4cn(C)c5ccccc45)C(=O)NC3=O)c2c1

>  <Name>  (490) 
nan

>  <Pocket>  (490) 
nan

>  <ATP_Site>  (490) 
nan

>  <Peripheral>  (490) 
nan

>  <Num_H_Atoms_ProtBoundConf>  (490) 
nan

>  <Num_Resolved_Atoms>  (490) 
nan

>  <Num_Not_Resolved_Atoms>  (490) 
nan

$$$$
CHEMBL3338838
     RDKit          3D

  0  0  0  0  0  0  0  0  0  0999 V3000
M  V30 BEGIN CTAB
M  V30 COUNTS 44 47 0 0 0
M  V30 BEGIN ATOM
M  V30 1 C 2.906371 -4.128727 1.247906 0
M  V30 2 C 1.444018 -4.020870 0.851630 0
M  V30 3 C 0.602391 -4.727560 1.879407 0
M  V30 4 N 1.302812 -4.645601 -0.439742 0
M  V30 5 C 1.033891 -2.590207 0.784086 0
M  V30 6 N -0.354674 -2.381219 0.411133 0
M  V30 7 C -0.857383 -1.057414 0.314865 0
M  V30 8 N -0.053820 -0.015527 0.566834 0
M  V30 9 C -0.470258 1.261985 0.492721 0
M  V30 10 C 0.460342 2.348654 0.780811 0
M  V30 11 C 0.030909 3.658193 0.704244 0
M  V30 12 C 0.847223 4.740511 0.961014 0
M  V30 13 C 2.164164 4.433883 1.311335 0
M  V30 14 N 3.137855 5.309262 1.604681 0
M  V30 15 N 4.204763 4.602948 1.874237 0
M  V30 16 C 3.955083 3.279707 1.764795 0
M  V30 17 C 2.624031 3.127428 1.396314 0
M  V30 18 C 1.763619 2.059636 1.127944 0
M  V30 19 N -1.743255 1.535800 0.153342 0
M  V30 20 C -2.635076 0.542847 -0.121232 0
M  V30 21 C -3.950005 0.798894 -0.472627 0
M  V30 22 N -4.780113 -0.229994 -0.731448 0
M  V30 23 C -4.356563 -1.522451 -0.655854 0
M  V30 24 C -3.042420 -1.752187 -0.303860 0
M  V30 25 C -2.154324 -0.746220 -0.029901 0
M  V30 26 H 3.054409 -5.150549 1.686420 0
M  V30 27 H 3.526698 -4.085760 0.310565 0
M  V30 28 H 3.223696 -3.382263 1.980360 0
M  V30 29 H -0.330003 -4.154085 2.075972 0
M  V30 30 H 1.170075 -4.768317 2.821637 0
M  V30 31 H 0.337263 -5.761045 1.574537 0
M  V30 32 H 2.107883 -4.505722 -1.063234 0
M  V30 33 H 0.912161 -5.601266 -0.399292 0
M  V30 34 H 1.244795 -2.056565 1.735347 0
M  V30 35 H 1.698731 -2.078166 0.031571 0
M  V30 36 H -0.872820 -3.266672 0.242050 0
M  V30 37 H -1.007297 3.849735 0.426510 0
M  V30 38 H 0.470190 5.741627 0.889165 0
M  V30 39 H 3.071670 6.361500 1.619363 0
M  V30 40 H 4.630439 2.454756 1.923656 0
M  V30 41 H 2.152176 1.073365 1.203416 0
M  V30 42 H -4.228511 1.843035 -0.516305 0
M  V30 43 H -5.089218 -2.291803 -0.879978 0
M  V30 44 H -2.754031 -2.774394 -0.256808 0
M  V30 END ATOM
M  V30 BEGIN BOND
M  V30 1 1 1 2
M  V30 2 1 2 3
M  V30 3 1 2 4
M  V30 4 1 2 5
M  V30 5 1 5 6
M  V30 6 1 6 7
M  V30 7 2 7 8
M  V30 8 1 8 9
M  V30 9 1 9 10
M  V30 10 2 10 11
M  V30 11 1 11 12
M  V30 12 2 12 13
M  V30 13 1 13 14
M  V30 14 1 14 15
M  V30 15 2 15 16
M  V30 16 1 16 17
M  V30 17 2 17 18
M  V30 18 2 9 19
M  V30 19 1 19 20
M  V30 20 2 20 21
M  V30 21 1 21 22
M  V30 22 2 22 23
M  V30 23 1 23 24
M  V30 24 2 24 25
M  V30 25 1 25 7
M  V30 26 1 18 10
M  V30 27 1 25 20
M  V30 28 1 17 13
M  V30 29 1 1 26
M  V30 30 1 1 27
M  V30 31 1 1 28
M  V30 32 1 3 29
M  V30 33 1 3 30
M  V30 34 1 3 31
M  V30 35 1 4 32
M  V30 36 1 4 33
M  V30 37 1 5 34
M  V30 38 1 5 35
M  V30 39 1 6 36
M  V30 40 1 11 37
M  V30 41 1 12 38
M  V30 42 1 14 39
M  V30 43 1 16 40
M  V30 44 1 18 41
M  V30 45 1 21 42
M  V30 46 1 23 43
M  V30 47 1 24 44
M  V30 END BOND
M  V30 END CTAB
M  END
>  <Dataset>  (491) 
ChEMBL_Kinases

>  <Ligand_Instance>  (491) 
nan

>  <PDB_ID>  (491) 
nan

>  <Standardized_SMILES>  (491) 
CC(C)(N)CNc1nc(-c2ccc3[nH]ncc3c2)nc2cnccc12

>  <Name>  (491) 
nan

>  <Pocket>  (491) 
nan

>  <ATP_Site>  (491) 
nan

>  <Peripheral>  (491) 
nan

>  <Num_H_Atoms_ProtBoundConf>  (491) 
nan

>  <Num_Resolved_Atoms>  (491) 
nan

>  <Num_Not_Resolved_Atoms>  (491) 
nan

$$$$
CHEMBL72365
     RDKit          3D

  0  0  0  0  0  0  0  0  0  0999 V3000
M  V30 BEGIN CTAB
M  V30 COUNTS 29 31 0 0 0
M  V30 BEGIN ATOM
M  V30 1 O -1.402359 -2.106498 1.471762 0
M  V30 2 C -0.248389 -2.307634 1.021885 0
M  V30 3 N 0.451654 -3.523617 0.844100 0
M  V30 4 C 1.739791 -3.256717 0.303758 0
M  V30 5 C 2.792315 -4.111523 -0.044975 0
M  V30 6 C 3.966203 -3.554628 -0.562642 0
M  V30 7 C 4.104510 -2.193759 -0.734195 0
M  V30 8 I 5.923720 -1.469293 -1.523141 0
M  V30 9 C 3.043999 -1.356616 -0.380722 0
M  V30 10 C 1.880840 -1.895348 0.131226 0
M  V30 11 C 0.635210 -1.262942 0.577352 0
M  V30 12 C 0.373779 0.018961 0.557237 0
M  V30 13 C -0.840273 0.703996 0.959396 0
M  V30 14 C -0.649641 1.747142 1.873469 0
M  V30 15 C -1.609871 2.556235 2.384060 0
M  V30 16 Br -1.272705 3.955999 3.626886 0
M  V30 17 C -2.934947 2.360445 1.980065 0
M  V30 18 O -3.946920 3.151740 2.467492 0
M  V30 19 C -3.150601 1.331268 1.071938 0
M  V30 20 Br -4.924740 0.975222 0.451691 0
M  V30 21 C -2.135703 0.526362 0.574989 0
M  V30 22 H 0.010401 -4.432049 1.098474 0
M  V30 23 H 2.699065 -5.177829 0.081995 0
M  V30 24 H 4.764663 -4.267858 -0.821048 0
M  V30 25 H 3.204572 -0.297112 -0.535307 0
M  V30 26 H 1.165707 0.688031 0.188670 0
M  V30 27 H 0.354151 1.987719 2.258481 0
M  V30 28 H -3.947610 3.404045 3.466743 0
M  V30 29 H -2.323924 -0.246141 -0.140943 0
M  V30 END ATOM
M  V30 BEGIN BOND
M  V30 1 2 1 2
M  V30 2 1 2 3
M  V30 3 1 3 4
M  V30 4 2 4 5
M  V30 5 1 5 6
M  V30 6 2 6 7
M  V30 7 1 7 8
M  V30 8 1 7 9
M  V30 9 2 9 10
M  V30 10 1 10 11
M  V30 11 2 11 12
M  V30 12 1 12 13
M  V30 13 2 13 14
M  V30 14 1 14 15
M  V30 15 1 15 16
M  V30 16 2 15 17
M  V30 17 1 17 18
M  V30 18 1 17 19
M  V30 19 1 19 20
M  V30 20 2 19 21
M  V30 21 1 11 2
M  V30 22 1 21 13
M  V30 23 1 10 4
M  V30 24 1 3 22
M  V30 25 1 5 23
M  V30 26 1 6 24
M  V30 27 1 9 25
M  V30 28 1 12 26
M  V30 29 1 14 27
M  V30 30 1 18 28
M  V30 31 1 21 29
M  V30 END BOND
M  V30 END CTAB
M  END
>  <Dataset>  (492) 
ChEMBL_Kinases

>  <Ligand_Instance>  (492) 
nan

>  <PDB_ID>  (492) 
nan

>  <Standardized_SMILES>  (492) 
O=C1Nc2ccc(I)cc2/C1=C/c1cc(Br)c(O)c(Br)c1

>  <Name>  (492) 
nan

>  <Pocket>  (492) 
nan

>  <ATP_Site>  (492) 
nan

>  <Peripheral>  (492) 
nan

>  <Num_H_Atoms_ProtBoundConf>  (492) 
nan

>  <Num_Resolved_Atoms>  (492) 
nan

>  <Num_Not_Resolved_Atoms>  (492) 
nan

$$$$
CHEMBL513703
     RDKit          3D

  0  0  0  0  0  0  0  0  0  0999 V3000
M  V30 BEGIN CTAB
M  V30 COUNTS 48 51 0 0 0
M  V30 BEGIN ATOM
M  V30 1 C 2.705912 -4.776616 2.263943 0
M  V30 2 C 2.880232 -3.348880 2.795855 0
M  V30 3 C 2.027165 -3.225378 4.037190 0
M  V30 4 C 4.352890 -3.219886 3.117082 0
M  V30 5 C 2.517781 -2.414833 1.723042 0
M  V30 6 O 2.142081 -2.823179 0.599978 0
M  V30 7 N 2.568795 -1.009964 1.886378 0
M  V30 8 C 2.170074 -0.300955 0.703679 0
M  V30 9 C 3.246056 -0.032076 -0.150948 0
M  V30 10 C 2.991715 0.644719 -1.321584 0
M  V30 11 C 1.680894 1.017049 -1.578060 0
M  V30 12 C 0.592332 0.779231 -0.776852 0
M  V30 13 C 0.911742 0.116680 0.345838 0
M  V30 14 C -0.560185 1.329028 -1.414603 0
M  V30 15 C -1.746040 1.282125 -0.935486 0
M  V30 16 N -2.867482 1.840994 -1.600287 0
M  V30 17 C -4.077696 1.665102 -0.874273 0
M  V30 18 C -5.382863 2.059614 -1.173822 0
M  V30 19 C -6.344904 1.730665 -0.246301 0
M  V30 20 C -6.052206 1.057617 0.904029 0
M  V30 21 C -4.747490 0.694784 1.145026 0
M  V30 22 C -3.706724 0.982914 0.267134 0
M  V30 23 C -2.284350 0.726857 0.271362 0
M  V30 24 N -1.755435 0.126464 1.208836 0
M  V30 25 O -2.392712 -0.347178 2.297167 0
M  V30 26 C -0.110668 1.915891 -2.651345 0
M  V30 27 O -0.785324 2.504499 -3.519222 0
M  V30 28 N 1.291645 1.730584 -2.772000 0
M  V30 29 H 1.637732 -4.954149 1.992051 0
M  V30 30 H 3.026600 -5.528599 3.010780 0
M  V30 31 H 3.289425 -4.899685 1.315048 0
M  V30 32 H 2.011686 -2.210432 4.440442 0
M  V30 33 H 2.516734 -3.900022 4.796029 0
M  V30 34 H 1.026870 -3.671233 3.869738 0
M  V30 35 H 4.831077 -2.519750 2.384941 0
M  V30 36 H 4.889632 -4.191730 3.138935 0
M  V30 37 H 4.453099 -2.746161 4.116204 0
M  V30 38 H 2.875227 -0.575890 2.803296 0
M  V30 39 H 4.259973 -0.327025 0.060357 0
M  V30 40 H 3.822300 0.849985 -1.977022 0
M  V30 41 H 0.278596 -0.184771 1.114403 0
M  V30 42 H -2.850342 2.333243 -2.517995 0
M  V30 43 H -5.614113 2.592755 -2.085295 0
M  V30 44 H -7.340616 2.049641 -0.508180 0
M  V30 45 H -6.872413 0.840474 1.577540 0
M  V30 46 H -4.615111 0.169973 2.073679 0
M  V30 47 H -2.028526 -1.064427 2.924631 0
M  V30 48 H 1.880958 2.064721 -3.586611 0
M  V30 END ATOM
M  V30 BEGIN BOND
M  V30 1 1 1 2
M  V30 2 1 2 3
M  V30 3 1 2 4
M  V30 4 1 2 5
M  V30 5 2 5 6
M  V30 6 1 5 7
M  V30 7 1 7 8
M  V30 8 2 8 9
M  V30 9 1 9 10
M  V30 10 2 10 11
M  V30 11 1 11 12
M  V30 12 2 12 13
M  V30 13 1 12 14
M  V30 14 2 14 15
M  V30 15 1 15 16
M  V30 16 1 16 17
M  V30 17 2 17 18
M  V30 18 1 18 19
M  V30 19 2 19 20
M  V30 20 1 20 21
M  V30 21 2 21 22
M  V30 22 1 22 23
M  V30 23 2 23 24
M  V30 24 1 24 25
M  V30 25 1 14 26
M  V30 26 2 26 27
M  V30 27 1 26 28
M  V30 28 1 13 8
M  V30 29 1 23 15
M  V30 30 1 28 11
M  V30 31 1 22 17
M  V30 32 1 1 29
M  V30 33 1 1 30
M  V30 34 1 1 31
M  V30 35 1 3 32
M  V30 36 1 3 33
M  V30 37 1 3 34
M  V30 38 1 4 35
M  V30 39 1 4 36
M  V30 40 1 4 37
M  V30 41 1 7 38
M  V30 42 1 9 39
M  V30 43 1 10 40
M  V30 44 1 13 41
M  V30 45 1 16 42
M  V30 46 1 18 43
M  V30 47 1 19 44
M  V30 48 1 20 45
M  V30 49 1 21 46
M  V30 50 1 25 47
M  V30 51 1 28 48
M  V30 END BOND
M  V30 END CTAB
M  END
>  <Dataset>  (493) 
ChEMBL_Kinases

>  <Ligand_Instance>  (493) 
nan

>  <PDB_ID>  (493) 
nan

>  <Standardized_SMILES>  (493) 
CC(C)(C)C(=O)Nc1ccc2c(c1)/C(=C1/Nc3ccccc3/C1=N\O)C(=O)N2

>  <Name>  (493) 
nan

>  <Pocket>  (493) 
nan

>  <ATP_Site>  (493) 
nan

>  <Peripheral>  (493) 
nan

>  <Num_H_Atoms_ProtBoundConf>  (493) 
nan

>  <Num_Resolved_Atoms>  (493) 
nan

>  <Num_Not_Resolved_Atoms>  (493) 
nan

$$$$
CHEMBL4531334
     RDKit          3D

  0  0  0  0  0  0  0  0  0  0999 V3000
M  V30 BEGIN CTAB
M  V30 COUNTS 66 70 0 0 0
M  V30 BEGIN ATOM
M  V30 1 C 4.225937 1.138768 2.547861 0
M  V30 2 N 5.420609 1.535377 1.854236 0
M  V30 3 C 5.532471 1.034125 0.529680 0
M  V30 4 C 5.335819 1.975565 -0.588609 0
M  V30 5 N 4.664709 3.175858 -0.121709 0
M  V30 6 C 3.402095 3.823839 -0.414013 0
M  V30 7 O 3.240633 4.913202 0.251955 0
M  V30 8 C 2.269171 3.533782 -1.289978 0
M  V30 9 C 1.438739 4.780113 -1.505627 0
M  V30 10 C 2.831840 3.205496 -2.693946 0
M  V30 11 C 1.391841 2.418830 -0.874158 0
M  V30 12 C 0.005659 2.631443 -0.953901 0
M  V30 13 C -0.995296 1.745604 -0.622793 0
M  V30 14 C -0.599061 0.510291 -0.160838 0
M  V30 15 C -1.525515 -0.548626 0.234914 0
M  V30 16 O -1.165019 -1.679409 0.661796 0
M  V30 17 N -2.956986 -0.412627 0.179232 0
M  V30 18 C -3.523834 -1.658898 0.647158 0
M  V30 19 C -3.855334 -2.790477 -0.105128 0
M  V30 20 N -4.355002 -3.718249 0.740512 0
M  V30 21 C -4.805833 -4.959985 0.474993 0
M  V30 22 C -5.288256 -5.771395 1.507457 0
M  V30 23 C -5.796098 -7.136335 1.294902 0
M  V30 24 C -6.442023 -7.581259 0.156924 0
M  V30 25 C -6.865178 -8.904322 0.104896 0
M  V30 26 N -6.674339 -9.776837 1.116092 0
M  V30 27 C -6.049138 -9.376330 2.237868 0
M  V30 28 C -5.615774 -8.055546 2.314142 0
M  V30 29 C -5.287686 -5.267518 2.786125 0
M  V30 30 C -4.820453 -3.995769 3.022630 0
M  V30 31 C -4.345535 -3.202211 1.993152 0
M  V30 32 N -3.838816 -1.944595 1.941648 0
M  V30 33 C 0.741273 0.213533 -0.049710 0
M  V30 34 C 1.668557 1.161962 -0.404228 0
M  V30 35 C 5.567989 3.773015 0.851088 0
M  V30 36 C 5.814415 2.890050 2.045954 0
M  V30 37 H 3.770673 0.302641 1.945315 0
M  V30 38 H 3.540913 1.982621 2.631776 0
M  V30 39 H 4.477369 0.692852 3.533878 0
M  V30 40 H 4.843497 0.165346 0.431043 0
M  V30 41 H 6.560012 0.573409 0.440108 0
M  V30 42 H 4.779906 1.460949 -1.412606 0
M  V30 43 H 6.334250 2.245355 -1.036607 0
M  V30 44 H 2.192009 5.612117 -1.621301 0
M  V30 45 H 0.859006 4.746618 -2.450148 0
M  V30 46 H 0.838763 5.068271 -0.618190 0
M  V30 47 H 2.069476 3.487610 -3.438481 0
M  V30 48 H 3.800947 3.689019 -2.801763 0
M  V30 49 H 2.881131 2.094444 -2.728840 0
M  V30 50 H -0.381707 3.597232 -1.315708 0
M  V30 51 H -2.033014 1.970362 -0.706925 0
M  V30 52 H -3.355803 0.492682 -0.163209 0
M  V30 53 H -3.722301 -2.880931 -1.188501 0
M  V30 54 H -4.815204 -5.379134 -0.531965 0
M  V30 55 H -6.579460 -6.864071 -0.630881 0
M  V30 56 H -7.370188 -9.200674 -0.819722 0
M  V30 57 H -5.878566 -10.057736 3.074998 0
M  V30 58 H -5.124940 -7.783318 3.222952 0
M  V30 59 H -5.651841 -5.851675 3.637736 0
M  V30 60 H -4.804701 -3.565852 4.014480 0
M  V30 61 H 1.116473 -0.734888 0.305103 0
M  V30 62 H 2.717507 0.937308 -0.320892 0
M  V30 63 H 6.530429 3.970657 0.340905 0
M  V30 64 H 5.131772 4.757733 1.151892 0
M  V30 65 H 5.211756 3.304066 2.883384 0
M  V30 66 H 6.872033 2.912222 2.378828 0
M  V30 END ATOM
M  V30 BEGIN BOND
M  V30 1 1 1 2
M  V30 2 1 2 3
M  V30 3 1 3 4
M  V30 4 1 4 5
M  V30 5 1 5 6
M  V30 6 2 6 7
M  V30 7 1 6 8
M  V30 8 1 8 9
M  V30 9 1 8 10
M  V30 10 1 8 11
M  V30 11 2 11 12
M  V30 12 1 12 13
M  V30 13 2 13 14
M  V30 14 1 14 15
M  V30 15 2 15 16
M  V30 16 1 15 17
M  V30 17 1 17 18
M  V30 18 2 18 19
M  V30 19 1 19 20
M  V30 20 1 20 21
M  V30 21 2 21 22
M  V30 22 1 22 23
M  V30 23 2 23 24
M  V30 24 1 24 25
M  V30 25 2 25 26
M  V30 26 1 26 27
M  V30 27 2 27 28
M  V30 28 1 22 29
M  V30 29 2 29 30
M  V30 30 1 30 31
M  V30 31 2 31 32
M  V30 32 1 14 33
M  V30 33 2 33 34
M  V30 34 1 5 35
M  V30 35 1 35 36
M  V30 36 1 36 2
M  V30 37 1 34 11
M  V30 38 1 32 18
M  V30 39 1 31 20
M  V30 40 1 28 23
M  V30 41 1 1 37
M  V30 42 1 1 38
M  V30 43 1 1 39
M  V30 44 1 3 40
M  V30 45 1 3 41
M  V30 46 1 4 42
M  V30 47 1 4 43
M  V30 48 1 9 44
M  V30 49 1 9 45
M  V30 50 1 9 46
M  V30 51 1 10 47
M  V30 52 1 10 48
M  V30 53 1 10 49
M  V30 54 1 12 50
M  V30 55 1 13 51
M  V30 56 1 17 52
M  V30 57 1 19 53
M  V30 58 1 21 54
M  V30 59 1 24 55
M  V30 60 1 25 56
M  V30 61 1 27 57
M  V30 62 1 28 58
M  V30 63 1 29 59
M  V30 64 1 30 60
M  V30 65 1 33 61
M  V30 66 1 34 62
M  V30 67 1 35 63
M  V30 68 1 35 64
M  V30 69 1 36 65
M  V30 70 1 36 66
M  V30 END BOND
M  V30 END CTAB
M  END
>  <Dataset>  (494) 
ChEMBL_Kinases

>  <Ligand_Instance>  (494) 
nan

>  <PDB_ID>  (494) 
nan

>  <Standardized_SMILES>  (494) 
CN1CCN(C(=O)C(C)(C)c2ccc(C(=O)Nc3cn4cc(-c5ccncc5)ccc4n3)cc2)CC1

>  <Name>  (494) 
T3-CLK

>  <Pocket>  (494) 
nan

>  <ATP_Site>  (494) 
nan

>  <Peripheral>  (494) 
nan

>  <Num_H_Atoms_ProtBoundConf>  (494) 
nan

>  <Num_Resolved_Atoms>  (494) 
nan

>  <Num_Not_Resolved_Atoms>  (494) 
nan

$$$$
CHEMBL4072709
     RDKit          3D

  0  0  0  0  0  0  0  0  0  0999 V3000
M  V30 BEGIN CTAB
M  V30 COUNTS 48 52 0 0 0
M  V30 BEGIN ATOM
M  V30 1 C -1.260684 -1.915845 3.938060 0
M  V30 2 N -1.078896 -2.232482 2.516891 0
M  V30 3 C 0.073188 -2.234458 1.825696 0
M  V30 4 C -0.196135 -2.591239 0.498157 0
M  V30 5 C 0.924003 -2.651457 -0.459150 0
M  V30 6 C 1.888766 -1.736861 -0.502815 0
M  V30 7 C 2.286582 -0.519336 0.152618 0
M  V30 8 C 3.565919 -0.436689 0.721188 0
M  V30 9 C 4.116999 0.638299 1.381763 0
M  V30 10 C 3.308843 1.753830 1.488935 0
M  V30 11 C 2.043369 1.737550 0.951306 0
M  V30 12 C 1.265446 2.880910 1.062808 0
M  V30 13 C -0.008316 2.928958 0.525910 0
M  V30 14 C -0.827888 4.167734 0.661351 0
M  V30 15 N -1.623003 4.143434 1.871718 0
M  V30 16 C -0.498473 1.797350 -0.135185 0
M  V30 17 C 0.307118 0.683871 -0.222302 0
M  V30 18 C 1.550928 0.631873 0.302328 0
M  V30 19 C 2.810871 -2.158483 -1.581675 0
M  V30 20 O 3.889935 -1.685457 -2.071242 0
M  V30 21 N 2.342261 -3.369175 -2.172079 0
M  V30 22 C 1.149880 -3.687739 -1.467566 0
M  V30 23 O 0.455627 -4.700823 -1.716220 0
M  V30 24 C -1.554332 -2.793685 0.457830 0
M  V30 25 C -2.287525 -3.157545 -0.646794 0
M  V30 26 C -3.640665 -3.309572 -0.496940 0
M  V30 27 C -4.211019 -3.094589 0.740879 0
M  V30 28 C -3.467751 -2.726980 1.852690 0
M  V30 29 C -2.098159 -2.571759 1.705905 0
M  V30 30 H -0.279224 -1.811606 4.445509 0
M  V30 31 H -1.797552 -0.930379 4.000159 0
M  V30 32 H -1.888338 -2.644802 4.446442 0
M  V30 33 H 1.008130 -1.991330 2.287417 0
M  V30 34 H 4.225309 -1.312150 0.646798 0
M  V30 35 H 5.109860 0.616340 1.789245 0
M  V30 36 H 3.702913 2.608315 1.997173 0
M  V30 37 H 1.602800 3.766597 1.560088 0
M  V30 38 H -1.536680 4.219978 -0.187617 0
M  V30 39 H -0.149778 5.031158 0.746324 0
M  V30 40 H -1.926098 5.071308 2.185277 0
M  V30 41 H -2.342625 3.396260 1.896724 0
M  V30 42 H -1.490779 1.810682 -0.563945 0
M  V30 43 H -0.116907 -0.144795 -0.761492 0
M  V30 44 H 2.737606 -3.960400 -2.961861 0
M  V30 45 H -1.857496 -3.319322 -1.601025 0
M  V30 46 H -4.284068 -3.594848 -1.320175 0
M  V30 47 H -5.274167 -3.208075 0.882767 0
M  V30 48 H -3.925771 -2.559783 2.822851 0
M  V30 END ATOM
M  V30 BEGIN BOND
M  V30 1 1 1 2
M  V30 2 1 2 3
M  V30 3 2 3 4
M  V30 4 1 4 5
M  V30 5 2 5 6
M  V30 6 1 6 7
M  V30 7 2 7 8
M  V30 8 1 8 9
M  V30 9 2 9 10
M  V30 10 1 10 11
M  V30 11 2 11 12
M  V30 12 1 12 13
M  V30 13 1 13 14
M  V30 14 1 14 15
M  V30 15 2 13 16
M  V30 16 1 16 17
M  V30 17 2 17 18
M  V30 18 1 6 19
M  V30 19 2 19 20
M  V30 20 1 19 21
M  V30 21 1 21 22
M  V30 22 2 22 23
M  V30 23 1 4 24
M  V30 24 2 24 25
M  V30 25 1 25 26
M  V30 26 2 26 27
M  V30 27 1 27 28
M  V30 28 2 28 29
M  V30 29 1 29 2
M  V30 30 1 22 5
M  V30 31 1 29 24
M  V30 32 1 18 7
M  V30 33 1 18 11
M  V30 34 1 1 30
M  V30 35 1 1 31
M  V30 36 1 1 32
M  V30 37 1 3 33
M  V30 38 1 8 34
M  V30 39 1 9 35
M  V30 40 1 10 36
M  V30 41 1 12 37
M  V30 42 1 14 38
M  V30 43 1 14 39
M  V30 44 1 15 40
M  V30 45 1 15 41
M  V30 46 1 16 42
M  V30 47 1 17 43
M  V30 48 1 21 44
M  V30 49 1 25 45
M  V30 50 1 26 46
M  V30 51 1 27 47
M  V30 52 1 28 48
M  V30 END BOND
M  V30 END CTAB
M  END
>  <Dataset>  (495) 
ChEMBL_Kinases

>  <Ligand_Instance>  (495) 
nan

>  <PDB_ID>  (495) 
nan

>  <Standardized_SMILES>  (495) 
Cn1cc(C2=C(c3cccc4cc(CN)ccc34)C(=O)NC2=O)c2ccccc21

>  <Name>  (495) 
nan

>  <Pocket>  (495) 
nan

>  <ATP_Site>  (495) 
nan

>  <Peripheral>  (495) 
nan

>  <Num_H_Atoms_ProtBoundConf>  (495) 
nan

>  <Num_Resolved_Atoms>  (495) 
nan

>  <Num_Not_Resolved_Atoms>  (495) 
nan

$$$$
CHEMBL4303287
     RDKit          3D

  0  0  0  0  0  0  0  0  0  0999 V3000
M  V30 BEGIN CTAB
M  V30 COUNTS 69 73 0 0 0
M  V30 BEGIN ATOM
M  V30 1 C 3.126316 -2.869274 2.172306 0
M  V30 2 N 2.542681 -3.645023 1.061085 0
M  V30 3 C 1.762607 -4.685766 1.505664 0
M  V30 4 C 3.378415 -3.654038 -0.028752 0
M  V30 5 C 3.318779 -2.432667 -0.893658 0
M  V30 6 C 4.191569 -1.442848 -0.945172 0
M  V30 7 C 4.071819 -0.282954 -1.859500 0
M  V30 8 O 4.744713 0.769581 -1.930469 0
M  V30 9 N 3.068346 -0.435742 -2.786185 0
M  V30 10 C 2.378411 0.234824 -3.880886 0
M  V30 11 C 2.423719 0.512845 -5.258384 0
M  V30 12 C 1.401377 1.264952 -5.741004 0
M  V30 13 C 0.344338 1.784604 -5.137675 0
M  V30 14 C 0.129044 1.617405 -3.779014 0
M  V30 15 C -0.609127 1.753862 -2.554057 0
M  V30 16 O -0.498812 2.515205 -1.522350 0
M  V30 17 N -1.585972 0.655030 -2.765913 0
M  V30 18 C -2.560546 -0.033233 -2.021507 0
M  V30 19 C -1.952034 -1.261330 -1.824905 0
M  V30 20 C -2.392719 -2.343824 -1.097981 0
M  V30 21 C -3.648284 -2.002427 -0.550627 0
M  V30 22 C -4.367946 -0.799666 -0.682654 0
M  V30 23 N -5.590831 -0.574414 0.143967 0
M  V30 24 C -4.905988 -0.767977 1.447881 0
M  V30 25 N -4.814814 -2.052191 1.882687 0
M  V30 26 C -3.793434 -2.236065 2.849950 0
M  V30 27 C -3.062719 -1.081691 3.169668 0
M  V30 28 Cl -2.014193 -1.986656 4.371838 0
M  V30 29 C -3.247227 0.257087 2.623861 0
M  V30 30 C -2.180723 0.793566 3.389614 0
M  V30 31 C -1.515746 1.456928 2.283863 0
M  V30 32 N -0.416645 2.185303 2.616244 0
M  V30 33 C -0.435974 1.947490 3.952021 0
M  V30 34 C 0.517758 2.207249 4.995920 0
M  V30 35 C 0.340449 1.668118 6.292897 0
M  V30 36 C -0.761834 0.891639 6.618389 0
M  V30 37 C -1.760266 0.611905 5.654632 0
M  V30 38 C -1.453532 1.155254 4.494921 0
M  V30 39 N -4.224812 0.383943 1.742438 0
M  V30 40 C -3.779339 0.153170 -1.428405 0
M  V30 41 C 1.203018 0.821741 -3.290528 0
M  V30 42 H 4.157334 -2.494248 1.890927 0
M  V30 43 H 3.403017 -3.616696 2.996371 0
M  V30 44 H 2.484806 -2.074079 2.523835 0
M  V30 45 H 1.445072 -5.433160 0.755365 0
M  V30 46 H 2.251472 -5.292695 2.328686 0
M  V30 47 H 0.799480 -4.363625 2.037414 0
M  V30 48 H 3.172984 -4.572629 -0.676167 0
M  V30 49 H 4.431135 -3.723212 0.278725 0
M  V30 50 H 2.422992 -2.451171 -1.496150 0
M  V30 51 H 5.019149 -1.480626 -0.224783 0
M  V30 52 H 2.451628 -1.318271 -2.926815 0
M  V30 53 H 3.269375 0.034616 -5.688107 0
M  V30 54 H 1.431799 1.475968 -6.852777 0
M  V30 55 H -0.513952 2.373829 -5.381670 0
M  V30 56 H -1.560582 0.255978 -3.767720 0
M  V30 57 H -0.949178 -1.567637 -2.287949 0
M  V30 58 H -1.894517 -3.280438 -0.958506 0
M  V30 59 H -3.976468 -2.869228 0.050147 0
M  V30 60 H -6.418202 -0.364117 -0.360807 0
M  V30 61 H -3.872142 -3.313943 3.117761 0
M  V30 62 H -1.643022 1.642233 1.156275 0
M  V30 63 H 0.305026 2.799315 2.153065 0
M  V30 64 H 1.416935 2.723003 4.702256 0
M  V30 65 H 1.105121 1.825581 7.037142 0
M  V30 66 H -0.869355 0.519991 7.633191 0
M  V30 67 H -2.685084 0.099552 5.858898 0
M  V30 68 H -4.125124 1.141598 -1.674801 0
M  V30 69 H 1.179297 0.464419 -2.209700 0
M  V30 END ATOM
M  V30 BEGIN BOND
M  V30 1 1 1 2
M  V30 2 1 2 3
M  V30 3 1 2 4
M  V30 4 1 4 5
M  V30 5 2 5 6
M  V30 6 1 6 7
M  V30 7 2 7 8
M  V30 8 1 7 9
M  V30 9 1 9 10
M  V30 10 2 10 11
M  V30 11 1 11 12
M  V30 12 2 12 13
M  V30 13 1 13 14
M  V30 14 1 14 15
M  V30 15 2 15 16
M  V30 16 1 15 17
M  V30 17 1 17 18
M  V30 18 2 18 19
M  V30 19 1 19 20
M  V30 20 2 20 21
M  V30 21 1 21 22
M  V30 22 1 22 23
M  V30 23 1 23 24
M  V30 24 2 24 25
M  V30 25 1 25 26
M  V30 26 2 26 27
M  V30 27 1 27 28
M  V30 28 1 27 29
M  V30 29 1 29 30
M  V30 30 2 30 31
M  V30 31 1 31 32
M  V30 32 1 32 33
M  V30 33 2 33 34
M  V30 34 1 34 35
M  V30 35 2 35 36
M  V30 36 1 36 37
M  V30 37 2 37 38
M  V30 38 2 29 39
M  V30 39 2 22 40
M  V30 40 2 14 41
M  V30 41 1 41 10
M  V30 42 1 40 18
M  V30 43 1 39 24
M  V30 44 1 38 30
M  V30 45 1 38 33
M  V30 46 1 1 42
M  V30 47 1 1 43
M  V30 48 1 1 44
M  V30 49 1 3 45
M  V30 50 1 3 46
M  V30 51 1 3 47
M  V30 52 1 4 48
M  V30 53 1 4 49
M  V30 54 1 5 50
M  V30 55 1 6 51
M  V30 56 1 9 52
M  V30 57 1 11 53
M  V30 58 1 12 54
M  V30 59 1 13 55
M  V30 60 1 17 56
M  V30 61 1 19 57
M  V30 62 1 20 58
M  V30 63 1 21 59
M  V30 64 1 23 60
M  V30 65 1 26 61
M  V30 66 1 31 62
M  V30 67 1 32 63
M  V30 68 1 34 64
M  V30 69 1 35 65
M  V30 70 1 36 66
M  V30 71 1 37 67
M  V30 72 1 40 68
M  V30 73 1 41 69
M  V30 END BOND
M  V30 END CTAB
M  END
>  <Dataset>  (496) 
ChEMBL_Kinases

>  <Ligand_Instance>  (496) 
nan

>  <PDB_ID>  (496) 
nan

>  <Standardized_SMILES>  (496) 
CN(C)C/C=C/C(=O)Nc1cccc(C(=O)Nc2cccc(Nc3ncc(Cl)c(-c4c[nH]c5ccccc45)n3)c2)c1

>  <Name>  (496) 
nan

>  <Pocket>  (496) 
nan

>  <ATP_Site>  (496) 
nan

>  <Peripheral>  (496) 
nan

>  <Num_H_Atoms_ProtBoundConf>  (496) 
nan

>  <Num_Resolved_Atoms>  (496) 
nan

>  <Num_Not_Resolved_Atoms>  (496) 
nan

$$$$
CHEMBL419866
     RDKit          3D

  0  0  0  0  0  0  0  0  0  0999 V3000
M  V30 BEGIN CTAB
M  V30 COUNTS 67 73 0 0 0
M  V30 BEGIN ATOM
M  V30 1 O 1.448971 1.405982 5.997735 0
M  V30 2 C 1.894434 0.369126 5.469872 0
M  V30 3 N 2.719674 -0.719567 5.908815 0
M  V30 4 C 2.889442 -1.637157 4.808150 0
M  V30 5 O 3.471491 -2.715414 4.577710 0
M  V30 6 C 2.152117 -1.080611 3.706640 0
M  V30 7 C 1.578676 0.079721 4.094404 0
M  V30 8 C 0.817385 0.809918 3.053650 0
M  V30 9 C -0.385775 0.531161 2.471806 0
M  V30 10 N -0.602524 1.437350 1.512330 0
M  V30 11 C 0.457162 2.282397 1.499394 0
M  V30 12 C 0.699900 3.394402 0.694650 0
M  V30 13 C 1.888927 4.088979 0.918862 0
M  V30 14 C 2.842673 3.753463 1.881133 0
M  V30 15 C 2.556986 2.646614 2.650600 0
M  V30 16 C 1.394290 1.919858 2.472774 0
M  V30 17 C -1.826439 1.299095 0.753877 0
M  V30 18 C -2.561792 0.084608 1.142462 0
M  V30 19 O -2.111368 -1.157999 0.887275 0
M  V30 20 C -2.029561 -1.645170 -0.355148 0 CFG=2
M  V30 21 C -3.385250 -2.474944 -0.616833 0
M  V30 22 N -3.323028 -2.995915 -1.960075 0
M  V30 23 C -4.492712 -3.784698 -2.297231 0
M  V30 24 C -4.408977 -3.805978 -3.825848 0
M  V30 25 C -4.034729 -2.393898 -4.138813 0
M  V30 26 C -3.400041 -1.865643 -2.891447 0
M  V30 27 C -0.974804 -2.577279 -0.694976 0
M  V30 28 C 0.444413 -2.311561 -0.808882 0
M  V30 29 N 1.237532 -1.911637 0.296330 0
M  V30 30 C 0.895604 -1.917549 1.574966 0
M  V30 31 C 1.919865 -1.422238 2.292537 0
M  V30 32 C 2.940860 -1.104655 1.426223 0
M  V30 33 C 4.238644 -0.583596 1.517461 0
M  V30 34 C 5.081926 -0.367843 0.452680 0
M  V30 35 C 4.632971 -0.682249 -0.808562 0
M  V30 36 C 3.368199 -1.194848 -0.939455 0
M  V30 37 C 2.507714 -1.415167 0.150055 0
M  V30 38 H 3.136389 -0.858392 6.835968 0
M  V30 39 H -0.889031 -0.301985 2.909441 0
M  V30 40 H 0.013656 3.715060 -0.067347 0
M  V30 41 H 2.104805 4.964193 0.302998 0
M  V30 42 H 3.732783 4.360405 1.973138 0
M  V30 43 H 3.291261 2.391964 3.388584 0
M  V30 44 H -1.651950 1.406090 -0.338460 0
M  V30 45 H -2.457517 2.183229 1.069006 0
M  V30 46 H -3.640324 0.230366 0.802358 0
M  V30 47 H -2.703622 0.146897 2.272025 0
M  V30 48 H -2.214016 -0.816792 -1.089941 0
M  V30 49 H -3.410121 -3.311640 0.082224 0
M  V30 50 H -4.156317 -1.701095 -0.490957 0
M  V30 51 H -4.476101 -4.807756 -1.929117 0
M  V30 52 H -5.439027 -3.307725 -2.036812 0
M  V30 53 H -5.404479 -4.094611 -4.193726 0
M  V30 54 H -3.611806 -4.487977 -4.172474 0
M  V30 55 H -3.339661 -2.300492 -5.001035 0
M  V30 56 H -4.961007 -1.850386 -4.434474 0
M  V30 57 H -4.135635 -1.157047 -2.419336 0
M  V30 58 H -2.438306 -1.380197 -3.036008 0
M  V30 59 H -1.267408 -3.007587 -1.741383 0
M  V30 60 H -1.170097 -3.520931 -0.035061 0
M  V30 61 H 0.580045 -1.579261 -1.668046 0
M  V30 62 H 0.933228 -3.248542 -1.217233 0
M  V30 63 H 0.015046 -2.258327 2.047901 0
M  V30 64 H 4.663442 -0.313179 2.461574 0
M  V30 65 H 6.074427 0.035155 0.565452 0
M  V30 66 H 5.253572 -0.531836 -1.670817 0
M  V30 67 H 3.035681 -1.434871 -1.938786 0
M  V30 END ATOM
M  V30 BEGIN BOND
M  V30 1 2 1 2
M  V30 2 1 2 3
M  V30 3 1 3 4
M  V30 4 2 4 5
M  V30 5 1 4 6
M  V30 6 2 6 7
M  V30 7 1 7 8
M  V30 8 2 8 9
M  V30 9 1 9 10
M  V30 10 1 10 11
M  V30 11 2 11 12
M  V30 12 1 12 13
M  V30 13 2 13 14
M  V30 14 1 14 15
M  V30 15 2 15 16
M  V30 16 1 10 17
M  V30 17 1 17 18
M  V30 18 1 18 19
M  V30 19 1 19 20
M  V30 20 1 20 21
M  V30 21 1 21 22
M  V30 22 1 22 23
M  V30 23 1 23 24
M  V30 24 1 24 25
M  V30 25 1 25 26
M  V30 26 1 20 27
M  V30 27 1 27 28
M  V30 28 1 28 29
M  V30 29 1 29 30
M  V30 30 2 30 31
M  V30 31 1 31 32
M  V30 32 2 32 33
M  V30 33 1 33 34
M  V30 34 2 34 35
M  V30 35 1 35 36
M  V30 36 2 36 37
M  V30 37 1 7 2
M  V30 38 1 16 8
M  V30 39 1 26 22
M  V30 40 1 37 29
M  V30 41 1 31 6
M  V30 42 1 37 32
M  V30 43 1 16 11
M  V30 44 1 3 38
M  V30 45 1 9 39
M  V30 46 1 12 40
M  V30 47 1 13 41
M  V30 48 1 14 42
M  V30 49 1 15 43
M  V30 50 1 17 44
M  V30 51 1 17 45
M  V30 52 1 18 46
M  V30 53 1 18 47
M  V30 54 1 20 48 CFG=3
M  V30 55 1 21 49
M  V30 56 1 21 50
M  V30 57 1 23 51
M  V30 58 1 23 52
M  V30 59 1 24 53
M  V30 60 1 24 54
M  V30 61 1 25 55
M  V30 62 1 25 56
M  V30 63 1 26 57
M  V30 64 1 26 58
M  V30 65 1 27 59
M  V30 66 1 27 60
M  V30 67 1 28 61
M  V30 68 1 28 62
M  V30 69 1 30 63
M  V30 70 1 33 64
M  V30 71 1 34 65
M  V30 72 1 35 66
M  V30 73 1 36 67
M  V30 END BOND
M  V30 END CTAB
M  END
>  <Dataset>  (497) 
ChEMBL_Kinases

>  <Ligand_Instance>  (497) 
nan

>  <PDB_ID>  (497) 
nan

>  <Standardized_SMILES>  (497) 
O=C1NC(=O)C2=C1c1cn(c3ccccc13)CCO[C@H](CN1CCCC1)CCn1cc2c2ccccc21

>  <Name>  (497) 
nan

>  <Pocket>  (497) 
nan

>  <ATP_Site>  (497) 
nan

>  <Peripheral>  (497) 
nan

>  <Num_H_Atoms_ProtBoundConf>  (497) 
nan

>  <Num_Resolved_Atoms>  (497) 
nan

>  <Num_Not_Resolved_Atoms>  (497) 
nan

$$$$
CHEMBL2147537
     RDKit          3D

  0  0  0  0  0  0  0  0  0  0999 V3000
M  V30 BEGIN CTAB
M  V30 COUNTS 38 40 0 0 0
M  V30 BEGIN ATOM
M  V30 1 C 0.906275 -3.545618 3.780224 0
M  V30 2 C 0.006014 -2.348458 4.001717 0 CFG=2
M  V30 3 N -1.384308 -2.759969 4.096094 0
M  V30 4 C 0.161563 -1.352931 2.869189 0
M  V30 5 N -0.180593 -1.922594 1.586860 0
M  V30 6 C -0.082802 -1.106006 0.430284 0
M  V30 7 N 0.320511 0.170560 0.531179 0
M  V30 8 C 0.438376 1.005288 -0.515182 0
M  V30 9 C 0.887977 2.367197 -0.260428 0
M  V30 10 C 1.053170 3.326166 -1.235425 0
M  V30 11 C 1.485616 4.594735 -0.894060 0
M  V30 12 N 1.764041 4.963583 0.369436 0
M  V30 13 C 1.618002 4.065394 1.348849 0
M  V30 14 C 1.187356 2.799801 1.014280 0
M  V30 15 C 0.139735 0.574728 -1.789320 0
M  V30 16 C -0.281673 -0.727124 -1.969256 0
M  V30 17 C -0.590056 -1.195262 -3.229920 0
M  V30 18 N -1.001363 -2.487702 -3.354575 0
M  V30 19 C -1.115620 -3.314557 -2.299028 0
M  V30 20 C -0.800532 -2.819253 -1.050540 0
M  V30 21 C -0.377910 -1.523586 -0.847129 0
M  V30 22 H 1.658222 -3.634723 4.584616 0
M  V30 23 H 1.381792 -3.513230 2.764377 0
M  V30 24 H 0.261058 -4.470024 3.762641 0
M  V30 25 H 0.283787 -1.890562 4.970883 0
M  V30 26 H -1.794462 -2.566058 5.045843 0
M  V30 27 H -1.477838 -3.776793 3.862123 0
M  V30 28 H -0.482504 -0.478564 3.124689 0
M  V30 29 H 1.234409 -1.011367 2.901464 0
M  V30 30 H -0.480776 -2.915570 1.610826 0
M  V30 31 H 0.844696 3.083845 -2.260302 0
M  V30 32 H 1.602116 5.322732 -1.702134 0
M  V30 33 H 1.839485 4.352796 2.367963 0
M  V30 34 H 1.092323 2.119606 1.874636 0
M  V30 35 H 0.217296 1.196669 -2.647155 0
M  V30 36 H -0.502524 -0.541278 -4.086423 0
M  V30 37 H -1.447061 -4.340085 -2.436566 0
M  V30 38 H -0.909079 -3.522919 -0.238549 0
M  V30 END ATOM
M  V30 BEGIN BOND
M  V30 1 1 1 2
M  V30 2 1 2 3
M  V30 3 1 2 4
M  V30 4 1 4 5
M  V30 5 1 5 6
M  V30 6 2 6 7
M  V30 7 1 7 8
M  V30 8 1 8 9
M  V30 9 2 9 10
M  V30 10 1 10 11
M  V30 11 2 11 12
M  V30 12 1 12 13
M  V30 13 2 13 14
M  V30 14 2 8 15
M  V30 15 1 15 16
M  V30 16 2 16 17
M  V30 17 1 17 18
M  V30 18 2 18 19
M  V30 19 1 19 20
M  V30 20 2 20 21
M  V30 21 1 21 6
M  V30 22 1 14 9
M  V30 23 1 21 16
M  V30 24 1 1 22
M  V30 25 1 1 23
M  V30 26 1 1 24
M  V30 27 1 2 25 CFG=1
M  V30 28 1 3 26
M  V30 29 1 3 27
M  V30 30 1 4 28
M  V30 31 1 4 29
M  V30 32 1 5 30
M  V30 33 1 10 31
M  V30 34 1 11 32
M  V30 35 1 13 33
M  V30 36 1 14 34
M  V30 37 1 15 35
M  V30 38 1 17 36
M  V30 39 1 19 37
M  V30 40 1 20 38
M  V30 END BOND
M  V30 END CTAB
M  END
>  <Dataset>  (498) 
ChEMBL_Kinases

>  <Ligand_Instance>  (498) 
nan

>  <PDB_ID>  (498) 
nan

>  <Standardized_SMILES>  (498) 
C[C@H](N)CNc1nc(-c2ccncc2)cc2cnccc12

>  <Name>  (498) 
nan

>  <Pocket>  (498) 
nan

>  <ATP_Site>  (498) 
nan

>  <Peripheral>  (498) 
nan

>  <Num_H_Atoms_ProtBoundConf>  (498) 
nan

>  <Num_Resolved_Atoms>  (498) 
nan

>  <Num_Not_Resolved_Atoms>  (498) 
nan

$$$$
CHEMBL210618
     RDKit          3D

  0  0  0  0  0  0  0  0  0  0999 V3000
M  V30 BEGIN CTAB
M  V30 COUNTS 46 47 0 0 0
M  V30 BEGIN ATOM
M  V30 1 C 0.908966 -2.640774 2.831687 0
M  V30 2 C 0.228973 -3.654594 1.971802 0
M  V30 3 O -1.162934 -3.614500 1.947952 0
M  V30 4 C -1.958667 -2.559622 1.559665 0
M  V30 5 N -1.499373 -1.370852 1.152149 0
M  V30 6 C -2.294130 -0.333092 0.766525 0
M  V30 7 N -1.428400 0.769455 0.451489 0
M  V30 8 C -0.575539 0.508209 -0.658807 0
M  V30 9 O -0.867777 -0.641938 -1.016428 0
M  V30 10 C 0.396933 1.581234 -1.100951 0
M  V30 11 C 1.712405 1.151377 -0.473651 0
M  V30 12 C 2.067217 1.972393 0.582601 0
M  V30 13 C 3.258457 1.714143 1.277169 0
M  V30 14 O 3.610162 2.543736 2.333608 0
M  V30 15 C 2.759068 3.645912 2.695227 0
M  V30 16 C 4.015391 0.645970 0.864392 0
M  V30 17 C 3.636915 -0.165580 -0.199761 0
M  V30 18 C 2.457779 0.083679 -0.895555 0
M  V30 19 O 1.934123 -0.604146 -1.960905 0
M  V30 20 C 2.469062 -1.717483 -2.594724 0
M  V30 21 C -3.664598 -0.468517 0.779883 0
M  V30 22 C -4.183851 -1.680776 1.196780 0
M  V30 23 N -5.591553 -1.766222 1.190605 0
M  V30 24 C -3.335478 -2.708382 1.580523 0
M  V30 25 C -3.912814 -3.963107 2.024871 0
M  V30 26 N -4.390764 -4.956543 2.373125 0
M  V30 27 H 1.922639 -2.395565 2.385397 0
M  V30 28 H 1.157831 -3.062120 3.851852 0
M  V30 29 H 0.382125 -1.700336 2.981342 0
M  V30 30 H 0.688208 -3.613769 0.970053 0
M  V30 31 H 0.509027 -4.666130 2.399562 0
M  V30 32 H -1.447117 1.688034 1.001681 0
M  V30 33 H 0.068643 2.562703 -0.796103 0
M  V30 34 H 0.519746 1.547989 -2.186392 0
M  V30 35 H 1.477983 2.818166 0.919043 0
M  V30 36 H 1.744151 3.331324 2.954603 0
M  V30 37 H 3.196843 4.128005 3.602265 0
M  V30 38 H 2.689479 4.396653 1.871059 0
M  V30 39 H 4.955571 0.411422 1.387057 0
M  V30 40 H 4.218341 -1.020423 -0.553057 0
M  V30 41 H 3.577847 -1.798108 -2.456257 0
M  V30 42 H 2.324228 -1.622752 -3.712571 0
M  V30 43 H 2.054193 -2.688247 -2.264143 0
M  V30 44 H -4.140156 0.418593 0.452541 0
M  V30 45 H -5.720495 -1.632410 2.218135 0
M  V30 46 H -5.880362 -1.919477 0.182565 0
M  V30 END ATOM
M  V30 BEGIN BOND
M  V30 1 1 1 2
M  V30 2 1 2 3
M  V30 3 1 3 4
M  V30 4 2 4 5
M  V30 5 1 5 6
M  V30 6 1 6 7
M  V30 7 1 7 8
M  V30 8 2 8 9
M  V30 9 1 8 10
M  V30 10 1 10 11
M  V30 11 2 11 12
M  V30 12 1 12 13
M  V30 13 1 13 14
M  V30 14 1 14 15
M  V30 15 2 13 16
M  V30 16 1 16 17
M  V30 17 2 17 18
M  V30 18 1 18 19
M  V30 19 1 19 20
M  V30 20 2 6 21
M  V30 21 1 21 22
M  V30 22 1 22 23
M  V30 23 2 22 24
M  V30 24 1 24 25
M  V30 25 3 25 26
M  V30 26 1 24 4
M  V30 27 1 18 11
M  V30 28 1 1 27
M  V30 29 1 1 28
M  V30 30 1 1 29
M  V30 31 1 2 30
M  V30 32 1 2 31
M  V30 33 1 7 32
M  V30 34 1 10 33
M  V30 35 1 10 34
M  V30 36 1 12 35
M  V30 37 1 15 36
M  V30 38 1 15 37
M  V30 39 1 15 38
M  V30 40 1 16 39
M  V30 41 1 17 40
M  V30 42 1 20 41
M  V30 43 1 20 42
M  V30 44 1 20 43
M  V30 45 1 21 44
M  V30 46 1 23 45
M  V30 47 1 23 46
M  V30 END BOND
M  V30 END CTAB
M  END
>  <Dataset>  (499) 
ChEMBL_Kinases

>  <Ligand_Instance>  (499) 
nan

>  <PDB_ID>  (499) 
nan

>  <Standardized_SMILES>  (499) 
CCOc1nc(NC(=O)Cc2cc(OC)ccc2OC)cc(N)c1C#N

>  <Name>  (499) 
nan

>  <Pocket>  (499) 
nan

>  <ATP_Site>  (499) 
nan

>  <Peripheral>  (499) 
nan

>  <Num_H_Atoms_ProtBoundConf>  (499) 
nan

>  <Num_Resolved_Atoms>  (499) 
nan

>  <Num_Not_Resolved_Atoms>  (499) 
nan

$$$$
CHEMBL431955
     RDKit          3D

  0  0  0  0  0  0  0  0  0  0999 V3000
M  V30 BEGIN CTAB
M  V30 COUNTS 65 68 0 0 0
M  V30 BEGIN ATOM
M  V30 1 O 3.950836 3.430110 2.228771 0
M  V30 2 C 2.744038 3.259585 1.909070 0
M  V30 3 N 2.281630 1.937603 2.121790 0
M  V30 4 C 3.155932 0.940202 2.652486 0 CFG=1
M  V30 5 C 2.512747 0.436029 3.951653 0
M  V30 6 C 3.468705 -0.688789 4.275787 0 CFG=1
M  V30 7 C 2.870719 -1.732139 5.171799 0
M  V30 8 O 1.767914 -2.270978 4.533274 0
M  V30 9 C 3.825204 -1.276604 2.936519 0
M  V30 10 C 3.258971 -0.325869 1.874839 0 CFG=1
M  V30 11 O 1.994436 -0.815855 1.453876 0
M  V30 12 C 1.677269 -1.104122 0.155886 0
M  V30 13 O 2.643848 -0.883547 -0.632785 0
M  V30 14 C 0.376109 -1.606496 -0.263770 0
M  V30 15 C -0.566873 -1.792160 0.716356 0
M  V30 16 C -1.830793 -2.272709 0.374575 0
M  V30 17 O -2.727136 -2.431112 1.433267 0
M  V30 18 C -2.157736 -2.567007 -0.924996 0
M  V30 19 C -3.487330 -2.980618 -1.289085 0
M  V30 20 O -4.244230 -2.529560 -0.364475 0
M  V30 21 C -4.250505 -3.671451 -2.255163 0
M  V30 22 C -5.565552 -3.211562 -2.432550 0
M  V30 23 O -6.111627 -2.125172 -1.730467 0
M  V30 24 C -6.466038 -3.783142 -3.322533 0
M  V30 25 C -6.001928 -4.849904 -4.043325 0
M  V30 26 C -4.752237 -5.368296 -3.941051 0
M  V30 27 C -3.918862 -4.749298 -3.036161 0
M  V30 28 C -2.625329 -5.434735 -2.827336 0
M  V30 29 O -1.630746 -5.369803 -2.069506 0
M  V30 30 O -2.174016 -6.484462 -3.572883 0
M  V30 31 C -1.131788 -2.343912 -1.854858 0
M  V30 32 O -1.322744 -2.590836 -3.220980 0
M  V30 33 C 0.129258 -1.875676 -1.589754 0
M  V30 34 C 1.873107 4.300433 1.367869 0
M  V30 35 C 0.550041 4.124701 1.015388 0
M  V30 36 C -0.210334 5.158179 0.509445 0
M  V30 37 C 0.401953 6.394463 0.363732 0
M  V30 38 O -0.373723 7.435139 -0.148782 0
M  V30 39 C 1.725451 6.599890 0.708433 0
M  V30 40 C 2.473739 5.555021 1.213767 0
M  V30 41 H 1.301716 1.655482 1.900400 0
M  V30 42 H 4.171442 1.292813 2.866580 0
M  V30 43 H 2.546818 1.196211 4.741208 0
M  V30 44 H 1.483128 0.114371 3.777109 0
M  V30 45 H 4.359507 -0.195180 4.732255 0
M  V30 46 H 2.641622 -1.309984 6.160847 0
M  V30 47 H 3.617492 -2.555752 5.237105 0
M  V30 48 H 1.063049 -2.567501 5.153905 0
M  V30 49 H 3.317728 -2.259475 2.832228 0
M  V30 50 H 4.910070 -1.443114 2.801465 0
M  V30 51 H 3.967408 -0.199539 1.038027 0
M  V30 52 H -0.338817 -1.570729 1.740222 0
M  V30 53 H -3.304664 -1.640876 1.698796 0
M  V30 54 H -6.344531 -1.247771 -2.179783 0
M  V30 55 H -7.463543 -3.441565 -3.463804 0
M  V30 56 H -6.677601 -5.312043 -4.744140 0
M  V30 57 H -4.440794 -6.208287 -4.532037 0
M  V30 58 H -1.743921 -7.334474 -3.280865 0
M  V30 59 H -0.684791 -3.082570 -3.802026 0
M  V30 60 H 0.897634 -1.715475 -2.326092 0
M  V30 61 H 0.126609 3.144297 1.149690 0
M  V30 62 H -1.242331 4.957075 0.251704 0
M  V30 63 H -0.623083 8.263726 0.382206 0
M  V30 64 H 2.145842 7.603568 0.567003 0
M  V30 65 H 3.500569 5.813442 1.454666 0
M  V30 END ATOM
M  V30 BEGIN BOND
M  V30 1 2 1 2
M  V30 2 1 2 3
M  V30 3 1 3 4
M  V30 4 1 4 5
M  V30 5 1 5 6
M  V30 6 1 6 7
M  V30 7 1 7 8
M  V30 8 1 6 9
M  V30 9 1 9 10
M  V30 10 1 10 11
M  V30 11 1 11 12
M  V30 12 2 12 13
M  V30 13 1 12 14
M  V30 14 2 14 15
M  V30 15 1 15 16
M  V30 16 1 16 17
M  V30 17 2 16 18
M  V30 18 1 18 19
M  V30 19 2 19 20
M  V30 20 1 19 21
M  V30 21 2 21 22
M  V30 22 1 22 23
M  V30 23 1 22 24
M  V30 24 2 24 25
M  V30 25 1 25 26
M  V30 26 2 26 27
M  V30 27 1 27 28
M  V30 28 2 28 29
M  V30 29 1 28 30
M  V30 30 1 18 31
M  V30 31 1 31 32
M  V30 32 2 31 33
M  V30 33 1 2 34
M  V30 34 2 34 35
M  V30 35 1 35 36
M  V30 36 2 36 37
M  V30 37 1 37 38
M  V30 38 1 37 39
M  V30 39 2 39 40
M  V30 40 1 10 4
M  V30 41 1 33 14
M  V30 42 1 40 34
M  V30 43 1 27 21
M  V30 44 1 3 41
M  V30 45 1 4 42 CFG=1
M  V30 46 1 5 43
M  V30 47 1 5 44
M  V30 48 1 6 45 CFG=1
M  V30 49 1 7 46
M  V30 50 1 7 47
M  V30 51 1 8 48
M  V30 52 1 9 49
M  V30 53 1 9 50
M  V30 54 1 10 51 CFG=3
M  V30 55 1 15 52
M  V30 56 1 17 53
M  V30 57 1 23 54
M  V30 58 1 24 55
M  V30 59 1 25 56
M  V30 60 1 26 57
M  V30 61 1 30 58
M  V30 62 1 32 59
M  V30 63 1 33 60
M  V30 64 1 35 61
M  V30 65 1 36 62
M  V30 66 1 38 63
M  V30 67 1 39 64
M  V30 68 1 40 65
M  V30 END BOND
M  V30 END CTAB
M  END
>  <Dataset>  (500) 
ChEMBL_Kinases

>  <Ligand_Instance>  (500) 
nan

>  <PDB_ID>  (500) 
nan

>  <Standardized_SMILES>  (500) 
O=C(N[C@H]1C[C@@H](CO)C[C@H]1OC(=O)c1cc(O)c(C(=O)c2c(O)cccc2C(=O)O)c(O)c1)c1ccc(O)cc1

>  <Name>  (500) 
nan

>  <Pocket>  (500) 
nan

>  <ATP_Site>  (500) 
nan

>  <Peripheral>  (500) 
nan

>  <Num_H_Atoms_ProtBoundConf>  (500) 
nan

>  <Num_Resolved_Atoms>  (500) 
nan

>  <Num_Not_Resolved_Atoms>  (500) 
nan

$$$$
CHEMBL302998
     RDKit          3D

  0  0  0  0  0  0  0  0  0  0999 V3000
M  V30 BEGIN CTAB
M  V30 COUNTS 67 70 0 0 0
M  V30 BEGIN ATOM
M  V30 1 O 3.662862 3.252788 -0.563928 0
M  V30 2 C 3.073638 2.271571 -0.050999 0
M  V30 3 N 2.319663 1.348490 -0.827590 0
M  V30 4 C 2.129585 1.404457 -2.267044 0 CFG=1
M  V30 5 C 2.671847 0.135550 -2.830351 0
M  V30 6 C 1.711478 -0.690461 -3.612065 0
M  V30 7 C 1.611716 -0.170510 -5.045296 0
M  V30 8 C 1.417344 1.338702 -4.917127 0
M  V30 9 C 0.269928 1.521087 -3.965599 0
M  V30 10 C 0.668793 1.629763 -2.522662 0 CFG=1
M  V30 11 O -0.038263 0.764925 -1.681807 0
M  V30 12 C -0.868419 1.132912 -0.643454 0
M  V30 13 O -1.048991 2.324224 -0.376487 0
M  V30 14 C -1.522163 0.081126 0.124726 0
M  V30 15 C -2.340325 0.482787 1.146966 0
M  V30 16 C -2.991801 -0.473197 1.919657 0
M  V30 17 O -3.810882 0.039071 2.946164 0
M  V30 18 C -2.836800 -1.820742 1.685612 0
M  V30 19 C -3.583913 -2.763649 2.462945 0
M  V30 20 O -4.640237 -2.169069 2.892600 0
M  V30 21 C -3.578965 -4.114853 2.928060 0
M  V30 22 C -4.780292 -4.720869 3.221943 0
M  V30 23 O -6.014053 -4.078004 3.030135 0
M  V30 24 C -4.823481 -6.000269 3.722909 0
M  V30 25 C -3.682310 -6.718812 3.948737 0
M  V30 26 C -2.451604 -6.170980 3.678553 0
M  V30 27 C -2.472161 -4.889284 3.181301 0
M  V30 28 C -1.139646 -4.368697 3.042159 0
M  V30 29 O -0.038985 -4.941938 3.225778 0
M  V30 30 O -0.073904 -3.563094 2.815665 0
M  V30 31 C -2.004987 -2.159393 0.644256 0
M  V30 32 O -1.724551 -3.449393 0.235870 0
M  V30 33 C -1.336871 -1.256154 -0.149208 0
M  V30 34 C 3.204937 2.128426 1.393758 0
M  V30 35 C 3.951297 3.055308 2.090461 0
M  V30 36 C 4.135317 3.002296 3.476104 0
M  V30 37 C 3.537637 1.970330 4.167262 0
M  V30 38 O 3.645033 1.807632 5.544114 0
M  V30 39 C 2.785484 1.025648 3.510961 0
M  V30 40 C 2.635060 1.122912 2.145916 0
M  V30 41 H 1.832668 0.534709 -0.392396 0
M  V30 42 H 2.693104 2.307032 -2.611093 0
M  V30 43 H 3.149914 -0.525714 -2.060508 0
M  V30 44 H 3.508094 0.414800 -3.526174 0
M  V30 45 H 2.187905 -1.708118 -3.722693 0
M  V30 46 H 0.738683 -0.872314 -3.161500 0
M  V30 47 H 0.707609 -0.669590 -5.464475 0
M  V30 48 H 2.503616 -0.423299 -5.629209 0
M  V30 49 H 2.354673 1.755499 -4.554031 0
M  V30 50 H 1.148987 1.773193 -5.923974 0
M  V30 51 H -0.460964 0.677909 -4.124752 0
M  V30 52 H -0.299727 2.418283 -4.310545 0
M  V30 53 H 0.435176 2.664971 -2.194783 0
M  V30 54 H -2.483407 1.535959 1.357452 0
M  V30 55 H -3.415995 0.787750 3.525806 0
M  V30 56 H -6.559701 -4.258437 2.193666 0
M  V30 57 H -5.780570 -6.445269 3.942827 0
M  V30 58 H -3.805560 -7.715122 4.340655 0
M  V30 59 H -1.585611 -6.775580 3.873306 0
M  V30 60 H -0.162263 -2.539525 2.845064 0
M  V30 61 H -2.256442 -3.848195 -0.531950 0
M  V30 62 H -0.673421 -1.462550 -0.974600 0
M  V30 63 H 4.450731 3.896811 1.603474 0
M  V30 64 H 4.722802 3.733978 4.014894 0
M  V30 65 H 3.090890 2.348350 6.199592 0
M  V30 66 H 2.297849 0.193314 4.033198 0
M  V30 67 H 2.043710 0.380300 1.628532 0
M  V30 END ATOM
M  V30 BEGIN BOND
M  V30 1 2 1 2
M  V30 2 1 2 3
M  V30 3 1 3 4
M  V30 4 1 4 5
M  V30 5 1 5 6
M  V30 6 1 6 7
M  V30 7 1 7 8
M  V30 8 1 8 9
M  V30 9 1 9 10
M  V30 10 1 10 11
M  V30 11 1 11 12
M  V30 12 2 12 13
M  V30 13 1 12 14
M  V30 14 2 14 15
M  V30 15 1 15 16
M  V30 16 1 16 17
M  V30 17 2 16 18
M  V30 18 1 18 19
M  V30 19 2 19 20
M  V30 20 1 19 21
M  V30 21 2 21 22
M  V30 22 1 22 23
M  V30 23 1 22 24
M  V30 24 2 24 25
M  V30 25 1 25 26
M  V30 26 2 26 27
M  V30 27 1 27 28
M  V30 28 2 28 29
M  V30 29 1 28 30
M  V30 30 1 18 31
M  V30 31 1 31 32
M  V30 32 2 31 33
M  V30 33 1 2 34
M  V30 34 2 34 35
M  V30 35 1 35 36
M  V30 36 2 36 37
M  V30 37 1 37 38
M  V30 38 1 37 39
M  V30 39 2 39 40
M  V30 40 1 10 4
M  V30 41 1 33 14
M  V30 42 1 40 34
M  V30 43 1 27 21
M  V30 44 1 3 41
M  V30 45 1 4 42 CFG=3
M  V30 46 1 5 43
M  V30 47 1 5 44
M  V30 48 1 6 45
M  V30 49 1 6 46
M  V30 50 1 7 47
M  V30 51 1 7 48
M  V30 52 1 8 49
M  V30 53 1 8 50
M  V30 54 1 9 51
M  V30 55 1 9 52
M  V30 56 1 10 53 CFG=1
M  V30 57 1 15 54
M  V30 58 1 17 55
M  V30 59 1 23 56
M  V30 60 1 24 57
M  V30 61 1 25 58
M  V30 62 1 26 59
M  V30 63 1 30 60
M  V30 64 1 32 61
M  V30 65 1 33 62
M  V30 66 1 35 63
M  V30 67 1 36 64
M  V30 68 1 38 65
M  V30 69 1 39 66
M  V30 70 1 40 67
M  V30 END BOND
M  V30 END CTAB
M  END
>  <Dataset>  (501) 
ChEMBL_Kinases

>  <Ligand_Instance>  (501) 
nan

>  <PDB_ID>  (501) 
nan

>  <Standardized_SMILES>  (501) 
O=C(N[C@H]1CCCCC[C@H]1OC(=O)c1cc(O)c(C(=O)c2c(O)cccc2C(=O)O)c(O)c1)c1ccc(O)cc1

>  <Name>  (501) 
nan

>  <Pocket>  (501) 
nan

>  <ATP_Site>  (501) 
nan

>  <Peripheral>  (501) 
nan

>  <Num_H_Atoms_ProtBoundConf>  (501) 
nan

>  <Num_Resolved_Atoms>  (501) 
nan

>  <Num_Not_Resolved_Atoms>  (501) 
nan

$$$$
CHEMBL177635
     RDKit          3D

  0  0  0  0  0  0  0  0  0  0999 V3000
M  V30 BEGIN CTAB
M  V30 COUNTS 60 63 0 0 0
M  V30 BEGIN ATOM
M  V30 1 O 4.411235 -2.837478 3.032933 0
M  V30 2 C 3.252910 -2.373632 2.906208 0
M  V30 3 N 3.101555 -0.967763 2.837758 0
M  V30 4 C 4.185317 -0.009710 2.902634 0 CFG=2
M  V30 5 C 3.971871 1.049751 3.953260 0
M  V30 6 N 4.765443 2.153287 3.444015 0
M  V30 7 C 4.678414 2.123210 2.000502 0
M  V30 8 C 4.106197 0.791503 1.615329 0
M  V30 9 O 2.752275 0.881200 1.203554 0
M  V30 10 C 2.313938 0.334457 0.029577 0
M  V30 11 O 3.199337 -0.253725 -0.658202 0
M  V30 12 C 0.935171 0.411657 -0.415314 0
M  V30 13 C 0.042795 1.066948 0.390785 0
M  V30 14 C -1.288370 1.163792 0.005685 0
M  V30 15 O -2.112966 1.859531 0.912586 0
M  V30 16 C -1.760467 0.623621 -1.165655 0
M  V30 17 C -3.122630 0.812470 -1.547847 0
M  V30 18 O -3.537700 1.883471 -0.970430 0
M  V30 19 C -4.175110 0.267486 -2.317199 0
M  V30 20 C -5.180004 1.087225 -2.780695 0
M  V30 21 O -5.171890 2.478581 -2.561945 0
M  V30 22 C -6.249250 0.577901 -3.486602 0
M  V30 23 C -6.363573 -0.756256 -3.758729 0
M  V30 24 C -5.400107 -1.632135 -3.325607 0
M  V30 25 C -4.364256 -1.056826 -2.627539 0
M  V30 26 C -3.470365 -2.086363 -2.119122 0
M  V30 27 O -3.505255 -3.325863 -2.316324 0
M  V30 28 O -2.469674 -2.773053 -1.484831 0
M  V30 29 C -0.826161 -0.019109 -1.937218 0
M  V30 30 O -1.058916 -0.623878 -3.152627 0
M  V30 31 C 0.504557 -0.142725 -1.598546 0
M  V30 32 C 2.130748 -3.303991 2.836661 0
M  V30 33 C 2.451682 -4.659460 2.919072 0
M  V30 34 C 1.399017 -5.579576 2.855664 0
M  V30 35 C 0.091545 -5.135056 2.715703 0
M  V30 36 O -0.920991 -6.105458 2.658004 0
M  V30 37 C -0.217305 -3.786470 2.634692 0
M  V30 38 C 0.832041 -2.890899 2.698734 0
M  V30 39 H 2.156514 -0.549149 2.732815 0
M  V30 40 H 5.178400 -0.442370 3.012641 0
M  V30 41 H 4.411590 0.667643 4.899218 0
M  V30 42 H 2.898227 1.284778 4.035744 0
M  V30 43 H 5.761369 2.003227 3.735210 0
M  V30 44 H 5.706855 2.155521 1.549404 0
M  V30 45 H 4.052824 2.960713 1.614118 0
M  V30 46 H 4.667936 0.241219 0.858847 0
M  V30 47 H 0.385203 1.505991 1.326340 0
M  V30 48 H -2.292468 1.522763 1.848626 0
M  V30 49 H -5.482391 3.061496 -3.329105 0
M  V30 50 H -7.010964 1.252460 -3.829232 0
M  V30 51 H -7.228889 -1.068178 -4.317142 0
M  V30 52 H -5.531537 -2.673133 -3.562675 0
M  V30 53 H -2.028901 -2.328044 -0.667233 0
M  V30 54 H -1.796664 -0.355517 -3.790644 0
M  V30 55 H 1.287912 -0.634824 -2.156636 0
M  V30 56 H 3.445513 -5.042523 3.027201 0
M  V30 57 H 1.647144 -6.629282 2.919447 0
M  V30 58 H -1.540974 -6.198395 1.867526 0
M  V30 59 H -1.249383 -3.475774 2.525761 0
M  V30 60 H 0.588303 -1.850248 2.635713 0
M  V30 END ATOM
M  V30 BEGIN BOND
M  V30 1 2 1 2
M  V30 2 1 2 3
M  V30 3 1 3 4
M  V30 4 1 4 5
M  V30 5 1 5 6
M  V30 6 1 6 7
M  V30 7 1 7 8
M  V30 8 1 8 9
M  V30 9 1 9 10
M  V30 10 2 10 11
M  V30 11 1 10 12
M  V30 12 2 12 13
M  V30 13 1 13 14
M  V30 14 1 14 15
M  V30 15 2 14 16
M  V30 16 1 16 17
M  V30 17 2 17 18
M  V30 18 1 17 19
M  V30 19 2 19 20
M  V30 20 1 20 21
M  V30 21 1 20 22
M  V30 22 2 22 23
M  V30 23 1 23 24
M  V30 24 2 24 25
M  V30 25 1 25 26
M  V30 26 2 26 27
M  V30 27 1 26 28
M  V30 28 1 16 29
M  V30 29 1 29 30
M  V30 30 2 29 31
M  V30 31 1 2 32
M  V30 32 2 32 33
M  V30 33 1 33 34
M  V30 34 2 34 35
M  V30 35 1 35 36
M  V30 36 1 35 37
M  V30 37 2 37 38
M  V30 38 1 8 4
M  V30 39 1 31 12
M  V30 40 1 38 32
M  V30 41 1 25 19
M  V30 42 1 3 39
M  V30 43 1 4 40 CFG=1
M  V30 44 1 5 41
M  V30 45 1 5 42
M  V30 46 1 6 43
M  V30 47 1 7 44
M  V30 48 1 7 45
M  V30 49 1 8 46
M  V30 50 1 13 47
M  V30 51 1 15 48
M  V30 52 1 21 49
M  V30 53 1 22 50
M  V30 54 1 23 51
M  V30 55 1 24 52
M  V30 56 1 28 53
M  V30 57 1 30 54
M  V30 58 1 31 55
M  V30 59 1 33 56
M  V30 60 1 34 57
M  V30 61 1 36 58
M  V30 62 1 37 59
M  V30 63 1 38 60
M  V30 END BOND
M  V30 END CTAB
M  END
>  <Dataset>  (502) 
ChEMBL_Kinases

>  <Ligand_Instance>  (502) 
nan

>  <PDB_ID>  (502) 
nan

>  <Standardized_SMILES>  (502) 
O=C(N[C@@H]1CNCC1OC(=O)c1cc(O)c(C(=O)c2c(O)cccc2C(=O)O)c(O)c1)c1ccc(O)cc1

>  <Name>  (502) 
nan

>  <Pocket>  (502) 
nan

>  <ATP_Site>  (502) 
nan

>  <Peripheral>  (502) 
nan

>  <Num_H_Atoms_ProtBoundConf>  (502) 
nan

>  <Num_Resolved_Atoms>  (502) 
nan

>  <Num_Not_Resolved_Atoms>  (502) 
nan

$$$$
CHEMBL393929
     RDKit          3D

  0  0  0  0  0  0  0  0  0  0999 V3000
M  V30 BEGIN CTAB
M  V30 COUNTS 37 40 0 0 0
M  V30 BEGIN ATOM
M  V30 1 O 3.142725 1.470463 2.882770 0
M  V30 2 C 2.220739 0.615279 2.684922 0
M  V30 3 N 2.316356 -0.679645 3.130490 0
M  V30 4 C 1.356804 -1.482410 2.896133 0
M  V30 5 N 1.314526 -2.865116 3.302015 0
M  V30 6 C 2.520784 -3.690328 3.166874 0
M  V30 7 C 2.953147 -3.867729 1.801080 0
M  V30 8 C 3.757209 -3.243488 0.882221 0
M  V30 9 C 3.920205 -3.756884 -0.374148 0
M  V30 10 C 3.256616 -4.929686 -0.717040 0
M  V30 11 S 2.305965 -5.380015 0.849799 0
M  V30 12 S 0.088792 -0.608849 1.977638 0
M  V30 13 C 1.010453 0.953459 1.976253 0
M  V30 14 C 0.573070 2.084288 1.445119 0
M  V30 15 C -0.708199 2.193846 0.757342 0
M  V30 16 C -1.699078 3.147219 0.848239 0
M  V30 17 C -2.831943 3.056549 0.068779 0
M  V30 18 C -2.999850 2.004362 -0.824268 0
M  V30 19 N -4.108126 1.938677 -1.570336 0
M  V30 20 C -4.312569 0.921833 -2.461546 0
M  V30 21 C -3.363081 -0.077347 -2.613063 0
M  V30 22 C -2.227515 0.007801 -1.834626 0
M  V30 23 C -2.016242 1.034721 -0.932469 0
M  V30 24 C -0.886590 1.137588 -0.145897 0
M  V30 25 H 0.392769 -3.217588 3.682606 0
M  V30 26 H 2.279961 -4.667854 3.649687 0
M  V30 27 H 3.359908 -3.232427 3.737413 0
M  V30 28 H 4.201433 -2.352059 1.286021 0
M  V30 29 H 4.554495 -3.258988 -1.086777 0
M  V30 30 H 3.326120 -5.421346 -1.705898 0
M  V30 31 H 1.224133 2.960201 1.542755 0
M  V30 32 H -1.452596 3.908442 1.573966 0
M  V30 33 H -3.562341 3.838444 0.195965 0
M  V30 34 H -5.199218 0.857316 -3.068637 0
M  V30 35 H -3.446802 -0.914346 -3.293604 0
M  V30 36 H -1.467057 -0.761209 -1.931903 0
M  V30 37 H -0.197354 0.320401 -0.334904 0
M  V30 END ATOM
M  V30 BEGIN BOND
M  V30 1 2 1 2
M  V30 2 1 2 3
M  V30 3 2 3 4
M  V30 4 1 4 5
M  V30 5 1 5 6
M  V30 6 1 6 7
M  V30 7 2 7 8
M  V30 8 1 8 9
M  V30 9 2 9 10
M  V30 10 1 10 11
M  V30 11 1 4 12
M  V30 12 1 12 13
M  V30 13 2 13 14
M  V30 14 1 14 15
M  V30 15 2 15 16
M  V30 16 1 16 17
M  V30 17 2 17 18
M  V30 18 1 18 19
M  V30 19 2 19 20
M  V30 20 1 20 21
M  V30 21 2 21 22
M  V30 22 1 22 23
M  V30 23 2 23 24
M  V30 24 1 13 2
M  V30 25 1 24 15
M  V30 26 1 11 7
M  V30 27 1 23 18
M  V30 28 1 5 25
M  V30 29 1 6 26
M  V30 30 1 6 27
M  V30 31 1 8 28
M  V30 32 1 9 29
M  V30 33 1 10 30
M  V30 34 1 14 31
M  V30 35 1 16 32
M  V30 36 1 17 33
M  V30 37 1 20 34
M  V30 38 1 21 35
M  V30 39 1 22 36
M  V30 40 1 24 37
M  V30 END BOND
M  V30 END CTAB
M  END
>  <Dataset>  (503) 
ChEMBL_Kinases

>  <Ligand_Instance>  (503) 
nan

>  <PDB_ID>  (503) 
nan

>  <Standardized_SMILES>  (503) 
O=C1N=C(NCc2cccs2)S/C1=C\c1ccc2ncccc2c1

>  <Name>  (503) 
nan

>  <Pocket>  (503) 
nan

>  <ATP_Site>  (503) 
nan

>  <Peripheral>  (503) 
nan

>  <Num_H_Atoms_ProtBoundConf>  (503) 
nan

>  <Num_Resolved_Atoms>  (503) 
nan

>  <Num_Not_Resolved_Atoms>  (503) 
nan

$$$$
CHEMBL4070065
     RDKit          3D

  0  0  0  0  0  0  0  0  0  0999 V3000
M  V30 BEGIN CTAB
M  V30 COUNTS 27 29 0 0 0
M  V30 BEGIN ATOM
M  V30 1 F 3.060525 -4.332147 2.888370 0
M  V30 2 C 2.347597 -4.110656 1.712474 0
M  V30 3 F 1.401151 -5.112065 1.625278 0
M  V30 4 F 3.153507 -4.074058 0.599801 0
M  V30 5 C 1.599023 -2.819148 1.916482 0
M  V30 6 C 1.088300 -2.604941 3.191480 0
M  V30 7 C 0.386875 -1.417875 3.421993 0
M  V30 8 C 0.236215 -0.520725 2.377903 0
M  V30 9 C 0.754744 -0.756124 1.113930 0
M  V30 10 C 0.591553 0.195991 0.016454 0
M  V30 11 C 1.549556 0.625024 -0.880929 0
M  V30 12 N 0.958203 1.494853 -1.710845 0
M  V30 13 C -0.345337 1.624881 -1.360368 0
M  V30 14 C -1.288082 2.427395 -1.970964 0
M  V30 15 C -2.559709 2.387711 -1.425968 0
M  V30 16 C -2.771571 1.564400 -0.339107 0
M  V30 17 Cl -4.399798 1.556845 0.305899 0
M  V30 18 N -1.791015 0.794518 0.216930 0
M  V30 19 N -0.571346 0.832025 -0.305122 0
M  V30 20 C 1.456129 -1.939174 0.876692 0
M  V30 21 H 1.212106 -3.316584 4.005967 0
M  V30 22 H -0.021709 -1.224630 4.404643 0
M  V30 23 H -0.287747 0.394385 2.501836 0
M  V30 24 H 2.592429 0.321659 -0.918201 0
M  V30 25 H -1.043368 3.051032 -2.827142 0
M  V30 26 H -3.351581 2.990814 -1.852303 0
M  V30 27 H 1.889011 -2.177770 -0.106951 0
M  V30 END ATOM
M  V30 BEGIN BOND
M  V30 1 1 1 2
M  V30 2 1 2 3
M  V30 3 1 2 4
M  V30 4 1 2 5
M  V30 5 2 5 6
M  V30 6 1 6 7
M  V30 7 2 7 8
M  V30 8 1 8 9
M  V30 9 1 9 10
M  V30 10 2 10 11
M  V30 11 1 11 12
M  V30 12 2 12 13
M  V30 13 1 13 14
M  V30 14 2 14 15
M  V30 15 1 15 16
M  V30 16 1 16 17
M  V30 17 2 16 18
M  V30 18 1 18 19
M  V30 19 2 9 20
M  V30 20 1 20 5
M  V30 21 1 19 10
M  V30 22 1 19 13
M  V30 23 1 6 21
M  V30 24 1 7 22
M  V30 25 1 8 23
M  V30 26 1 11 24
M  V30 27 1 14 25
M  V30 28 1 15 26
M  V30 29 1 20 27
M  V30 END BOND
M  V30 END CTAB
M  END
>  <Dataset>  (504) 
ChEMBL_Kinases

>  <Ligand_Instance>  (504) 
nan

>  <PDB_ID>  (504) 
nan

>  <Standardized_SMILES>  (504) 
FC(F)(F)c1cccc(-c2cnc3ccc(Cl)nn23)c1

>  <Name>  (504) 
nan

>  <Pocket>  (504) 
nan

>  <ATP_Site>  (504) 
nan

>  <Peripheral>  (504) 
nan

>  <Num_H_Atoms_ProtBoundConf>  (504) 
nan

>  <Num_Resolved_Atoms>  (504) 
nan

>  <Num_Not_Resolved_Atoms>  (504) 
nan

$$$$
CHEMBL3330410
     RDKit          3D

  0  0  0  0  0  0  0  0  0  0999 V3000
M  V30 BEGIN CTAB
M  V30 COUNTS 56 60 0 0 0
M  V30 BEGIN ATOM
M  V30 1 N 2.426103 -3.234440 2.869486 0
M  V30 2 S 3.647319 -2.902229 1.686159 0
M  V30 3 O 3.223988 -3.305457 0.305493 0
M  V30 4 O 4.890086 -3.670063 2.026152 0
M  V30 5 C 4.038655 -1.192294 1.707722 0
M  V30 6 C 5.044580 -0.708213 2.534793 0
M  V30 7 C 5.345308 0.641300 2.544363 0
M  V30 8 C 4.635533 1.499247 1.724139 0
M  V30 9 C 3.621483 1.075429 0.877724 0
M  V30 10 C 2.883918 1.991115 0.020648 0
M  V30 11 N 3.390854 2.962004 -0.738198 0
M  V30 12 N 2.429469 3.613041 -1.398430 0
M  V30 13 C 1.237034 3.058465 -1.070006 0
M  V30 14 C -0.083255 3.317737 -1.442019 0
M  V30 15 C -1.115379 2.565687 -0.928637 0
M  V30 16 C -0.868321 1.542477 -0.038013 0
M  V30 17 N -1.881278 0.701105 0.552734 0
M  V30 18 C -2.147805 -0.461074 -0.225582 0
M  V30 19 O -1.421187 -0.472457 -1.259650 0
M  V30 20 C -3.175529 -1.413010 0.276208 0
M  V30 21 C -3.025902 -1.740480 1.712755 0
M  V30 22 C -3.675398 -1.105277 2.742781 0
M  V30 23 C -3.438498 -1.517241 4.044558 0
M  V30 24 S -2.257849 -2.851753 3.849908 0
M  V30 25 C -2.169375 -2.761294 2.063776 0
M  V30 26 N -3.369030 -2.537144 -0.567282 0
M  V30 27 C -2.253203 -3.346495 -0.881773 0
M  V30 28 C -2.389629 -3.642934 -2.387508 0
M  V30 29 C -3.860459 -3.319129 -2.678876 0
M  V30 30 C -4.039291 -2.128489 -1.760633 0
M  V30 31 C 0.457690 1.298754 0.321571 0
M  V30 32 C 1.502023 2.039787 -0.181107 0
M  V30 33 C 3.377261 -0.280570 0.921258 0
M  V30 34 H 1.792705 -2.415792 2.881647 0
M  V30 35 H 2.922485 -3.310634 3.790441 0
M  V30 36 H 5.574743 -1.414730 3.160412 0
M  V30 37 H 6.113383 1.021663 3.173752 0
M  V30 38 H 4.879152 2.555772 1.739126 0
M  V30 39 H 2.495891 4.413235 -2.064743 0
M  V30 40 H -0.302535 4.111630 -2.136249 0
M  V30 41 H -2.157910 2.728880 -1.187398 0
M  V30 42 H -2.368551 0.931142 1.466917 0
M  V30 43 H -4.145152 -0.820381 0.193359 0
M  V30 44 H -4.370607 -0.289691 2.594183 0
M  V30 45 H -3.872855 -1.117540 4.964800 0
M  V30 46 H -1.511097 -3.468128 1.635025 0
M  V30 47 H -1.256075 -2.926523 -0.665428 0
M  V30 48 H -2.262559 -4.376290 -0.418943 0
M  V30 49 H -2.126707 -4.667157 -2.645723 0
M  V30 50 H -1.814981 -2.872767 -2.946867 0
M  V30 51 H -4.525491 -4.142583 -2.356072 0
M  V30 52 H -4.007071 -3.033683 -3.741870 0
M  V30 53 H -5.113622 -1.935726 -1.572865 0
M  V30 54 H -3.561067 -1.279256 -2.284132 0
M  V30 55 H 0.656401 0.495402 1.021383 0
M  V30 56 H 2.605109 -0.708813 0.297573 0
M  V30 END ATOM
M  V30 BEGIN BOND
M  V30 1 1 1 2
M  V30 2 2 2 3
M  V30 3 2 2 4
M  V30 4 1 2 5
M  V30 5 2 5 6
M  V30 6 1 6 7
M  V30 7 2 7 8
M  V30 8 1 8 9
M  V30 9 1 9 10
M  V30 10 2 10 11
M  V30 11 1 11 12
M  V30 12 1 12 13
M  V30 13 2 13 14
M  V30 14 1 14 15
M  V30 15 2 15 16
M  V30 16 1 16 17
M  V30 17 1 17 18
M  V30 18 2 18 19
M  V30 19 1 18 20
M  V30 20 1 20 21
M  V30 21 1 21 22
M  V30 22 2 22 23
M  V30 23 1 23 24
M  V30 24 1 24 25
M  V30 25 1 20 26
M  V30 26 1 26 27
M  V30 27 1 27 28
M  V30 28 1 28 29
M  V30 29 1 29 30
M  V30 30 1 16 31
M  V30 31 2 31 32
M  V30 32 2 9 33
M  V30 33 1 33 5
M  V30 34 1 32 10
M  V30 35 1 32 13
M  V30 36 2 25 21
M  V30 37 1 30 26
M  V30 38 1 1 34
M  V30 39 1 1 35
M  V30 40 1 6 36
M  V30 41 1 7 37
M  V30 42 1 8 38
M  V30 43 1 12 39
M  V30 44 1 14 40
M  V30 45 1 15 41
M  V30 46 1 17 42
M  V30 47 1 20 43
M  V30 48 1 22 44
M  V30 49 1 23 45
M  V30 50 1 25 46
M  V30 51 1 27 47
M  V30 52 1 27 48
M  V30 53 1 28 49
M  V30 54 1 28 50
M  V30 55 1 29 51
M  V30 56 1 29 52
M  V30 57 1 30 53
M  V30 58 1 30 54
M  V30 59 1 31 55
M  V30 60 1 33 56
M  V30 END BOND
M  V30 END CTAB
M  END
>  <Dataset>  (505) 
ChEMBL_Kinases

>  <Ligand_Instance>  (505) 
nan

>  <PDB_ID>  (505) 
nan

>  <Standardized_SMILES>  (505) 
NS(=O)(=O)c1cccc(-c2n[nH]c3ccc(NC(=O)C(c4ccsc4)N4CCCC4)cc23)c1

>  <Name>  (505) 
nan

>  <Pocket>  (505) 
nan

>  <ATP_Site>  (505) 
nan

>  <Peripheral>  (505) 
nan

>  <Num_H_Atoms_ProtBoundConf>  (505) 
nan

>  <Num_Resolved_Atoms>  (505) 
nan

>  <Num_Not_Resolved_Atoms>  (505) 
nan

$$$$
CHEMBL3885360
     RDKit          3D

  0  0  0  0  0  0  0  0  0  0999 V3000
M  V30 BEGIN CTAB
M  V30 COUNTS 41 44 0 0 0
M  V30 BEGIN ATOM
M  V30 1 C -2.051759 -5.810044 -0.676498 0
M  V30 2 O -1.179691 -5.436152 0.374205 0
M  V30 3 C -0.631233 -4.163022 0.445724 0
M  V30 4 C 0.228173 -3.827344 1.499435 0
M  V30 5 C 0.774009 -2.546245 1.561746 0
M  V30 6 C 0.495608 -1.590708 0.615489 0
M  V30 7 C -0.352587 -1.943250 -0.412261 0
M  V30 8 C -0.910751 -3.202621 -0.504638 0
M  V30 9 N -0.459392 -0.847797 -1.188951 0
M  V30 10 C 0.289236 0.140409 -0.666079 0
M  V30 11 C 0.485250 1.428729 -1.112274 0
M  V30 12 C -0.108930 1.924528 -2.252390 0
M  V30 13 C 0.144685 3.226945 -2.621783 0
M  V30 14 N 0.954702 4.035027 -1.906655 0
M  V30 15 C 1.551910 3.587039 -0.789162 0
M  V30 16 C 1.305254 2.284706 -0.409713 0
M  V30 17 C 1.887697 1.767017 0.726677 0
M  V30 18 C 1.743211 0.474999 1.249376 0
M  V30 19 C 2.435242 0.061596 2.481695 0
M  V30 20 N 1.543928 0.001716 3.647371 0
M  V30 21 C 0.847370 1.183669 4.084520 0
M  V30 22 C -0.055573 1.101892 5.273296 0
M  V30 23 O 0.951084 2.319177 3.513894 0
M  V30 24 C 0.908250 -0.307607 0.484142 0
M  V30 25 H -2.689653 -6.673416 -0.398511 0
M  V30 26 H -2.772410 -4.997723 -0.935341 0
M  V30 27 H -1.466973 -6.089361 -1.569256 0
M  V30 28 H 0.409875 -4.627950 2.216203 0
M  V30 29 H 1.403134 -2.458944 2.425853 0
M  V30 30 H -1.571017 -3.404865 -1.344679 0
M  V30 31 H -1.040732 -0.813036 -2.051107 0
M  V30 32 H -0.768062 1.289819 -2.847129 0
M  V30 33 H -0.307647 3.660172 -3.520809 0
M  V30 34 H 2.217571 4.217067 -0.182251 0
M  V30 35 H 2.536309 2.451429 1.276454 0
M  V30 36 H 3.043843 -0.834216 2.425035 0
M  V30 37 H 3.196927 0.889659 2.666913 0
M  V30 38 H 1.366293 -0.865844 4.211438 0
M  V30 39 H -1.105920 0.905550 4.972867 0
M  V30 40 H 0.291893 0.322728 5.993487 0
M  V30 41 H 0.013710 2.070222 5.798746 0
M  V30 END ATOM
M  V30 BEGIN BOND
M  V30 1 1 1 2
M  V30 2 1 2 3
M  V30 3 2 3 4
M  V30 4 1 4 5
M  V30 5 2 5 6
M  V30 6 1 6 7
M  V30 7 2 7 8
M  V30 8 1 7 9
M  V30 9 1 9 10
M  V30 10 2 10 11
M  V30 11 1 11 12
M  V30 12 2 12 13
M  V30 13 1 13 14
M  V30 14 2 14 15
M  V30 15 1 15 16
M  V30 16 2 16 17
M  V30 17 1 17 18
M  V30 18 1 18 19
M  V30 19 1 19 20
M  V30 20 1 20 21
M  V30 21 1 21 22
M  V30 22 2 21 23
M  V30 23 2 18 24
M  V30 24 1 8 3
M  V30 25 1 24 10
M  V30 26 1 24 6
M  V30 27 1 16 11
M  V30 28 1 1 25
M  V30 29 1 1 26
M  V30 30 1 1 27
M  V30 31 1 4 28
M  V30 32 1 5 29
M  V30 33 1 8 30
M  V30 34 1 9 31
M  V30 35 1 12 32
M  V30 36 1 13 33
M  V30 37 1 15 34
M  V30 38 1 17 35
M  V30 39 1 19 36
M  V30 40 1 19 37
M  V30 41 1 20 38
M  V30 42 1 22 39
M  V30 43 1 22 40
M  V30 44 1 22 41
M  V30 END BOND
M  V30 END CTAB
M  END
>  <Dataset>  (506) 
ChEMBL_Kinases

>  <Ligand_Instance>  (506) 
nan

>  <PDB_ID>  (506) 
nan

>  <Standardized_SMILES>  (506) 
COc1ccc2c(c1)[nH]c1c3ccncc3cc(CNC(C)=O)c21

>  <Name>  (506) 
nan

>  <Pocket>  (506) 
nan

>  <ATP_Site>  (506) 
nan

>  <Peripheral>  (506) 
nan

>  <Num_H_Atoms_ProtBoundConf>  (506) 
nan

>  <Num_Resolved_Atoms>  (506) 
nan

>  <Num_Not_Resolved_Atoms>  (506) 
nan

$$$$
CHEMBL3885335
     RDKit          3D

  0  0  0  0  0  0  0  0  0  0999 V3000
M  V30 BEGIN CTAB
M  V30 COUNTS 42 45 0 0 0
M  V30 BEGIN ATOM
M  V30 1 C -1.778568 -5.789524 -0.270801 0
M  V30 2 O -1.588377 -4.380853 -0.257284 0
M  V30 3 C -0.356142 -3.864673 0.114700 0
M  V30 4 C 0.663703 -4.724366 0.465115 0
M  V30 5 C 1.887951 -4.247410 0.835867 0
M  V30 6 C 2.104906 -2.865367 0.858665 0
M  V30 7 N 3.156688 -2.100457 1.165433 0
M  V30 8 C 2.876518 -0.797190 1.033873 0
M  V30 9 C 1.543593 -0.754378 0.611625 0
M  V30 10 C 0.878743 0.530526 0.359187 0
M  V30 11 C 0.976607 1.029412 -0.937923 0
M  V30 12 C 0.350144 2.249557 -1.194005 0
M  V30 13 C 0.456589 2.728984 -2.482244 0
M  V30 14 N -0.133424 3.902017 -2.769709 0
M  V30 15 C -0.822359 4.614410 -1.830712 0
M  V30 16 C -0.941158 4.150564 -0.531067 0
M  V30 17 C -0.340508 2.946572 -0.219391 0
M  V30 18 C -0.405867 2.407163 1.046813 0
M  V30 19 C 0.190362 1.210388 1.359412 0
M  V30 20 N 0.152867 0.611534 2.646754 0
M  V30 21 C 1.015671 0.722294 3.771827 0
M  V30 22 C 0.691620 -0.052059 4.997590 0
M  V30 23 O 2.044893 1.438498 3.800032 0
M  V30 24 C 1.044340 -2.036053 0.496395 0
M  V30 25 C -0.209749 -2.491082 0.115497 0
M  V30 26 H -1.173955 -6.220076 -1.113145 0
M  V30 27 H -2.842276 -5.974789 -0.472723 0
M  V30 28 H -1.436073 -6.245810 0.682031 0
M  V30 29 H 0.543587 -5.793386 0.462550 0
M  V30 30 H 2.723435 -4.864529 1.120070 0
M  V30 31 H 4.098937 -2.432099 1.473880 0
M  V30 32 H 3.556283 0.035540 1.220948 0
M  V30 33 H 1.510363 0.498875 -1.706907 0
M  V30 34 H 0.991458 2.184936 -3.228723 0
M  V30 35 H -1.294520 5.566088 -2.085895 0
M  V30 36 H -1.479351 4.686180 0.243015 0
M  V30 37 H -0.936414 2.923669 1.832227 0
M  V30 38 H -0.705425 0.017665 2.615582 0
M  V30 39 H 1.555762 -0.681979 5.300703 0
M  V30 40 H 0.418861 0.605782 5.846919 0
M  V30 41 H -0.144261 -0.756210 4.806875 0
M  V30 42 H -0.980562 -1.780912 -0.151342 0
M  V30 END ATOM
M  V30 BEGIN BOND
M  V30 1 1 1 2
M  V30 2 1 2 3
M  V30 3 2 3 4
M  V30 4 1 4 5
M  V30 5 2 5 6
M  V30 6 1 6 7
M  V30 7 1 7 8
M  V30 8 2 8 9
M  V30 9 1 9 10
M  V30 10 2 10 11
M  V30 11 1 11 12
M  V30 12 2 12 13
M  V30 13 1 13 14
M  V30 14 2 14 15
M  V30 15 1 15 16
M  V30 16 2 16 17
M  V30 17 1 17 18
M  V30 18 2 18 19
M  V30 19 1 19 20
M  V30 20 1 20 21
M  V30 21 1 21 22
M  V30 22 2 21 23
M  V30 23 1 9 24
M  V30 24 2 24 25
M  V30 25 1 25 3
M  V30 26 1 24 6
M  V30 27 1 19 10
M  V30 28 1 17 12
M  V30 29 1 1 26
M  V30 30 1 1 27
M  V30 31 1 1 28
M  V30 32 1 4 29
M  V30 33 1 5 30
M  V30 34 1 7 31
M  V30 35 1 8 32
M  V30 36 1 11 33
M  V30 37 1 13 34
M  V30 38 1 15 35
M  V30 39 1 16 36
M  V30 40 1 18 37
M  V30 41 1 20 38
M  V30 42 1 22 39
M  V30 43 1 22 40
M  V30 44 1 22 41
M  V30 45 1 25 42
M  V30 END BOND
M  V30 END CTAB
M  END
>  <Dataset>  (507) 
ChEMBL_Kinases

>  <Ligand_Instance>  (507) 
nan

>  <PDB_ID>  (507) 
nan

>  <Standardized_SMILES>  (507) 
COc1ccc2[nH]cc(-c3cc4cnccc4cc3NC(C)=O)c2c1

>  <Name>  (507) 
nan

>  <Pocket>  (507) 
nan

>  <ATP_Site>  (507) 
nan

>  <Peripheral>  (507) 
nan

>  <Num_H_Atoms_ProtBoundConf>  (507) 
nan

>  <Num_Resolved_Atoms>  (507) 
nan

>  <Num_Not_Resolved_Atoms>  (507) 
nan

$$$$
CHEMBL4067420
     RDKit          3D

  0  0  0  0  0  0  0  0  0  0999 V3000
M  V30 BEGIN CTAB
M  V30 COUNTS 30 32 0 0 0
M  V30 BEGIN ATOM
M  V30 1 C 0.249555 -1.674916 4.202676 0
M  V30 2 O 0.345317 -2.862062 3.479521 0
M  V30 3 C 0.373150 -2.873862 2.097785 0
M  V30 4 C 0.470879 -4.147918 1.579560 0
M  V30 5 C 0.511385 -4.345597 0.203599 0
M  V30 6 C 0.446033 -3.183210 -0.541056 0
M  V30 7 N 0.466474 -3.093074 -1.902696 0
M  V30 8 C 0.384275 -1.796800 -2.256712 0
M  V30 9 C 0.312926 -1.096946 -1.069389 0
M  V30 10 C 0.210860 0.357955 -0.964001 0
M  V30 11 C 0.178446 1.150411 -2.088451 0
M  V30 12 C 0.082756 2.540778 -2.081145 0
M  V30 13 N 0.019141 3.121164 -0.870886 0
M  V30 14 C 0.048366 2.371523 0.266201 0
M  V30 15 S -0.039869 3.204963 1.845244 0
M  V30 16 C 0.020126 1.952521 3.173428 0
M  V30 17 N 0.142155 1.024466 0.204194 0
M  V30 18 N 0.350146 -1.937216 -0.018612 0
M  V30 19 N 0.315242 -1.801117 1.287530 0
M  V30 20 H 1.199683 -1.213634 4.500880 0
M  V30 21 H -0.449199 -1.766980 5.081176 0
M  V30 22 H -0.256183 -0.935162 3.538788 0
M  V30 23 H 0.522510 -5.069231 2.177715 0
M  V30 24 H 0.587374 -5.316121 -0.269549 0
M  V30 25 H 0.376289 -1.395977 -3.257188 0
M  V30 26 H 0.230342 0.670948 -3.055068 0
M  V30 27 H 0.063008 3.091723 -3.004497 0
M  V30 28 H 0.868491 1.258508 3.029522 0
M  V30 29 H -0.909190 1.338238 3.132706 0
M  V30 30 H 0.082389 2.409486 4.161629 0
M  V30 END ATOM
M  V30 BEGIN BOND
M  V30 1 1 1 2
M  V30 2 1 2 3
M  V30 3 1 3 4
M  V30 4 2 4 5
M  V30 5 1 5 6
M  V30 6 2 6 7
M  V30 7 1 7 8
M  V30 8 2 8 9
M  V30 9 1 9 10
M  V30 10 2 10 11
M  V30 11 1 11 12
M  V30 12 2 12 13
M  V30 13 1 13 14
M  V30 14 1 14 15
M  V30 15 1 15 16
M  V30 16 2 14 17
M  V30 17 1 9 18
M  V30 18 1 18 19
M  V30 19 2 19 3
M  V30 20 1 18 6
M  V30 21 1 17 10
M  V30 22 1 1 20
M  V30 23 1 1 21
M  V30 24 1 1 22
M  V30 25 1 4 23
M  V30 26 1 5 24
M  V30 27 1 8 25
M  V30 28 1 11 26
M  V30 29 1 12 27
M  V30 30 1 16 28
M  V30 31 1 16 29
M  V30 32 1 16 30
M  V30 END BOND
M  V30 END CTAB
M  END
>  <Dataset>  (508) 
ChEMBL_Kinases

>  <Ligand_Instance>  (508) 
nan

>  <PDB_ID>  (508) 
nan

>  <Standardized_SMILES>  (508) 
COc1ccc2ncc(-c3ccnc(SC)n3)n2n1

>  <Name>  (508) 
nan

>  <Pocket>  (508) 
nan

>  <ATP_Site>  (508) 
nan

>  <Peripheral>  (508) 
nan

>  <Num_H_Atoms_ProtBoundConf>  (508) 
nan

>  <Num_Resolved_Atoms>  (508) 
nan

>  <Num_Not_Resolved_Atoms>  (508) 
nan

$$$$
CHEMBL1835063
     RDKit          3D

  0  0  0  0  0  0  0  0  0  0999 V3000
M  V30 BEGIN CTAB
M  V30 COUNTS 46 48 0 0 0
M  V30 BEGIN ATOM
M  V30 1 N 2.496879 -4.314246 2.680286 0
M  V30 2 C 1.595251 -3.633380 1.832234 0
M  V30 3 O 0.522600 -4.218847 1.464302 0
M  V30 4 C 1.804747 -2.279180 1.334793 0
M  V30 5 C 2.928974 -1.578861 1.682689 0
M  V30 6 N 3.135093 -0.321604 1.228985 0
M  V30 7 C 2.199453 0.215405 0.426093 0
M  V30 8 N 2.408308 1.526773 -0.051494 0
M  V30 9 C 3.591594 2.281144 0.311934 0
M  V30 10 C 3.161155 3.594951 0.836866 0
M  V30 11 C 1.701503 3.844861 0.977791 0
M  V30 12 C 0.835858 3.296498 -0.106838 0 CFG=2
M  V30 13 N -0.337143 2.678880 0.500749 0
M  V30 14 C 1.476625 2.214061 -0.927312 0
M  V30 15 N 1.094815 -0.467796 0.082000 0
M  V30 16 C 0.843596 -1.730441 0.511311 0
M  V30 17 N -0.341596 -2.392468 0.105967 0
M  V30 18 C -1.638879 -2.489541 0.663225 0
M  V30 19 C -1.922723 -1.868783 1.859844 0
M  V30 20 C -3.220350 -2.046493 2.283712 0
M  V30 21 C -4.153649 -2.777840 1.578422 0
M  V30 22 C -3.817672 -3.375025 0.392276 0
M  V30 23 C -4.805044 -4.167655 -0.387810 0
M  V30 24 F -4.146289 -4.808860 -1.427908 0
M  V30 25 F -5.429494 -5.109494 0.405421 0
M  V30 26 F -5.728782 -3.302204 -0.957322 0
M  V30 27 C -2.531380 -3.229669 -0.079393 0
M  V30 28 H 3.451917 -4.304230 2.222438 0
M  V30 29 H 2.111036 -4.696180 3.566065 0
M  V30 30 H 3.706027 -1.980278 2.329007 0
M  V30 31 H 4.232037 1.699908 1.010388 0
M  V30 32 H 4.190018 2.398674 -0.626020 0
M  V30 33 H 3.602640 3.684644 1.872553 0
M  V30 34 H 3.678959 4.402795 0.263755 0
M  V30 35 H 1.349540 3.508616 1.975787 0
M  V30 36 H 1.557187 4.951962 0.980204 0
M  V30 37 H 0.453411 4.086904 -0.785082 0
M  V30 38 H -1.100847 2.494148 -0.179189 0
M  V30 39 H -0.644028 3.239726 1.327178 0
M  V30 40 H 0.730421 1.532539 -1.376196 0
M  V30 41 H 2.043785 2.699543 -1.732039 0
M  V30 42 H -0.012370 -2.826672 -0.768061 0
M  V30 43 H -1.200710 -1.294137 2.420688 0
M  V30 44 H -3.554078 -1.599944 3.217863 0
M  V30 45 H -5.162741 -2.881883 1.966005 0
M  V30 46 H -2.267355 -3.702791 -1.018267 0
M  V30 END ATOM
M  V30 BEGIN BOND
M  V30 1 1 1 2
M  V30 2 2 2 3
M  V30 3 1 2 4
M  V30 4 2 4 5
M  V30 5 1 5 6
M  V30 6 2 6 7
M  V30 7 1 7 8
M  V30 8 1 8 9
M  V30 9 1 9 10
M  V30 10 1 10 11
M  V30 11 1 11 12
M  V30 12 1 12 13
M  V30 13 1 12 14
M  V30 14 1 7 15
M  V30 15 2 15 16
M  V30 16 1 16 17
M  V30 17 1 17 18
M  V30 18 2 18 19
M  V30 19 1 19 20
M  V30 20 2 20 21
M  V30 21 1 21 22
M  V30 22 1 22 23
M  V30 23 1 23 24
M  V30 24 1 23 25
M  V30 25 1 23 26
M  V30 26 2 22 27
M  V30 27 1 16 4
M  V30 28 1 27 18
M  V30 29 1 14 8
M  V30 30 1 1 28
M  V30 31 1 1 29
M  V30 32 1 5 30
M  V30 33 1 9 31
M  V30 34 1 9 32
M  V30 35 1 10 33
M  V30 36 1 10 34
M  V30 37 1 11 35
M  V30 38 1 11 36
M  V30 39 1 12 37 CFG=3
M  V30 40 1 13 38
M  V30 41 1 13 39
M  V30 42 1 14 40
M  V30 43 1 14 41
M  V30 44 1 17 42
M  V30 45 1 19 43
M  V30 46 1 20 44
M  V30 47 1 21 45
M  V30 48 1 27 46
M  V30 END BOND
M  V30 END CTAB
M  END
>  <Dataset>  (509) 
ChEMBL_Kinases

>  <Ligand_Instance>  (509) 
nan

>  <PDB_ID>  (509) 
nan

>  <Standardized_SMILES>  (509) 
NC(=O)c1cnc(N2CCC[C@H](N)C2)nc1Nc1cccc(C(F)(F)F)c1

>  <Name>  (509) 
nan

>  <Pocket>  (509) 
nan

>  <ATP_Site>  (509) 
nan

>  <Peripheral>  (509) 
nan

>  <Num_H_Atoms_ProtBoundConf>  (509) 
nan

>  <Num_Resolved_Atoms>  (509) 
nan

>  <Num_Not_Resolved_Atoms>  (509) 
nan

$$$$
CHEMBL4297488
     RDKit          3D

  0  0  0  0  0  0  0  0  0  0999 V3000
M  V30 BEGIN CTAB
M  V30 COUNTS 59 62 0 0 0
M  V30 BEGIN ATOM
M  V30 1 C 2.891474 -3.040467 -1.267843 0
M  V30 2 C 2.896274 -2.898708 0.248239 0
M  V30 3 C 2.098701 -3.996720 0.905969 0
M  V30 4 C 2.436708 -1.547739 0.689655 0
M  V30 5 C 3.290856 -0.456340 0.881091 0
M  V30 6 N 2.486787 0.550880 1.272372 0
M  V30 7 N 1.234146 0.194310 1.341044 0
M  V30 8 C 0.058368 0.767449 1.660478 0
M  V30 9 N 0.043424 2.130187 2.045251 0
M  V30 10 C 1.268977 2.870868 2.088109 0
M  V30 11 C 1.072702 4.282802 2.511094 0
M  V30 12 C 1.114278 4.732132 3.824414 0
M  V30 13 C 0.916268 6.068283 4.085716 0
M  V30 14 C 0.675765 6.993282 3.094861 0
M  V30 15 C 0.632900 6.552932 1.783763 0
M  V30 16 C 0.831395 5.212309 1.519597 0
M  V30 17 C -1.112353 0.039146 1.613678 0
M  V30 18 C -1.140668 -1.309631 1.238646 0
M  V30 19 N -2.349833 -2.051557 1.193455 0
M  V30 20 C -2.409713 -3.443660 0.809453 0
M  V30 21 C -1.894796 -3.657186 -0.603725 0 CFG=1
M  V30 22 C -1.988106 -5.136331 -0.935392 0
M  V30 23 C -1.817393 -5.229303 -2.454921 0
M  V30 24 N -1.143648 -4.044806 -2.967314 0
M  V30 25 C -1.995802 -2.865183 -2.927534 0
M  V30 26 C -2.766216 -2.943939 -1.615678 0 CFG=2
M  V30 27 O -3.141195 -1.682421 -1.152979 0
M  V30 28 N 0.057228 -1.838854 0.928569 0
M  V30 29 C 1.160873 -1.103561 0.986371 0
M  V30 30 H 2.287988 -3.902984 -1.599278 0
M  V30 31 H 3.921579 -3.029456 -1.683152 0
M  V30 32 H 2.397478 -2.126081 -1.667178 0
M  V30 33 H 3.947193 -3.051223 0.574091 0
M  V30 34 H 1.390655 -4.377694 0.126146 0
M  V30 35 H 1.481428 -3.664505 1.744751 0
M  V30 36 H 2.724274 -4.895752 1.158071 0
M  V30 37 H 4.369275 -0.375280 0.758518 0
M  V30 38 H -0.864262 2.602374 2.300214 0
M  V30 39 H 2.022087 2.363780 2.747826 0
M  V30 40 H 1.713631 2.862515 1.068303 0
M  V30 41 H 1.306158 3.967321 4.564724 0
M  V30 42 H 0.962419 6.345371 5.128063 0
M  V30 43 H 0.535161 8.026095 3.437891 0
M  V30 44 H 0.441117 7.316525 1.042423 0
M  V30 45 H 0.775595 4.981901 0.455435 0
M  V30 46 H -2.065712 0.495428 1.870320 0
M  V30 47 H -3.225817 -1.549305 1.453575 0
M  V30 48 H -1.736962 -4.009685 1.489750 0
M  V30 49 H -3.415742 -3.836462 0.943732 0
M  V30 50 H -0.855208 -3.324541 -0.688878 0
M  V30 51 H -1.209827 -5.741428 -0.442396 0
M  V30 52 H -3.006634 -5.481622 -0.670462 0
M  V30 53 H -2.811635 -5.371051 -2.939930 0
M  V30 54 H -1.162124 -6.088305 -2.687343 0
M  V30 55 H -0.832281 -4.263023 -3.940261 0
M  V30 56 H -2.693356 -2.833816 -3.770096 0
M  V30 57 H -1.364304 -1.954277 -2.897224 0
M  V30 58 H -3.694117 -3.525723 -1.838383 0
M  V30 59 H -4.076588 -1.722209 -0.826146 0
M  V30 END ATOM
M  V30 BEGIN BOND
M  V30 1 1 1 2
M  V30 2 1 2 3
M  V30 3 1 2 4
M  V30 4 1 4 5
M  V30 5 2 5 6
M  V30 6 1 6 7
M  V30 7 1 7 8
M  V30 8 1 8 9
M  V30 9 1 9 10
M  V30 10 1 10 11
M  V30 11 2 11 12
M  V30 12 1 12 13
M  V30 13 2 13 14
M  V30 14 1 14 15
M  V30 15 2 15 16
M  V30 16 2 8 17
M  V30 17 1 17 18
M  V30 18 1 18 19
M  V30 19 1 19 20
M  V30 20 1 20 21
M  V30 21 1 21 22
M  V30 22 1 22 23
M  V30 23 1 23 24
M  V30 24 1 24 25
M  V30 25 1 25 26
M  V30 26 1 26 27
M  V30 27 2 18 28
M  V30 28 1 28 29
M  V30 29 2 29 4
M  V30 30 1 29 7
M  V30 31 1 16 11
M  V30 32 1 26 21
M  V30 33 1 1 30
M  V30 34 1 1 31
M  V30 35 1 1 32
M  V30 36 1 2 33
M  V30 37 1 3 34
M  V30 38 1 3 35
M  V30 39 1 3 36
M  V30 40 1 5 37
M  V30 41 1 9 38
M  V30 42 1 10 39
M  V30 43 1 10 40
M  V30 44 1 12 41
M  V30 45 1 13 42
M  V30 46 1 14 43
M  V30 47 1 15 44
M  V30 48 1 16 45
M  V30 49 1 17 46
M  V30 50 1 19 47
M  V30 51 1 20 48
M  V30 52 1 20 49
M  V30 53 1 21 50 CFG=1
M  V30 54 1 22 51
M  V30 55 1 22 52
M  V30 56 1 23 53
M  V30 57 1 23 54
M  V30 58 1 24 55
M  V30 59 1 25 56
M  V30 60 1 25 57
M  V30 61 1 26 58 CFG=3
M  V30 62 1 27 59
M  V30 END BOND
M  V30 END CTAB
M  END
>  <Dataset>  (510) 
ChEMBL_Kinases

>  <Ligand_Instance>  (510) 
nan

>  <PDB_ID>  (510) 
nan

>  <Standardized_SMILES>  (510) 
CC(C)c1cnn2c(NCc3ccccc3)cc(NC[C@H]3CCNC[C@@H]3O)nc12

>  <Name>  (510) 
CT-7001

>  <Pocket>  (510) 
nan

>  <ATP_Site>  (510) 
nan

>  <Peripheral>  (510) 
nan

>  <Num_H_Atoms_ProtBoundConf>  (510) 
nan

>  <Num_Resolved_Atoms>  (510) 
nan

>  <Num_Not_Resolved_Atoms>  (510) 
nan

$$$$
CHEMBL3885328
     RDKit          3D

  0  0  0  0  0  0  0  0  0  0999 V3000
M  V30 BEGIN CTAB
M  V30 COUNTS 36 39 0 0 0
M  V30 BEGIN ATOM
M  V30 1 C 1.552570 -4.552894 4.098011 0
M  V30 2 O 0.726900 -4.724872 2.937363 0
M  V30 3 C 0.467718 -3.591573 2.144579 0
M  V30 4 C -0.335527 -3.741279 1.008305 0
M  V30 5 C -0.597593 -2.615913 0.213363 0
M  V30 6 C -0.078884 -1.384060 0.537275 0
M  V30 7 C 0.711860 -1.253560 1.662492 0
M  V30 8 C 0.991948 -2.359411 2.476704 0
M  V30 9 N 1.083931 0.038021 1.749761 0
M  V30 10 C 0.539271 0.690677 0.708262 0
M  V30 11 C 0.633361 2.029712 0.369537 0
M  V30 12 C 1.373134 2.888118 1.156952 0
M  V30 13 C 1.417192 4.224680 0.744510 0
M  V30 14 N 0.778482 4.688647 -0.365711 0
M  V30 15 C 0.049514 3.834942 -1.138885 0
M  V30 16 C -0.007467 2.513775 -0.751397 0
M  V30 17 C -0.723827 1.592344 -1.483206 0
M  V30 18 C -0.874319 0.231050 -1.220313 0
M  V30 19 C -1.659535 -0.645235 -2.083073 0
M  V30 20 N -0.813959 -1.475034 -2.951863 0
M  V30 21 C -0.201953 -0.162023 -0.084522 0
M  V30 22 H 2.467806 -4.030805 3.692909 0
M  V30 23 H 1.098520 -3.865116 4.816490 0
M  V30 24 H 1.911349 -5.503833 4.484110 0
M  V30 25 H -0.722475 -4.744420 0.798405 0
M  V30 26 H -1.211416 -2.859363 -0.606015 0
M  V30 27 H 1.605948 -2.218263 3.334216 0
M  V30 28 H 1.690210 0.456693 2.495297 0
M  V30 29 H 1.897605 2.572142 2.045767 0
M  V30 30 H 2.005527 4.874107 1.382356 0
M  V30 31 H -0.473460 4.178387 -2.036403 0
M  V30 32 H -1.228726 1.994345 -2.374779 0
M  V30 33 H -2.167030 0.029471 -2.842900 0
M  V30 34 H -2.496309 -1.175163 -1.632210 0
M  V30 35 H -1.291086 -2.409740 -3.053261 0
M  V30 36 H 0.094386 -1.651424 -2.437142 0
M  V30 END ATOM
M  V30 BEGIN BOND
M  V30 1 1 1 2
M  V30 2 1 2 3
M  V30 3 2 3 4
M  V30 4 1 4 5
M  V30 5 2 5 6
M  V30 6 1 6 7
M  V30 7 2 7 8
M  V30 8 1 7 9
M  V30 9 1 9 10
M  V30 10 2 10 11
M  V30 11 1 11 12
M  V30 12 2 12 13
M  V30 13 1 13 14
M  V30 14 2 14 15
M  V30 15 1 15 16
M  V30 16 2 16 17
M  V30 17 1 17 18
M  V30 18 1 18 19
M  V30 19 1 19 20
M  V30 20 2 18 21
M  V30 21 1 8 3
M  V30 22 1 21 10
M  V30 23 1 21 6
M  V30 24 1 16 11
M  V30 25 1 1 22
M  V30 26 1 1 23
M  V30 27 1 1 24
M  V30 28 1 4 25
M  V30 29 1 5 26
M  V30 30 1 8 27
M  V30 31 1 9 28
M  V30 32 1 12 29
M  V30 33 1 13 30
M  V30 34 1 15 31
M  V30 35 1 17 32
M  V30 36 1 19 33
M  V30 37 1 19 34
M  V30 38 1 20 35
M  V30 39 1 20 36
M  V30 END BOND
M  V30 END CTAB
M  END
>  <Dataset>  (511) 
ChEMBL_Kinases

>  <Ligand_Instance>  (511) 
nan

>  <PDB_ID>  (511) 
nan

>  <Standardized_SMILES>  (511) 
COc1ccc2c(c1)[nH]c1c3ccncc3cc(CN)c21

>  <Name>  (511) 
nan

>  <Pocket>  (511) 
nan

>  <ATP_Site>  (511) 
nan

>  <Peripheral>  (511) 
nan

>  <Num_H_Atoms_ProtBoundConf>  (511) 
nan

>  <Num_Resolved_Atoms>  (511) 
nan

>  <Num_Not_Resolved_Atoms>  (511) 
nan

$$$$
CHEMBL306427
     RDKit          3D

  0  0  0  0  0  0  0  0  0  0999 V3000
M  V30 BEGIN CTAB
M  V30 COUNTS 65 68 0 0 0
M  V30 BEGIN ATOM
M  V30 1 O 2.864006 2.596686 0.049657 0
M  V30 2 C 2.440414 2.392124 1.238635 0
M  V30 3 N 3.020413 1.266212 1.885003 0
M  V30 4 C 4.008072 0.456137 1.195180 0 CFG=1
M  V30 5 C 5.276275 0.259650 1.998128 0
M  V30 6 C 4.853293 -0.701762 3.059600 0 CFG=2
M  V30 7 C 5.920087 -1.771696 3.240920 0
M  V30 8 O 5.502766 -2.646421 4.228231 0
M  V30 9 C 3.589795 -1.367592 2.596301 0
M  V30 10 C 3.479516 -0.959650 1.146711 0 CFG=1
M  V30 11 O 2.119632 -1.011171 0.773014 0
M  V30 12 C 1.612395 -1.791555 -0.227704 0
M  V30 13 O 2.562501 -2.439367 -0.740598 0
M  V30 14 C 0.199214 -1.815501 -0.582595 0
M  V30 15 C -0.648363 -1.007650 0.135262 0
M  V30 16 C -2.003446 -0.996801 -0.163123 0
M  V30 17 O -2.792663 -0.141829 0.620786 0
M  V30 18 C -2.537651 -1.774170 -1.162566 0
M  V30 19 C -3.929605 -1.694426 -1.520232 0
M  V30 20 O -4.312219 -0.539652 -1.134071 0
M  V30 21 C -4.984131 -2.411807 -2.128917 0
M  V30 22 C -5.942005 -1.610066 -2.765921 0
M  V30 23 O -5.886661 -0.210282 -2.838206 0
M  V30 24 C -7.069748 -2.130715 -3.405770 0
M  V30 25 C -7.207071 -3.493487 -3.385508 0
M  V30 26 C -6.322378 -4.336497 -2.786009 0
M  V30 27 C -5.240853 -3.747635 -2.176506 0
M  V30 28 C -4.413862 -4.687676 -1.399071 0
M  V30 29 O -3.466783 -4.681552 -0.577919 0
M  V30 30 O -4.534748 -6.056760 -1.417432 0
M  V30 31 C -1.602057 -2.565226 -1.844258 0
M  V30 32 O -1.977497 -3.405755 -2.893497 0
M  V30 33 C -0.249299 -2.625678 -1.601576 0
M  V30 34 C 1.443861 3.257653 1.857299 0
M  V30 35 C 0.947009 3.099496 3.123275 0
M  V30 36 C -0.002773 3.948849 3.673396 0
M  V30 37 C -0.491754 5.014770 2.935706 0
M  V30 38 O -1.443092 5.875260 3.470904 0
M  V30 39 C 0.017172 5.162086 1.662871 0
M  V30 40 C 0.963930 4.314740 1.115766 0
M  V30 41 H 2.698086 1.072833 2.854402 0
M  V30 42 H 4.218797 0.852291 0.179580 0
M  V30 43 H 5.704775 1.197245 2.380503 0
M  V30 44 H 5.982244 -0.263959 1.312691 0
M  V30 45 H 4.717042 -0.121419 3.991639 0
M  V30 46 H 6.905089 -1.317787 3.476473 0
M  V30 47 H 6.035399 -2.315767 2.281132 0
M  V30 48 H 5.022357 -3.437249 3.895004 0
M  V30 49 H 2.743343 -0.924863 3.167095 0
M  V30 50 H 3.624877 -2.473371 2.707213 0
M  V30 51 H 4.112234 -1.632063 0.532278 0
M  V30 52 H -0.263944 -0.393737 0.916750 0
M  V30 53 H -3.240799 -0.546353 1.416080 0
M  V30 54 H -5.489963 0.160339 -3.708627 0
M  V30 55 H -7.810820 -1.520939 -3.898135 0
M  V30 56 H -8.066330 -3.914214 -3.874942 0
M  V30 57 H -6.484503 -5.401952 -2.803122 0
M  V30 58 H -3.783418 -6.717017 -1.672968 0
M  V30 59 H -2.199847 -3.069025 -3.817668 0
M  V30 60 H 0.448820 -3.237301 -2.132647 0
M  V30 61 H 1.306335 2.282468 3.719795 0
M  V30 62 H -0.349406 3.755524 4.691507 0
M  V30 63 H -1.262457 6.869393 3.582027 0
M  V30 64 H -0.348360 5.995040 1.053152 0
M  V30 65 H 1.337696 4.472796 0.100411 0
M  V30 END ATOM
M  V30 BEGIN BOND
M  V30 1 2 1 2
M  V30 2 1 2 3
M  V30 3 1 3 4
M  V30 4 1 4 5
M  V30 5 1 5 6
M  V30 6 1 6 7
M  V30 7 1 7 8
M  V30 8 1 6 9
M  V30 9 1 9 10
M  V30 10 1 10 11
M  V30 11 1 11 12
M  V30 12 2 12 13
M  V30 13 1 12 14
M  V30 14 2 14 15
M  V30 15 1 15 16
M  V30 16 1 16 17
M  V30 17 2 16 18
M  V30 18 1 18 19
M  V30 19 2 19 20
M  V30 20 1 19 21
M  V30 21 2 21 22
M  V30 22 1 22 23
M  V30 23 1 22 24
M  V30 24 2 24 25
M  V30 25 1 25 26
M  V30 26 2 26 27
M  V30 27 1 27 28
M  V30 28 2 28 29
M  V30 29 1 28 30
M  V30 30 1 18 31
M  V30 31 1 31 32
M  V30 32 2 31 33
M  V30 33 1 2 34
M  V30 34 2 34 35
M  V30 35 1 35 36
M  V30 36 2 36 37
M  V30 37 1 37 38
M  V30 38 1 37 39
M  V30 39 2 39 40
M  V30 40 1 10 4
M  V30 41 1 33 14
M  V30 42 1 40 34
M  V30 43 1 27 21
M  V30 44 1 3 41
M  V30 45 1 4 42 CFG=3
M  V30 46 1 5 43
M  V30 47 1 5 44
M  V30 48 1 6 45 CFG=1
M  V30 49 1 7 46
M  V30 50 1 7 47
M  V30 51 1 8 48
M  V30 52 1 9 49
M  V30 53 1 9 50
M  V30 54 1 10 51 CFG=3
M  V30 55 1 15 52
M  V30 56 1 17 53
M  V30 57 1 23 54
M  V30 58 1 24 55
M  V30 59 1 25 56
M  V30 60 1 26 57
M  V30 61 1 30 58
M  V30 62 1 32 59
M  V30 63 1 33 60
M  V30 64 1 35 61
M  V30 65 1 36 62
M  V30 66 1 38 63
M  V30 67 1 39 64
M  V30 68 1 40 65
M  V30 END BOND
M  V30 END CTAB
M  END
>  <Dataset>  (512) 
ChEMBL_Kinases

>  <Ligand_Instance>  (512) 
nan

>  <PDB_ID>  (512) 
nan

>  <Standardized_SMILES>  (512) 
O=C(N[C@H]1C[C@H](CO)C[C@H]1OC(=O)c1cc(O)c(C(=O)c2c(O)cccc2C(=O)O)c(O)c1)c1ccc(O)cc1

>  <Name>  (512) 
nan

>  <Pocket>  (512) 
nan

>  <ATP_Site>  (512) 
nan

>  <Peripheral>  (512) 
nan

>  <Num_H_Atoms_ProtBoundConf>  (512) 
nan

>  <Num_Resolved_Atoms>  (512) 
nan

>  <Num_Not_Resolved_Atoms>  (512) 
nan

$$$$
CHEMBL189657
     RDKit          3D

  0  0  0  0  0  0  0  0  0  0999 V3000
M  V30 BEGIN CTAB
M  V30 COUNTS 27 29 0 0 0
M  V30 BEGIN ATOM
M  V30 1 C -0.567634 -2.383787 1.980483 0
M  V30 2 C -0.156695 -1.909752 0.646078 0
M  V30 3 N 0.001828 -0.549118 0.378818 0
M  V30 4 C 1.100353 0.197062 0.551925 0
M  V30 5 C 2.449099 0.007216 1.055224 0
M  V30 6 N 3.402462 0.933726 1.092857 0
M  V30 7 O 4.506657 0.487241 1.570338 0
M  V30 8 N 4.389998 -0.770690 1.892872 0
M  V30 9 C 3.108600 -1.071158 1.573024 0
M  V30 10 N 2.661756 -2.372497 1.823907 0
M  V30 11 N 0.747811 1.419673 0.114656 0
M  V30 12 C -0.500431 1.485982 -0.318883 0
M  V30 13 C -1.224005 2.517587 -0.828689 0
M  V30 14 N -2.509975 2.233818 -1.182864 0
M  V30 15 C -3.042943 1.008916 -1.041010 0
M  V30 16 C -2.302535 -0.031674 -0.523272 0
M  V30 17 C -0.993190 0.218839 -0.152659 0
M  V30 18 H -1.683971 -2.311022 2.141660 0
M  V30 19 H -0.412807 -3.487286 1.992656 0
M  V30 20 H -0.002487 -2.004744 2.839778 0
M  V30 21 H 0.655577 -2.543736 0.254450 0
M  V30 22 H -1.025142 -2.267497 -0.037330 0
M  V30 23 H 2.464050 -3.364019 1.591061 0
M  V30 24 H 2.256164 -2.794109 2.683081 0
M  V30 25 H -0.749129 3.476031 -0.920401 0
M  V30 26 H -4.058779 0.790879 -1.322405 0
M  V30 27 H -2.668971 -1.060242 -0.377123 0
M  V30 END ATOM
M  V30 BEGIN BOND
M  V30 1 1 1 2
M  V30 2 1 2 3
M  V30 3 1 3 4
M  V30 4 1 4 5
M  V30 5 2 5 6
M  V30 6 1 6 7
M  V30 7 1 7 8
M  V30 8 2 8 9
M  V30 9 1 9 10
M  V30 10 2 4 11
M  V30 11 1 11 12
M  V30 12 2 12 13
M  V30 13 1 13 14
M  V30 14 2 14 15
M  V30 15 1 15 16
M  V30 16 2 16 17
M  V30 17 1 17 3
M  V30 18 1 9 5
M  V30 19 1 17 12
M  V30 20 1 1 18
M  V30 21 1 1 19
M  V30 22 1 1 20
M  V30 23 1 2 21
M  V30 24 1 2 22
M  V30 25 1 10 23
M  V30 26 1 10 24
M  V30 27 1 13 25
M  V30 28 1 15 26
M  V30 29 1 16 27
M  V30 END BOND
M  V30 END CTAB
M  END
>  <Dataset>  (513) 
ChEMBL_Kinases

>  <Ligand_Instance>  (513) 
nan

>  <PDB_ID>  (513) 
nan

>  <Standardized_SMILES>  (513) 
CCn1c(-c2nonc2N)nc2cnccc21

>  <Name>  (513) 
nan

>  <Pocket>  (513) 
nan

>  <ATP_Site>  (513) 
nan

>  <Peripheral>  (513) 
nan

>  <Num_H_Atoms_ProtBoundConf>  (513) 
nan

>  <Num_Resolved_Atoms>  (513) 
nan

>  <Num_Not_Resolved_Atoms>  (513) 
nan

$$$$
CHEMBL67716
     RDKit          3D

  0  0  0  0  0  0  0  0  0  0999 V3000
M  V30 BEGIN CTAB
M  V30 COUNTS 62 65 0 0 0
M  V30 BEGIN ATOM
M  V30 1 O 3.496406 3.313456 3.840902 0
M  V30 2 C 2.697618 2.351308 3.697552 0
M  V30 3 N 2.797806 1.502173 2.564454 0
M  V30 4 C 3.635192 1.435342 1.438530 0 CFG=1
M  V30 5 C 4.376099 0.154033 1.226124 0
M  V30 6 C 5.050567 0.443289 -0.109611 0 CFG=2
M  V30 7 O 6.321322 0.940597 0.155716 0
M  V30 8 C 4.172931 1.476951 -0.790502 0
M  V30 9 C 2.948856 1.598971 0.099185 0 CFG=1
M  V30 10 O 2.049242 0.540298 -0.170923 0
M  V30 11 C 0.725477 0.749618 -0.525571 0
M  V30 12 O 0.438704 1.983222 -0.573714 0
M  V30 13 C -0.198017 -0.342294 -0.802845 0
M  V30 14 C 0.288266 -1.621381 -0.701683 0
M  V30 15 C -0.551950 -2.711285 -0.957608 0
M  V30 16 O 0.037767 -3.965726 -0.827405 0
M  V30 17 C -1.864836 -2.512821 -1.311199 0
M  V30 18 C -2.742158 -3.637072 -1.489723 0
M  V30 19 O -2.229473 -4.604959 -0.812567 0
M  V30 20 C -3.948208 -4.063153 -2.123234 0
M  V30 21 C -4.660982 -5.046955 -1.429873 0
M  V30 22 O -4.264531 -5.589393 -0.187449 0
M  V30 23 C -5.853186 -5.605774 -1.893041 0
M  V30 24 C -6.302767 -5.134412 -3.087260 0
M  V30 25 C -5.667835 -4.178112 -3.830757 0
M  V30 26 C -4.505540 -3.680125 -3.314335 0
M  V30 27 C -3.762171 -2.776108 -4.215697 0
M  V30 28 O -2.642041 -2.211587 -4.253289 0
M  V30 29 O -4.240071 -2.296528 -5.391112 0
M  V30 30 C -2.268148 -1.179032 -1.386451 0
M  V30 31 O -3.582705 -0.844882 -1.727265 0
M  V30 32 C -1.498690 -0.063014 -1.149782 0
M  V30 33 C 1.695533 2.155664 4.718081 0
M  V30 34 C 1.669369 3.028892 5.783553 0
M  V30 35 C 0.750443 2.941877 6.829109 0
M  V30 36 C -0.176221 1.902675 6.758204 0
M  V30 37 O -1.118468 1.770173 7.779123 0
M  V30 38 C -0.192126 1.001372 5.712114 0
M  V30 39 C 0.754504 1.147261 4.701546 0
M  V30 40 H 2.148350 0.696787 2.420344 0
M  V30 41 H 4.386184 2.253197 1.476687 0
M  V30 42 H 5.120018 0.012960 2.033658 0
M  V30 43 H 3.749880 -0.727670 1.073554 0
M  V30 44 H 5.082473 -0.462273 -0.769176 0
M  V30 45 H 6.750319 0.321794 0.808199 0
M  V30 46 H 4.670688 2.468195 -0.743274 0
M  V30 47 H 3.933337 1.172903 -1.821357 0
M  V30 48 H 2.471828 2.594567 -0.006509 0
M  V30 49 H 1.313754 -1.788606 -0.426269 0
M  V30 50 H 1.002410 -4.145172 -1.052980 0
M  V30 51 H -4.718323 -5.298404 0.667593 0
M  V30 52 H -6.403795 -6.357517 -1.369216 0
M  V30 53 H -7.221320 -5.538438 -3.477247 0
M  V30 54 H -6.074058 -3.851354 -4.761886 0
M  V30 55 H -3.769137 -2.229216 -6.264771 0
M  V30 56 H -3.813900 -0.282798 -2.535543 0
M  V30 57 H -1.830364 0.942016 -1.215275 0
M  V30 58 H 2.360559 3.846621 5.886802 0
M  V30 59 H 0.747532 3.635221 7.652702 0
M  V30 60 H -1.181629 0.899243 8.327983 0
M  V30 61 H -0.910889 0.195848 5.657813 0
M  V30 62 H 0.748924 0.447295 3.880578 0
M  V30 END ATOM
M  V30 BEGIN BOND
M  V30 1 2 1 2
M  V30 2 1 2 3
M  V30 3 1 3 4
M  V30 4 1 4 5
M  V30 5 1 5 6
M  V30 6 1 6 7
M  V30 7 1 6 8
M  V30 8 1 8 9
M  V30 9 1 9 10
M  V30 10 1 10 11
M  V30 11 2 11 12
M  V30 12 1 11 13
M  V30 13 2 13 14
M  V30 14 1 14 15
M  V30 15 1 15 16
M  V30 16 2 15 17
M  V30 17 1 17 18
M  V30 18 2 18 19
M  V30 19 1 18 20
M  V30 20 2 20 21
M  V30 21 1 21 22
M  V30 22 1 21 23
M  V30 23 2 23 24
M  V30 24 1 24 25
M  V30 25 2 25 26
M  V30 26 1 26 27
M  V30 27 2 27 28
M  V30 28 1 27 29
M  V30 29 1 17 30
M  V30 30 1 30 31
M  V30 31 2 30 32
M  V30 32 1 2 33
M  V30 33 2 33 34
M  V30 34 1 34 35
M  V30 35 2 35 36
M  V30 36 1 36 37
M  V30 37 1 36 38
M  V30 38 2 38 39
M  V30 39 1 9 4
M  V30 40 1 32 13
M  V30 41 1 39 33
M  V30 42 1 26 20
M  V30 43 1 3 40
M  V30 44 1 4 41 CFG=1
M  V30 45 1 5 42
M  V30 46 1 5 43
M  V30 47 1 6 44 CFG=3
M  V30 48 1 7 45
M  V30 49 1 8 46
M  V30 50 1 8 47
M  V30 51 1 9 48 CFG=1
M  V30 52 1 14 49
M  V30 53 1 16 50
M  V30 54 1 22 51
M  V30 55 1 23 52
M  V30 56 1 24 53
M  V30 57 1 25 54
M  V30 58 1 29 55
M  V30 59 1 31 56
M  V30 60 1 32 57
M  V30 61 1 34 58
M  V30 62 1 35 59
M  V30 63 1 37 60
M  V30 64 1 38 61
M  V30 65 1 39 62
M  V30 END BOND
M  V30 END CTAB
M  END
>  <Dataset>  (514) 
ChEMBL_Kinases

>  <Ligand_Instance>  (514) 
nan

>  <PDB_ID>  (514) 
nan

>  <Standardized_SMILES>  (514) 
O=C(N[C@H]1C[C@H](O)C[C@H]1OC(=O)c1cc(O)c(C(=O)c2c(O)cccc2C(=O)O)c(O)c1)c1ccc(O)cc1

>  <Name>  (514) 
nan

>  <Pocket>  (514) 
nan

>  <ATP_Site>  (514) 
nan

>  <Peripheral>  (514) 
nan

>  <Num_H_Atoms_ProtBoundConf>  (514) 
nan

>  <Num_Resolved_Atoms>  (514) 
nan

>  <Num_Not_Resolved_Atoms>  (514) 
nan

$$$$
CHEMBL2348350
     RDKit          3D

  0  0  0  0  0  0  0  0  0  0999 V3000
M  V30 BEGIN CTAB
M  V30 COUNTS 57 60 0 0 0
M  V30 BEGIN ATOM
M  V30 1 C 2.854296 -2.105225 4.283336 0
M  V30 2 N 4.198261 -1.533899 4.257792 0
M  V30 3 C 5.060900 -1.809570 5.376290 0
M  V30 4 C 4.649507 -0.732505 3.173548 0
M  V30 5 O 5.781076 -0.197917 3.060236 0
M  V30 6 C 3.804316 -0.435278 2.028340 0
M  V30 7 C 3.308665 0.816406 1.731045 0
M  V30 8 C 2.509168 1.041614 0.624080 0
M  V30 9 C 2.161131 0.040373 -0.242626 0
M  V30 10 N 1.344624 0.287185 -1.376459 0
M  V30 11 C 0.953766 1.647984 -1.692553 0
M  V30 12 C -0.452206 1.909307 -1.264136 0
M  V30 13 C -1.353178 0.855069 -1.932278 0
M  V30 14 N -1.219068 -0.400405 -1.200874 0
M  V30 15 C -2.081749 -0.802594 -0.141767 0
M  V30 16 C -1.450774 -0.766750 1.083054 0
M  V30 17 C -2.021308 -1.072147 2.303029 0
M  V30 18 N -3.332358 -1.435197 2.216053 0
M  V30 19 C -3.953857 -1.474178 1.035095 0
M  V30 20 S -5.625036 -1.910188 0.615520 0
M  V30 21 C -5.474663 -1.665146 -1.146071 0
M  V30 22 C -6.583118 -1.883922 -2.047978 0
M  V30 23 N -7.851618 -2.299132 -1.558701 0
M  V30 24 O -6.388228 -1.693848 -3.275437 0
M  V30 25 C -4.191131 -1.275871 -1.303272 0
M  V30 26 N -3.812773 -1.027305 -2.650693 0
M  V30 27 C -3.405994 -1.175206 -0.187389 0
M  V30 28 C -0.240511 -1.452198 -1.390462 0
M  V30 29 C 0.942403 -0.874791 -2.159160 0
M  V30 30 C 2.656770 -1.186652 0.064185 0
M  V30 31 C 3.455871 -1.458820 1.154088 0
M  V30 32 H 2.344633 -1.966531 3.300580 0
M  V30 33 H 2.874385 -3.173414 4.600359 0
M  V30 34 H 2.268735 -1.493231 5.001140 0
M  V30 35 H 5.655527 -0.898158 5.576000 0
M  V30 36 H 5.686457 -2.719169 5.249416 0
M  V30 37 H 4.434514 -2.002056 6.293457 0
M  V30 38 H 3.604574 1.593897 2.438748 0
M  V30 39 H 2.205514 2.050601 0.528975 0
M  V30 40 H 0.941854 1.736362 -2.823256 0
M  V30 41 H 1.672004 2.415341 -1.377605 0
M  V30 42 H -0.513709 1.859064 -0.164054 0
M  V30 43 H -0.764173 2.922399 -1.641471 0
M  V30 44 H -1.004793 0.699369 -2.969300 0
M  V30 45 H -2.404232 1.221775 -1.947223 0
M  V30 46 H -0.392601 -0.481740 1.218817 0
M  V30 47 H -1.525333 -1.039786 3.248615 0
M  V30 48 H -7.952457 -3.278293 -1.959943 0
M  V30 49 H -7.966640 -3.268536 -1.947882 0
M  V30 50 H -4.220049 -0.181968 -3.107002 0
M  V30 51 H -3.164976 -1.583556 -3.276173 0
M  V30 52 H -0.669848 -2.330137 -1.914258 0
M  V30 53 H 0.088706 -1.839780 -0.406009 0
M  V30 54 H 1.741621 -1.590009 -2.344642 0
M  V30 55 H 0.569103 -0.573458 -3.175643 0
M  V30 56 H 2.461619 -2.064849 -0.532244 0
M  V30 57 H 3.848399 -2.457076 1.385853 0
M  V30 END ATOM
M  V30 BEGIN BOND
M  V30 1 1 1 2
M  V30 2 1 2 3
M  V30 3 1 2 4
M  V30 4 2 4 5
M  V30 5 1 4 6
M  V30 6 2 6 7
M  V30 7 1 7 8
M  V30 8 2 8 9
M  V30 9 1 9 10
M  V30 10 1 10 11
M  V30 11 1 11 12
M  V30 12 1 12 13
M  V30 13 1 13 14
M  V30 14 1 14 15
M  V30 15 2 15 16
M  V30 16 1 16 17
M  V30 17 2 17 18
M  V30 18 1 18 19
M  V30 19 1 19 20
M  V30 20 1 20 21
M  V30 21 1 21 22
M  V30 22 1 22 23
M  V30 23 2 22 24
M  V30 24 2 21 25
M  V30 25 1 25 26
M  V30 26 1 25 27
M  V30 27 1 14 28
M  V30 28 1 28 29
M  V30 29 1 9 30
M  V30 30 2 30 31
M  V30 31 1 31 6
M  V30 32 1 29 10
M  V30 33 1 27 15
M  V30 34 2 27 19
M  V30 35 1 1 32
M  V30 36 1 1 33
M  V30 37 1 1 34
M  V30 38 1 3 35
M  V30 39 1 3 36
M  V30 40 1 3 37
M  V30 41 1 7 38
M  V30 42 1 8 39
M  V30 43 1 11 40
M  V30 44 1 11 41
M  V30 45 1 12 42
M  V30 46 1 12 43
M  V30 47 1 13 44
M  V30 48 1 13 45
M  V30 49 1 16 46
M  V30 50 1 17 47
M  V30 51 1 23 48
M  V30 52 1 23 49
M  V30 53 1 26 50
M  V30 54 1 26 51
M  V30 55 1 28 52
M  V30 56 1 28 53
M  V30 57 1 29 54
M  V30 58 1 29 55
M  V30 59 1 30 56
M  V30 60 1 31 57
M  V30 END BOND
M  V30 END CTAB
M  END
>  <Dataset>  (515) 
ChEMBL_Kinases

>  <Ligand_Instance>  (515) 
nan

>  <PDB_ID>  (515) 
nan

>  <Standardized_SMILES>  (515) 
CN(C)C(=O)c1ccc(N2CCCN(c3ccnc4sc(C(N)=O)c(N)c34)CC2)cc1

>  <Name>  (515) 
nan

>  <Pocket>  (515) 
nan

>  <ATP_Site>  (515) 
nan

>  <Peripheral>  (515) 
nan

>  <Num_H_Atoms_ProtBoundConf>  (515) 
nan

>  <Num_Resolved_Atoms>  (515) 
nan

>  <Num_Not_Resolved_Atoms>  (515) 
nan

$$$$
CHEMBL5079601
     RDKit          3D

  0  0  0  0  0  0  0  0  0  0999 V3000
M  V30 BEGIN CTAB
M  V30 COUNTS 60 63 0 0 0
M  V30 BEGIN ATOM
M  V30 1 C 2.281608 5.918755 2.369147 0
M  V30 2 C 2.940686 4.597102 2.635153 0
M  V30 3 N 3.996108 4.284195 3.456301 0
M  V30 4 N 4.185491 2.963140 3.343171 0
M  V30 5 C 5.129826 1.970689 3.892048 0
M  V30 6 C 6.289977 1.865039 2.925004 0
M  V30 7 F 5.831171 1.464988 1.673536 0
M  V30 8 F 6.945205 3.066619 2.841250 0
M  V30 9 F 7.148648 0.894224 3.369902 0
M  V30 10 C 3.300719 2.467802 2.498140 0
M  V30 11 C 2.459350 3.435575 1.989867 0
M  V30 12 N 1.384738 3.355308 1.059633 0
M  V30 13 C 1.019075 2.169574 0.419679 0
M  V30 14 N 1.852801 1.699319 -0.504587 0
M  V30 15 C 1.768247 0.602597 -1.268836 0
M  V30 16 C 0.609103 -0.198743 -1.075559 0
M  V30 17 C 0.765083 -1.448905 -1.944753 0
M  V30 18 C 1.812963 -2.449610 -1.390665 0
M  V30 19 C 0.384554 -2.758445 -1.338411 0
M  V30 20 C -0.358201 0.224103 -0.105487 0
M  V30 21 N -1.358237 -0.678550 -0.126644 0
M  V30 22 C -2.564105 -1.374549 0.199358 0
M  V30 23 C -2.612030 -2.177865 1.449562 0
M  V30 24 C -3.981085 -2.790505 1.671448 0
M  V30 25 N -4.443875 -3.624624 0.574630 0
M  V30 26 C -3.812784 -4.779408 0.119590 0
M  V30 27 O -2.770291 -5.320778 0.526443 0
M  V30 28 C -4.550506 -5.403370 -1.017127 0
M  V30 29 C -4.709259 -4.515172 -2.231413 0
M  V30 30 C -3.447480 -5.117070 -2.825715 0
M  V30 31 C -3.613425 -6.259864 -1.827543 0
M  V30 32 N 0.344821 1.206342 0.154470 0
M  V30 33 H 2.917432 6.780765 2.547337 0
M  V30 34 H 1.402644 5.986756 3.046771 0
M  V30 35 H 1.844345 5.920481 1.343699 0
M  V30 36 H 4.649356 0.984103 4.042880 0
M  V30 37 H 5.516655 2.264255 4.883100 0
M  V30 38 H 3.090022 1.447317 2.109528 0
M  V30 39 H 0.824226 4.199847 0.831391 0
M  V30 40 H 2.597019 0.380606 -2.009842 0
M  V30 41 H 0.877004 -1.249810 -2.992401 0
M  V30 42 H 2.438691 -3.001815 -2.112797 0
M  V30 43 H 2.363799 -2.075144 -0.499985 0
M  V30 44 H -0.062417 -2.672460 -0.304150 0
M  V30 45 H -0.044637 -3.578308 -1.906996 0
M  V30 46 H -1.701367 -0.091249 0.704209 0
M  V30 47 H -2.812770 -2.076275 -0.676197 0
M  V30 48 H -3.459698 -0.695345 0.162786 0
M  V30 49 H -1.828987 -2.969274 1.420875 0
M  V30 50 H -2.420096 -1.544531 2.332583 0
M  V30 51 H -4.751422 -2.061322 1.951894 0
M  V30 52 H -3.843069 -3.432088 2.599073 0
M  V30 53 H -5.335202 -3.240299 0.133135 0
M  V30 54 H -5.467131 -5.956760 -0.732416 0
M  V30 55 H -5.569459 -4.830267 -2.861840 0
M  V30 56 H -4.707580 -3.431768 -2.067710 0
M  V30 57 H -2.527937 -4.513462 -2.698723 0
M  V30 58 H -3.537897 -5.493479 -3.846703 0
M  V30 59 H -4.053825 -7.179272 -2.284134 0
M  V30 60 H -2.669920 -6.504078 -1.362091 0
M  V30 END ATOM
M  V30 BEGIN BOND
M  V30 1 1 1 2
M  V30 2 2 2 3
M  V30 3 1 3 4
M  V30 4 1 4 5
M  V30 5 1 5 6
M  V30 6 1 6 7
M  V30 7 1 6 8
M  V30 8 1 6 9
M  V30 9 1 4 10
M  V30 10 2 10 11
M  V30 11 1 11 12
M  V30 12 1 12 13
M  V30 13 2 13 14
M  V30 14 1 14 15
M  V30 15 2 15 16
M  V30 16 1 16 17
M  V30 17 1 17 18
M  V30 18 1 18 19
M  V30 19 1 16 20
M  V30 20 1 20 21
M  V30 21 1 21 22
M  V30 22 1 22 23
M  V30 23 1 23 24
M  V30 24 1 24 25
M  V30 25 1 25 26
M  V30 26 2 26 27
M  V30 27 1 26 28
M  V30 28 1 28 29
M  V30 29 1 29 30
M  V30 30 1 30 31
M  V30 31 2 20 32
M  V30 32 1 11 2
M  V30 33 1 32 13
M  V30 34 1 19 17
M  V30 35 1 31 28
M  V30 36 1 1 33
M  V30 37 1 1 34
M  V30 38 1 1 35
M  V30 39 1 5 36
M  V30 40 1 5 37
M  V30 41 1 10 38
M  V30 42 1 12 39
M  V30 43 1 15 40
M  V30 44 1 17 41
M  V30 45 1 18 42
M  V30 46 1 18 43
M  V30 47 1 19 44
M  V30 48 1 19 45
M  V30 49 1 21 46
M  V30 50 1 22 47
M  V30 51 1 22 48
M  V30 52 1 23 49
M  V30 53 1 23 50
M  V30 54 1 24 51
M  V30 55 1 24 52
M  V30 56 1 25 53
M  V30 57 1 28 54
M  V30 58 1 29 55
M  V30 59 1 29 56
M  V30 60 1 30 57
M  V30 61 1 30 58
M  V30 62 1 31 59
M  V30 63 1 31 60
M  V30 END BOND
M  V30 END CTAB
M  END
>  <Dataset>  (516) 
ChEMBL_Kinases

>  <Ligand_Instance>  (516) 
nan

>  <PDB_ID>  (516) 
nan

>  <Standardized_SMILES>  (516) 
Cc1nn(CC(F)(F)F)cc1Nc1ncc(C2CC2)c(NCCCNC(=O)C2CCC2)n1

>  <Name>  (516) 
nan

>  <Pocket>  (516) 
nan

>  <ATP_Site>  (516) 
nan

>  <Peripheral>  (516) 
nan

>  <Num_H_Atoms_ProtBoundConf>  (516) 
nan

>  <Num_Resolved_Atoms>  (516) 
nan

>  <Num_Not_Resolved_Atoms>  (516) 
nan

$$$$
CHEMBL67788
     RDKit          3D

  0  0  0  0  0  0  0  0  0  0999 V3000
M  V30 BEGIN CTAB
M  V30 COUNTS 65 68 0 0 0
M  V30 BEGIN ATOM
M  V30 1 O 1.584018 3.660938 0.730193 0
M  V30 2 C 1.488220 2.800767 1.636055 0
M  V30 3 N 2.557841 1.905546 1.869897 0
M  V30 4 C 3.777214 1.936941 1.100029 0 CFG=1
M  V30 5 C 4.997140 2.219833 1.904545 0
M  V30 6 S 5.268121 1.222256 3.341316 0
M  V30 7 C 4.504223 -0.382055 3.371468 0
M  V30 8 C 4.237584 -1.006491 2.042395 0
M  V30 9 C 4.890817 -0.316724 0.891527 0
M  V30 10 C 3.915275 0.659362 0.299531 0 CFG=1
M  V30 11 O 2.641362 0.050647 0.237551 0
M  V30 12 C 1.966363 -0.236275 -0.912690 0
M  V30 13 O 2.583095 0.092642 -1.959846 0
M  V30 14 C 0.651833 -0.864729 -0.963682 0
M  V30 15 C 0.070878 -1.180695 0.239592 0
M  V30 16 C -1.190749 -1.787435 0.258653 0
M  V30 17 O -1.706321 -2.073418 1.520360 0
M  V30 18 C -1.853601 -2.070656 -0.911481 0
M  V30 19 C -3.185091 -2.615823 -0.889961 0
M  V30 20 O -3.673194 -2.283721 0.244179 0
M  V30 21 C -4.135886 -3.358620 -1.635681 0
M  V30 22 C -5.475690 -3.028782 -1.382113 0
M  V30 23 O -5.890361 -2.027460 -0.477786 0
M  V30 24 C -6.556518 -3.661224 -2.003295 0
M  V30 25 C -6.228209 -4.644607 -2.894164 0
M  V30 26 C -4.955183 -5.039889 -3.206149 0
M  V30 27 C -3.959815 -4.368594 -2.549291 0
M  V30 28 C -2.600755 -4.911958 -2.763014 0
M  V30 29 O -1.439051 -4.759527 -2.316690 0
M  V30 30 O -2.298143 -5.884392 -3.679400 0
M  V30 31 C -1.177074 -1.707768 -2.081253 0
M  V30 32 O -1.750552 -1.934252 -3.351247 0
M  V30 33 C 0.057357 -1.112314 -2.178431 0
M  V30 34 C 0.249694 2.778318 2.409145 0
M  V30 35 C -0.729117 3.698245 2.094383 0
M  V30 36 C -1.932865 3.733750 2.789723 0
M  V30 37 C -2.109241 2.823247 3.796124 0
M  V30 38 O -3.348701 2.914034 4.458534 0
M  V30 39 C -1.166921 1.880463 4.155623 0
M  V30 40 C 0.007061 1.889067 3.434767 0
M  V30 41 H 2.490665 1.184782 2.620901 0
M  V30 42 H 3.741530 2.754488 0.318199 0
M  V30 43 H 5.013821 3.319055 2.169524 0
M  V30 44 H 5.862480 2.138760 1.186139 0
M  V30 45 H 3.622314 -0.370490 4.049318 0
M  V30 46 H 5.225405 -1.079858 3.893457 0
M  V30 47 H 3.116459 -1.015717 1.902638 0
M  V30 48 H 4.496710 -2.101572 2.023190 0
M  V30 49 H 5.853149 0.101018 1.194547 0
M  V30 50 H 5.111946 -1.075928 0.113451 0
M  V30 51 H 4.224576 0.841981 -0.761791 0
M  V30 52 H 0.571308 -0.968605 1.165011 0
M  V30 53 H -2.362287 -1.509579 2.021896 0
M  V30 54 H -6.581250 -1.349736 -0.773117 0
M  V30 55 H -7.577619 -3.414249 -1.814612 0
M  V30 56 H -7.041650 -5.150942 -3.393694 0
M  V30 57 H -4.747773 -5.824854 -3.919211 0
M  V30 58 H -1.713704 -6.697233 -3.548535 0
M  V30 59 H -1.203838 -2.495179 -4.003396 0
M  V30 60 H 0.541615 -0.851150 -3.104704 0
M  V30 61 H -0.604171 4.426644 1.299012 0
M  V30 62 H -2.686956 4.467089 2.523038 0
M  V30 63 H -3.495328 3.689795 5.121905 0
M  V30 64 H -1.383462 1.203005 4.956127 0
M  V30 65 H 0.759933 1.162020 3.696080 0
M  V30 END ATOM
M  V30 BEGIN BOND
M  V30 1 2 1 2
M  V30 2 1 2 3
M  V30 3 1 3 4
M  V30 4 1 4 5
M  V30 5 1 5 6
M  V30 6 1 6 7
M  V30 7 1 7 8
M  V30 8 1 8 9
M  V30 9 1 9 10
M  V30 10 1 10 11
M  V30 11 1 11 12
M  V30 12 2 12 13
M  V30 13 1 12 14
M  V30 14 2 14 15
M  V30 15 1 15 16
M  V30 16 1 16 17
M  V30 17 2 16 18
M  V30 18 1 18 19
M  V30 19 2 19 20
M  V30 20 1 19 21
M  V30 21 2 21 22
M  V30 22 1 22 23
M  V30 23 1 22 24
M  V30 24 2 24 25
M  V30 25 1 25 26
M  V30 26 2 26 27
M  V30 27 1 27 28
M  V30 28 2 28 29
M  V30 29 1 28 30
M  V30 30 1 18 31
M  V30 31 1 31 32
M  V30 32 2 31 33
M  V30 33 1 2 34
M  V30 34 2 34 35
M  V30 35 1 35 36
M  V30 36 2 36 37
M  V30 37 1 37 38
M  V30 38 1 37 39
M  V30 39 2 39 40
M  V30 40 1 10 4
M  V30 41 1 33 14
M  V30 42 1 40 34
M  V30 43 1 27 21
M  V30 44 1 3 41
M  V30 45 1 4 42 CFG=3
M  V30 46 1 5 43
M  V30 47 1 5 44
M  V30 48 1 7 45
M  V30 49 1 7 46
M  V30 50 1 8 47
M  V30 51 1 8 48
M  V30 52 1 9 49
M  V30 53 1 9 50
M  V30 54 1 10 51 CFG=3
M  V30 55 1 15 52
M  V30 56 1 17 53
M  V30 57 1 23 54
M  V30 58 1 24 55
M  V30 59 1 25 56
M  V30 60 1 26 57
M  V30 61 1 30 58
M  V30 62 1 32 59
M  V30 63 1 33 60
M  V30 64 1 35 61
M  V30 65 1 36 62
M  V30 66 1 38 63
M  V30 67 1 39 64
M  V30 68 1 40 65
M  V30 END BOND
M  V30 END CTAB
M  END
>  <Dataset>  (517) 
ChEMBL_Kinases

>  <Ligand_Instance>  (517) 
nan

>  <PDB_ID>  (517) 
nan

>  <Standardized_SMILES>  (517) 
O=C(N[C@H]1CSCCC[C@H]1OC(=O)c1cc(O)c(C(=O)c2c(O)cccc2C(=O)O)c(O)c1)c1ccc(O)cc1

>  <Name>  (517) 
nan

>  <Pocket>  (517) 
nan

>  <ATP_Site>  (517) 
nan

>  <Peripheral>  (517) 
nan

>  <Num_H_Atoms_ProtBoundConf>  (517) 
nan

>  <Num_Resolved_Atoms>  (517) 
nan

>  <Num_Not_Resolved_Atoms>  (517) 
nan

$$$$
CHEMBL1802356
     RDKit          3D

  0  0  0  0  0  0  0  0  0  0999 V3000
M  V30 BEGIN CTAB
M  V30 COUNTS 39 43 0 0 0
M  V30 BEGIN ATOM
M  V30 1 O 2.634238 -3.089793 4.679275 0
M  V30 2 C 2.457137 -2.513690 3.582530 0
M  V30 3 N 3.486547 -2.026868 2.724907 0
M  V30 4 C 2.755454 -1.468902 1.630954 0
M  V30 5 N 3.326897 -0.855999 0.484380 0
M  V30 6 C 2.816065 0.319409 -0.129658 0
M  V30 7 C 1.831543 1.095078 0.436739 0
M  V30 8 C 1.277058 2.231044 -0.098258 0
M  V30 9 C 1.776266 2.611662 -1.329978 0
M  V30 10 C 2.779579 1.865844 -1.960466 0
M  V30 11 C 3.296916 0.719214 -1.355964 0
M  V30 12 O 3.034905 2.532374 -3.165984 0
M  V30 13 C 1.948371 3.415297 -3.433998 0
M  V30 14 O 1.441550 3.690793 -2.135301 0
M  V30 15 N 1.474611 -1.577296 1.761290 0
M  V30 16 C 1.142695 -2.241541 2.992600 0
M  V30 17 C -0.076810 -2.537162 3.447402 0
M  V30 18 C -1.247442 -2.156509 2.669823 0
M  V30 19 C -1.360116 -0.952367 2.016872 0
M  V30 20 C -2.410493 -0.500059 1.248154 0
M  V30 21 C -3.481731 -1.378680 1.125707 0
M  V30 22 C -3.453645 -2.623807 1.755302 0
M  V30 23 C -2.357862 -2.990592 2.505631 0
M  V30 24 O -4.665826 -3.207334 1.413512 0
M  V30 25 C -5.583290 -2.207626 1.021443 0
M  V30 26 O -4.692227 -1.258225 0.437465 0
M  V30 27 H 4.524267 -2.052690 2.829899 0
M  V30 28 H 4.196640 -1.313936 0.073062 0
M  V30 29 H 1.473391 0.769784 1.402108 0
M  V30 30 H 0.498019 2.766272 0.447912 0
M  V30 31 H 4.079931 0.172441 -1.890806 0
M  V30 32 H 1.183672 2.898619 -4.046933 0
M  V30 33 H 2.256360 4.336406 -3.930061 0
M  V30 34 H -0.140293 -3.057484 4.395361 0
M  V30 35 H -0.530046 -0.271673 2.117316 0
M  V30 36 H -2.391688 0.467550 0.780903 0
M  V30 37 H -2.364644 -3.953523 2.977957 0
M  V30 38 H -6.361449 -2.561869 0.324547 0
M  V30 39 H -5.987589 -1.734967 1.940470 0
M  V30 END ATOM
M  V30 BEGIN BOND
M  V30 1 2 1 2
M  V30 2 1 2 3
M  V30 3 1 3 4
M  V30 4 1 4 5
M  V30 5 1 5 6
M  V30 6 2 6 7
M  V30 7 1 7 8
M  V30 8 2 8 9
M  V30 9 1 9 10
M  V30 10 2 10 11
M  V30 11 1 10 12
M  V30 12 1 12 13
M  V30 13 1 13 14
M  V30 14 2 4 15
M  V30 15 1 15 16
M  V30 16 2 16 17
M  V30 17 1 17 18
M  V30 18 2 18 19
M  V30 19 1 19 20
M  V30 20 2 20 21
M  V30 21 1 21 22
M  V30 22 2 22 23
M  V30 23 1 22 24
M  V30 24 1 24 25
M  V30 25 1 25 26
M  V30 26 1 16 2
M  V30 27 1 23 18
M  V30 28 1 11 6
M  V30 29 1 26 21
M  V30 30 1 14 9
M  V30 31 1 3 27
M  V30 32 1 5 28
M  V30 33 1 7 29
M  V30 34 1 8 30
M  V30 35 1 11 31
M  V30 36 1 13 32
M  V30 37 1 13 33
M  V30 38 1 17 34
M  V30 39 1 19 35
M  V30 40 1 20 36
M  V30 41 1 23 37
M  V30 42 1 25 38
M  V30 43 1 25 39
M  V30 END BOND
M  V30 END CTAB
M  END
>  <Dataset>  (518) 
ChEMBL_Kinases

>  <Ligand_Instance>  (518) 
nan

>  <PDB_ID>  (518) 
nan

>  <Standardized_SMILES>  (518) 
O=C1NC(Nc2ccc3c(c2)OCO3)=N/C1=C\c1ccc2c(c1)OCO2

>  <Name>  (518) 
nan

>  <Pocket>  (518) 
nan

>  <ATP_Site>  (518) 
nan

>  <Peripheral>  (518) 
nan

>  <Num_H_Atoms_ProtBoundConf>  (518) 
nan

>  <Num_Resolved_Atoms>  (518) 
nan

>  <Num_Not_Resolved_Atoms>  (518) 
nan

$$$$
CHEMBL5081341
     RDKit          3D

  0  0  0  0  0  0  0  0  0  0999 V3000
M  V30 BEGIN CTAB
M  V30 COUNTS 32 34 0 0 0
M  V30 BEGIN ATOM
M  V30 1 C 0.156111 -1.264966 3.872657 0
M  V30 2 O 0.212416 -0.891434 2.510889 0
M  V30 3 C 0.552301 -1.809082 1.551134 0
M  V30 4 N 0.836525 -3.085693 1.904842 0
M  V30 5 C 1.168959 -3.988397 0.966935 0
M  V30 6 C 1.459597 -5.356196 1.472262 0
M  V30 7 N 1.237168 -3.688516 -0.336642 0
M  V30 8 C 0.965757 -2.431162 -0.761503 0
M  V30 9 N 0.927449 -1.783780 -1.930565 0
M  V30 10 C 0.578451 -0.502975 -1.723520 0
M  V30 11 C 0.375367 -0.287293 -0.355174 0
M  V30 12 C 0.003950 1.043041 0.113364 0
M  V30 13 C 0.563232 1.811634 1.113122 0
M  V30 14 C 0.042399 3.054474 1.406036 0
M  V30 15 N -1.021360 3.559697 0.733194 0
M  V30 16 C -1.608490 2.851221 -0.255440 0
M  V30 17 N -2.724738 3.389785 -0.956514 0
M  V30 18 C -1.088474 1.623981 -0.539081 0
M  V30 19 C 0.629080 -1.522419 0.203830 0
M  V30 20 H -0.764146 -1.869938 4.044127 0
M  V30 21 H 0.114640 -0.332464 4.496168 0
M  V30 22 H 1.049599 -1.861216 4.139899 0
M  V30 23 H 1.716724 -6.006792 0.620584 0
M  V30 24 H 2.239564 -5.355815 2.250864 0
M  V30 25 H 0.522537 -5.724027 1.957447 0
M  V30 26 H 1.144789 -2.252020 -2.834103 0
M  V30 27 H 0.491600 0.186958 -2.546547 0
M  V30 28 H 1.406160 1.359533 1.602652 0
M  V30 29 H 0.516975 3.620815 2.201178 0
M  V30 30 H -3.531818 3.214123 -0.290434 0
M  V30 31 H -2.873756 3.860450 -1.877883 0
M  V30 32 H -1.600682 1.094174 -1.346406 0
M  V30 END ATOM
M  V30 BEGIN BOND
M  V30 1 1 1 2
M  V30 2 1 2 3
M  V30 3 2 3 4
M  V30 4 1 4 5
M  V30 5 1 5 6
M  V30 6 2 5 7
M  V30 7 1 7 8
M  V30 8 1 8 9
M  V30 9 1 9 10
M  V30 10 2 10 11
M  V30 11 1 11 12
M  V30 12 2 12 13
M  V30 13 1 13 14
M  V30 14 2 14 15
M  V30 15 1 15 16
M  V30 16 1 16 17
M  V30 17 2 16 18
M  V30 18 1 11 19
M  V30 19 1 19 3
M  V30 20 2 19 8
M  V30 21 1 18 12
M  V30 22 1 1 20
M  V30 23 1 1 21
M  V30 24 1 1 22
M  V30 25 1 6 23
M  V30 26 1 6 24
M  V30 27 1 6 25
M  V30 28 1 9 26
M  V30 29 1 10 27
M  V30 30 1 13 28
M  V30 31 1 14 29
M  V30 32 1 17 30
M  V30 33 1 17 31
M  V30 34 1 18 32
M  V30 END BOND
M  V30 END CTAB
M  END
>  <Dataset>  (519) 
ChEMBL_Kinases

>  <Ligand_Instance>  (519) 
nan

>  <PDB_ID>  (519) 
nan

>  <Standardized_SMILES>  (519) 
COc1nc(C)nc2[nH]cc(-c3ccnc(N)c3)c12

>  <Name>  (519) 
nan

>  <Pocket>  (519) 
nan

>  <ATP_Site>  (519) 
nan

>  <Peripheral>  (519) 
nan

>  <Num_H_Atoms_ProtBoundConf>  (519) 
nan

>  <Num_Resolved_Atoms>  (519) 
nan

>  <Num_Not_Resolved_Atoms>  (519) 
nan

$$$$
CHEMBL3393604
     RDKit          3D

  0  0  0  0  0  0  0  0  0  0999 V3000
M  V30 BEGIN CTAB
M  V30 COUNTS 94 98 0 0 0
M  V30 BEGIN ATOM
M  V30 1 C 5.982983 -2.931209 -3.490519 0
M  V30 2 O 4.804160 -2.223397 -3.840741 0
M  V30 3 C 4.270057 -1.236757 -3.000004 0
M  V30 4 C 4.901923 -0.948822 -1.813050 0
M  V30 5 C 4.320572 0.042394 -1.018432 0
M  V30 6 C 3.175522 0.688145 -1.415759 0
M  V30 7 C 2.569955 0.367246 -2.621552 0
M  V30 8 C 3.123478 -0.605583 -3.421639 0
M  V30 9 O 1.427440 1.135288 -2.835979 0
M  V30 10 C 1.340611 2.471993 -2.341602 0
M  V30 11 C 1.529741 2.365816 -0.827384 0
M  V30 12 C 0.318793 1.757723 -0.206016 0
M  V30 13 O 0.219214 0.707893 0.516213 0
M  V30 14 N -0.916706 2.411961 -0.429231 0
M  V30 15 C -2.185958 2.025785 0.015594 0
M  V30 16 O -2.239956 0.983018 0.717912 0
M  V30 17 N -3.433384 2.702324 -0.252309 0
M  V30 18 C -4.527838 1.990197 0.381734 0
M  V30 19 C -5.032254 0.863440 -0.409328 0
M  V30 20 O -4.435302 0.567424 -1.474273 0
M  V30 21 N -6.142353 0.020117 -0.148798 0
M  V30 22 C -6.377001 -1.019414 -1.127436 0
M  V30 23 C -5.300554 -2.048819 -1.225005 0
M  V30 24 C -5.165916 -2.817311 0.100340 0
M  V30 25 C -4.078681 -3.832659 -0.040488 0
M  V30 26 C -3.929801 -4.697641 1.195129 0
M  V30 27 C -2.841970 -5.726032 1.062470 0
M  V30 28 N -1.545496 -5.116618 0.911483 0
M  V30 29 C -0.948219 -4.310108 1.911986 0
M  V30 30 O -1.652484 -4.166334 2.958479 0
M  V30 31 C 0.354992 -3.658868 1.851194 0
M  V30 32 C 1.180353 -3.614912 0.749203 0
M  V30 33 C 2.425809 -3.018664 0.721169 0
M  V30 34 C 2.861755 -2.425154 1.898579 0
M  V30 35 C 4.152123 -1.763068 2.057586 0
M  V30 36 N 5.287794 -2.326391 1.596220 0
M  V30 37 N 6.311217 -1.537642 1.866280 0
M  V30 38 C 5.866452 -0.447128 2.506912 0
M  V30 39 C 6.446179 0.673338 3.014267 0
M  V30 40 C 5.724129 1.668244 3.641880 0
M  V30 41 C 4.340456 1.526143 3.765351 0
M  V30 42 C 3.754096 0.383058 3.247205 0
M  V30 43 C 4.488790 -0.579087 2.634781 0
M  V30 44 C 2.073702 -2.440657 3.030418 0
M  V30 45 C 0.835177 -3.051713 3.002115 0
M  V30 46 C -3.508334 3.921050 -1.005062 0
M  V30 47 C -3.749275 3.875151 -2.458539 0
M  V30 48 C -5.039964 3.271313 -2.910883 0
M  V30 49 C -2.591425 3.291384 -3.267780 0
M  V30 50 O 2.692841 1.654858 -0.537474 0
M  V30 51 H 6.902502 -2.359148 -3.592768 0
M  V30 52 H 6.018155 -3.911586 -4.042765 0
M  V30 53 H 5.885864 -3.234606 -2.419113 0
M  V30 54 H 5.802163 -1.438614 -1.475117 0
M  V30 55 H 4.818746 0.261760 -0.100578 0
M  V30 56 H 2.586631 -0.785417 -4.333503 0
M  V30 57 H 0.375061 2.907292 -2.604766 0
M  V30 58 H 2.190838 3.025320 -2.783322 0
M  V30 59 H 1.630777 3.393697 -0.449163 0
M  V30 60 H -0.902032 3.265619 -0.988962 0
M  V30 61 H -4.280100 1.697504 1.437366 0
M  V30 62 H -5.344691 2.757703 0.517671 0
M  V30 63 H -6.673993 0.255874 0.742977 0
M  V30 64 H -6.564072 -0.556370 -2.142307 0
M  V30 65 H -7.324034 -1.548083 -0.904747 0
M  V30 66 H -5.670484 -2.825764 -1.959124 0
M  V30 67 H -4.355898 -1.704222 -1.619744 0
M  V30 68 H -6.156052 -3.287134 0.280544 0
M  V30 69 H -4.986303 -2.098973 0.902649 0
M  V30 70 H -3.128887 -3.264645 -0.215313 0
M  V30 71 H -4.229635 -4.494570 -0.898859 0
M  V30 72 H -4.913358 -5.161147 1.427847 0
M  V30 73 H -3.714705 -4.019104 2.034884 0
M  V30 74 H -3.054550 -6.431812 0.224098 0
M  V30 75 H -2.829342 -6.319300 2.003530 0
M  V30 76 H -0.969096 -5.245615 0.029402 0
M  V30 77 H 0.800275 -4.085480 -0.146909 0
M  V30 78 H 3.061827 -2.987929 -0.137539 0
M  V30 79 H 7.287717 -1.771517 1.602605 0
M  V30 80 H 7.521866 0.759276 2.905857 0
M  V30 81 H 6.261917 2.536493 4.020131 0
M  V30 82 H 3.763802 2.280727 4.245928 0
M  V30 83 H 2.704933 0.263229 3.331783 0
M  V30 84 H 2.358367 -1.998019 3.979120 0
M  V30 85 H 0.217803 -3.056186 3.915232 0
M  V30 86 H -2.532187 4.446826 -0.846975 0
M  V30 87 H -4.287955 4.618674 -0.571351 0
M  V30 88 H -3.764731 4.963413 -2.789469 0
M  V30 89 H -5.704826 3.140832 -2.041760 0
M  V30 90 H -5.562930 3.983722 -3.583877 0
M  V30 91 H -4.911141 2.339280 -3.499976 0
M  V30 92 H -1.718146 3.973189 -3.305058 0
M  V30 93 H -2.910803 3.124304 -4.316619 0
M  V30 94 H -2.318482 2.260254 -2.906151 0
M  V30 END ATOM
M  V30 BEGIN BOND
M  V30 1 1 1 2
M  V30 2 1 2 3
M  V30 3 2 3 4
M  V30 4 1 4 5
M  V30 5 2 5 6
M  V30 6 1 6 7
M  V30 7 2 7 8
M  V30 8 1 7 9
M  V30 9 1 9 10
M  V30 10 1 10 11
M  V30 11 1 11 12
M  V30 12 2 12 13
M  V30 13 1 12 14
M  V30 14 1 14 15
M  V30 15 2 15 16
M  V30 16 1 15 17
M  V30 17 1 17 18
M  V30 18 1 18 19
M  V30 19 2 19 20
M  V30 20 1 19 21
M  V30 21 1 21 22
M  V30 22 1 22 23
M  V30 23 1 23 24
M  V30 24 1 24 25
M  V30 25 1 25 26
M  V30 26 1 26 27
M  V30 27 1 27 28
M  V30 28 1 28 29
M  V30 29 2 29 30
M  V30 30 1 29 31
M  V30 31 2 31 32
M  V30 32 1 32 33
M  V30 33 2 33 34
M  V30 34 1 34 35
M  V30 35 2 35 36
M  V30 36 1 36 37
M  V30 37 1 37 38
M  V30 38 2 38 39
M  V30 39 1 39 40
M  V30 40 2 40 41
M  V30 41 1 41 42
M  V30 42 2 42 43
M  V30 43 1 34 44
M  V30 44 2 44 45
M  V30 45 1 17 46
M  V30 46 1 46 47
M  V30 47 1 47 48
M  V30 48 1 47 49
M  V30 49 1 11 50
M  V30 50 1 8 3
M  V30 51 1 45 31
M  V30 52 1 50 6
M  V30 53 1 43 35
M  V30 54 1 43 38
M  V30 55 1 1 51
M  V30 56 1 1 52
M  V30 57 1 1 53
M  V30 58 1 4 54
M  V30 59 1 5 55
M  V30 60 1 8 56
M  V30 61 1 10 57
M  V30 62 1 10 58
M  V30 63 1 11 59
M  V30 64 1 14 60
M  V30 65 1 18 61
M  V30 66 1 18 62
M  V30 67 1 21 63
M  V30 68 1 22 64
M  V30 69 1 22 65
M  V30 70 1 23 66
M  V30 71 1 23 67
M  V30 72 1 24 68
M  V30 73 1 24 69
M  V30 74 1 25 70
M  V30 75 1 25 71
M  V30 76 1 26 72
M  V30 77 1 26 73
M  V30 78 1 27 74
M  V30 79 1 27 75
M  V30 80 1 28 76
M  V30 81 1 32 77
M  V30 82 1 33 78
M  V30 83 1 37 79
M  V30 84 1 39 80
M  V30 85 1 40 81
M  V30 86 1 41 82
M  V30 87 1 42 83
M  V30 88 1 44 84
M  V30 89 1 45 85
M  V30 90 1 46 86
M  V30 91 1 46 87
M  V30 92 1 47 88
M  V30 93 1 48 89
M  V30 94 1 48 90
M  V30 95 1 48 91
M  V30 96 1 49 92
M  V30 97 1 49 93
M  V30 98 1 49 94
M  V30 END BOND
M  V30 END CTAB
M  END
>  <Dataset>  (520) 
ChEMBL_Kinases

>  <Ligand_Instance>  (520) 
nan

>  <PDB_ID>  (520) 
nan

>  <Standardized_SMILES>  (520) 
COc1ccc2c(c1)OCC(C(=O)NC(=O)N(CC(=O)NCCCCCCNC(=O)c1ccc(-c3n[nH]c4ccccc34)cc1)CC(C)C)O2

>  <Name>  (520) 
nan

>  <Pocket>  (520) 
nan

>  <ATP_Site>  (520) 
nan

>  <Peripheral>  (520) 
nan

>  <Num_H_Atoms_ProtBoundConf>  (520) 
nan

>  <Num_Resolved_Atoms>  (520) 
nan

>  <Num_Not_Resolved_Atoms>  (520) 
nan

$$$$
CHEMBL3969370
     RDKit          3D

  0  0  0  0  0  0  0  0  0  0999 V3000
M  V30 BEGIN CTAB
M  V30 COUNTS 67 71 0 0 0
M  V30 BEGIN ATOM
M  V30 1 C 10.833717 -4.329780 4.809225 0
M  V30 2 C 10.226594 -4.080505 3.662279 0
M  V30 3 C 8.876697 -3.504180 3.454712 0
M  V30 4 O 8.401758 -3.312412 2.310641 0
M  V30 5 N 8.201674 -3.201623 4.649546 0
M  V30 6 C 6.888035 -2.638759 4.436315 0
M  V30 7 C 5.730080 -3.381476 4.344733 0
M  V30 8 C 4.523081 -2.751996 4.133483 0
M  V30 9 C 4.429093 -1.381976 4.007764 0
M  V30 10 C 3.206983 -0.626310 3.776841 0
M  V30 11 O 3.222421 0.646182 3.678411 0
M  V30 12 N 1.931719 -1.187195 3.643573 0
M  V30 13 C 0.695750 -0.525002 3.420023 0
M  V30 14 C 0.335551 -0.400787 2.071311 0
M  V30 15 C -0.857142 0.241475 1.783320 0
M  V30 16 C -1.723703 0.771593 2.714123 0
M  V30 17 N -2.950251 1.415136 2.424941 0
M  V30 18 C -3.655654 1.400263 1.194822 0
M  V30 19 N -4.745531 2.181379 1.052177 0
M  V30 20 C -5.500264 2.241722 -0.052083 0
M  V30 21 C -5.176971 1.467496 -1.142651 0
M  V30 22 C -4.068057 0.661203 -1.018568 0
M  V30 23 N -3.356881 0.652800 0.120461 0
M  V30 24 N -3.552566 -0.237191 -1.998561 0
M  V30 25 C -2.546241 -1.183056 -1.552158 0
M  V30 26 C -3.869396 -0.377429 -3.383631 0
M  V30 27 C -3.023594 -1.184050 -4.113486 0
M  V30 28 C -3.247458 -1.387417 -5.466550 0
M  V30 29 C -4.296736 -0.815183 -6.153170 0
M  V30 30 C -4.444394 -1.101509 -7.599217 0
M  V30 31 C -5.123319 -0.010271 -5.378686 0
M  V30 32 C -4.927013 0.205518 -4.051367 0
M  V30 33 C -5.941880 1.091516 -3.483664 0
M  V30 34 O -6.846907 1.369638 -4.319387 0
M  V30 35 N -6.100119 1.687605 -2.196672 0
M  V30 36 C -7.248415 2.545671 -1.974704 0
M  V30 37 C -1.315022 0.618886 4.020586 0
M  V30 38 C -0.146683 -0.005615 4.390699 0
M  V30 39 C 5.626615 -0.666848 4.107323 0
M  V30 40 C 6.860530 -1.248916 4.317831 0
M  V30 41 H 11.827103 -4.755759 4.898794 0
M  V30 42 H 10.412405 -4.138804 5.786368 0
M  V30 43 H 10.783265 -4.327178 2.766835 0
M  V30 44 H 8.509368 -3.325530 5.639269 0
M  V30 45 H 5.810388 -4.434979 4.443997 0
M  V30 46 H 3.598219 -3.309721 4.058300 0
M  V30 47 H 1.871910 -2.245490 3.718522 0
M  V30 48 H 0.967050 -0.792746 1.266388 0
M  V30 49 H -1.104244 0.325165 0.734056 0
M  V30 50 H -3.386018 1.966838 3.206075 0
M  V30 51 H -6.359940 2.900557 -0.079573 0
M  V30 52 H -2.826272 -2.234866 -1.774750 0
M  V30 53 H -2.541841 -1.155489 -0.425104 0
M  V30 54 H -1.521249 -0.916656 -1.852865 0
M  V30 55 H -2.205707 -1.641507 -3.617139 0
M  V30 56 H -2.550999 -2.031474 -5.986717 0
M  V30 57 H -4.953123 -2.079556 -7.784624 0
M  V30 58 H -5.087472 -0.312092 -8.075346 0
M  V30 59 H -3.479981 -1.041949 -8.154872 0
M  V30 60 H -5.952183 0.441945 -5.919293 0
M  V30 61 H -7.925029 2.195807 -1.186176 0
M  V30 62 H -6.977875 3.620498 -1.922225 0
M  V30 63 H -7.866661 2.481063 -2.919055 0
M  V30 64 H -1.931625 1.004647 4.826061 0
M  V30 65 H 0.174329 -0.126767 5.409992 0
M  V30 66 H 5.637732 0.422580 4.020868 0
M  V30 67 H 7.763111 -0.647351 4.386403 0
M  V30 END ATOM
M  V30 BEGIN BOND
M  V30 1 2 1 2
M  V30 2 1 2 3
M  V30 3 2 3 4
M  V30 4 1 3 5
M  V30 5 1 5 6
M  V30 6 2 6 7
M  V30 7 1 7 8
M  V30 8 2 8 9
M  V30 9 1 9 10
M  V30 10 2 10 11
M  V30 11 1 10 12
M  V30 12 1 12 13
M  V30 13 2 13 14
M  V30 14 1 14 15
M  V30 15 2 15 16
M  V30 16 1 16 17
M  V30 17 1 17 18
M  V30 18 2 18 19
M  V30 19 1 19 20
M  V30 20 2 20 21
M  V30 21 1 21 22
M  V30 22 2 22 23
M  V30 23 1 22 24
M  V30 24 1 24 25
M  V30 25 1 24 26
M  V30 26 2 26 27
M  V30 27 1 27 28
M  V30 28 2 28 29
M  V30 29 1 29 30
M  V30 30 1 29 31
M  V30 31 2 31 32
M  V30 32 1 32 33
M  V30 33 2 33 34
M  V30 34 1 33 35
M  V30 35 1 35 36
M  V30 36 1 16 37
M  V30 37 2 37 38
M  V30 38 1 9 39
M  V30 39 2 39 40
M  V30 40 1 40 6
M  V30 41 1 38 13
M  V30 42 1 23 18
M  V30 43 1 32 26
M  V30 44 1 35 21
M  V30 45 1 1 41
M  V30 46 1 1 42
M  V30 47 1 2 43
M  V30 48 1 5 44
M  V30 49 1 7 45
M  V30 50 1 8 46
M  V30 51 1 12 47
M  V30 52 1 14 48
M  V30 53 1 15 49
M  V30 54 1 17 50
M  V30 55 1 20 51
M  V30 56 1 25 52
M  V30 57 1 25 53
M  V30 58 1 25 54
M  V30 59 1 27 55
M  V30 60 1 28 56
M  V30 61 1 30 57
M  V30 62 1 30 58
M  V30 63 1 30 59
M  V30 64 1 31 60
M  V30 65 1 36 61
M  V30 66 1 36 62
M  V30 67 1 36 63
M  V30 68 1 37 64
M  V30 69 1 38 65
M  V30 70 1 39 66
M  V30 71 1 40 67
M  V30 END BOND
M  V30 END CTAB
M  END
>  <Dataset>  (521) 
ChEMBL_Kinases

>  <Ligand_Instance>  (521) 
nan

>  <PDB_ID>  (521) 
nan

>  <Standardized_SMILES>  (521) 
C=CC(=O)Nc1ccc(C(=O)Nc2ccc(Nc3ncc4c(n3)N(C)c3ccc(C)cc3C(=O)N4C)cc2)cc1

>  <Name>  (521) 
nan

>  <Pocket>  (521) 
nan

>  <ATP_Site>  (521) 
nan

>  <Peripheral>  (521) 
nan

>  <Num_H_Atoms_ProtBoundConf>  (521) 
nan

>  <Num_Resolved_Atoms>  (521) 
nan

>  <Num_Not_Resolved_Atoms>  (521) 
nan

$$$$
CHEMBL1803067
     RDKit          3D

  0  0  0  0  0  0  0  0  0  0999 V3000
M  V30 BEGIN CTAB
M  V30 COUNTS 42 45 0 0 0
M  V30 BEGIN ATOM
M  V30 1 C 3.081597 -3.792672 2.185958 0
M  V30 2 N 2.556782 -2.562859 1.628780 0
M  V30 3 C 2.996456 -1.260800 2.005581 0
M  V30 4 O 3.884814 -1.021448 2.860658 0
M  V30 5 C 2.199433 -0.329508 1.193321 0
M  V30 6 C 2.339111 0.980667 1.270569 0
M  V30 7 C 1.522638 1.856768 0.441567 0
M  V30 8 C 0.197252 1.695168 0.098194 0
M  V30 9 C -0.483647 2.588836 -0.694775 0
M  V30 10 C 0.219108 3.684345 -1.150088 0
M  V30 11 C 1.544590 3.899142 -0.840403 0
M  V30 12 C 2.211047 2.981469 -0.037262 0
M  V30 13 O 1.891115 5.087122 -1.474203 0
M  V30 14 C 0.716270 5.828869 -1.788586 0
M  V30 15 O -0.200124 4.736495 -1.954471 0
M  V30 16 N 1.331518 -1.126873 0.380480 0
M  V30 17 C 1.555256 -2.383446 0.647039 0
M  V30 18 N 0.864307 -3.439027 0.005957 0
M  V30 19 C -0.515027 -3.385920 -0.426469 0
M  V30 20 C -1.379169 -3.193733 0.764191 0
M  V30 21 C -1.826460 -2.003264 1.295972 0
M  V30 22 C -2.625896 -1.953359 2.418537 0
M  V30 23 C -2.982245 -3.142168 3.018514 0
M  V30 24 C -2.553729 -4.351172 2.514177 0
M  V30 25 C -1.741187 -4.402948 1.373821 0
M  V30 26 H 2.300089 -4.320976 2.799301 0
M  V30 27 H 3.285485 -4.496242 1.337264 0
M  V30 28 H 3.958828 -3.605573 2.797929 0
M  V30 29 H 3.072705 1.403607 1.963026 0
M  V30 30 H -0.164907 0.784446 0.553163 0
M  V30 31 H -1.501206 2.358528 -0.891630 0
M  V30 32 H 3.246433 3.187749 0.180633 0
M  V30 33 H 0.819597 6.425858 -2.695945 0
M  V30 34 H 0.359156 6.365139 -0.895438 0
M  V30 35 H 1.412839 -4.334870 -0.163065 0
M  V30 36 H -0.637105 -2.522941 -1.115487 0
M  V30 37 H -0.777018 -4.279508 -1.004712 0
M  V30 38 H -1.447223 -1.197931 0.689494 0
M  V30 39 H -2.864538 -0.935826 2.670626 0
M  V30 40 H -3.608383 -3.017402 3.889888 0
M  V30 41 H -2.917038 -5.186981 3.095579 0
M  V30 42 H -1.476631 -5.409307 1.084026 0
M  V30 END ATOM
M  V30 BEGIN BOND
M  V30 1 1 1 2
M  V30 2 1 2 3
M  V30 3 2 3 4
M  V30 4 1 3 5
M  V30 5 2 5 6
M  V30 6 1 6 7
M  V30 7 2 7 8
M  V30 8 1 8 9
M  V30 9 2 9 10
M  V30 10 1 10 11
M  V30 11 2 11 12
M  V30 12 1 11 13
M  V30 13 1 13 14
M  V30 14 1 14 15
M  V30 15 1 5 16
M  V30 16 2 16 17
M  V30 17 1 17 18
M  V30 18 1 18 19
M  V30 19 1 19 20
M  V30 20 2 20 21
M  V30 21 1 21 22
M  V30 22 2 22 23
M  V30 23 1 23 24
M  V30 24 2 24 25
M  V30 25 1 17 2
M  V30 26 1 25 20
M  V30 27 1 12 7
M  V30 28 1 15 10
M  V30 29 1 1 26
M  V30 30 1 1 27
M  V30 31 1 1 28
M  V30 32 1 6 29
M  V30 33 1 8 30
M  V30 34 1 9 31
M  V30 35 1 12 32
M  V30 36 1 14 33
M  V30 37 1 14 34
M  V30 38 1 18 35
M  V30 39 1 19 36
M  V30 40 1 19 37
M  V30 41 1 21 38
M  V30 42 1 22 39
M  V30 43 1 23 40
M  V30 44 1 24 41
M  V30 45 1 25 42
M  V30 END BOND
M  V30 END CTAB
M  END
>  <Dataset>  (522) 
ChEMBL_Kinases

>  <Ligand_Instance>  (522) 
nan

>  <PDB_ID>  (522) 
nan

>  <Standardized_SMILES>  (522) 
CN1C(=O)/C(=C/c2ccc3c(c2)OCO3)N=C1NCc1ccccc1

>  <Name>  (522) 
nan

>  <Pocket>  (522) 
nan

>  <ATP_Site>  (522) 
nan

>  <Peripheral>  (522) 
nan

>  <Num_H_Atoms_ProtBoundConf>  (522) 
nan

>  <Num_Resolved_Atoms>  (522) 
nan

>  <Num_Not_Resolved_Atoms>  (522) 
nan

$$$$
CHEMBL4064608
     RDKit          3D

  0  0  0  0  0  0  0  0  0  0999 V3000
M  V30 BEGIN CTAB
M  V30 COUNTS 59 63 0 0 0
M  V30 BEGIN ATOM
M  V30 1 C 0.226014 -3.500333 3.871199 0
M  V30 2 N -0.025359 -2.501306 2.974301 0
M  V30 3 C -0.630023 -2.745220 1.803738 0
M  V30 4 N -0.858696 -1.639233 0.944572 0
M  V30 5 C -0.372803 -0.360119 1.419344 0 CFG=1
M  V30 6 C 1.128060 -0.427132 1.421197 0
M  V30 7 C 1.749176 0.801117 2.045192 0
M  V30 8 C 1.408682 1.958892 1.093253 0 CFG=2
M  V30 9 N 2.034740 3.180173 1.549137 0
M  V30 10 C 3.476519 3.025366 1.673987 0
M  V30 11 C 4.141926 2.792118 0.354618 0
M  V30 12 O 3.977559 3.956838 -0.393706 0
M  V30 13 C 2.601844 4.047416 -0.682192 0
M  V30 14 C 1.849707 4.259325 0.596146 0
M  V30 15 C -0.099048 2.054877 1.136564 0
M  V30 16 C -0.736406 0.819946 0.547198 0
M  V30 17 C -1.022637 -4.017656 1.457478 0
M  V30 18 C -1.650013 -4.551519 0.351212 0
M  V30 19 C -2.101821 -3.877339 -0.887307 0
M  V30 20 C -3.392956 -3.150719 -0.834223 0
M  V30 21 C -3.923160 -3.080767 -2.278601 0
M  V30 22 O -2.890209 -3.035799 -3.205203 0
M  V30 23 C -1.751289 -2.377189 -2.744420 0
M  V30 24 C -1.060459 -3.397754 -1.828256 0
M  V30 25 C -1.715367 -5.911579 0.728594 0
M  V30 26 N -1.187002 -6.156846 1.920539 0
M  V30 27 C -0.745285 -4.982886 2.397047 0
M  V30 28 N -0.145354 -4.756357 3.564847 0
M  V30 29 H 0.723596 -3.181678 4.790381 0
M  V30 30 H -1.282153 -1.417578 0.039299 0
M  V30 31 H -0.778681 -0.153451 2.443864 0
M  V30 32 H 1.591360 -1.315184 1.811355 0
M  V30 33 H 1.426325 -0.372772 0.331078 0
M  V30 34 H 1.330534 0.997004 3.052808 0
M  V30 35 H 2.828102 0.599589 2.098243 0
M  V30 36 H 1.751874 1.665619 0.091740 0
M  V30 37 H 3.832723 4.039797 2.020772 0
M  V30 38 H 3.785539 2.346339 2.485611 0
M  V30 39 H 5.218692 2.614887 0.556257 0
M  V30 40 H 3.738585 1.970989 -0.246931 0
M  V30 41 H 2.270618 3.139699 -1.208568 0
M  V30 42 H 2.412223 4.938854 -1.320094 0
M  V30 43 H 2.270863 5.170163 1.098751 0
M  V30 44 H 0.790889 4.421660 0.363630 0
M  V30 45 H -0.520986 2.963894 0.721078 0
M  V30 46 H -0.379118 2.045762 2.225623 0
M  V30 47 H -0.441885 0.644816 -0.506438 0
M  V30 48 H -1.821059 0.961808 0.553744 0
M  V30 49 H -2.471425 -4.807530 -1.475782 0
M  V30 50 H -3.432362 -2.129981 -0.507437 0
M  V30 51 H -4.093048 -3.770645 -0.231325 0
M  V30 52 H -4.644223 -2.250084 -2.406592 0
M  V30 53 H -4.454504 -4.044930 -2.438822 0
M  V30 54 H -1.145681 -2.140350 -3.633378 0
M  V30 55 H -2.020484 -1.451953 -2.240295 0
M  V30 56 H -0.664735 -4.157514 -2.550967 0
M  V30 57 H -0.140568 -2.980012 -1.378414 0
M  V30 58 H -2.161145 -6.696495 0.097614 0
M  V30 59 H -1.137337 -7.091974 2.376486 0
M  V30 END ATOM
M  V30 BEGIN BOND
M  V30 1 2 1 2
M  V30 2 1 2 3
M  V30 3 1 3 4
M  V30 4 1 4 5
M  V30 5 1 5 6
M  V30 6 1 6 7
M  V30 7 1 7 8
M  V30 8 1 8 9
M  V30 9 1 9 10
M  V30 10 1 10 11
M  V30 11 1 11 12
M  V30 12 1 12 13
M  V30 13 1 13 14
M  V30 14 1 8 15
M  V30 15 1 15 16
M  V30 16 2 3 17
M  V30 17 1 17 18
M  V30 18 1 18 19
M  V30 19 1 19 20
M  V30 20 1 20 21
M  V30 21 1 21 22
M  V30 22 1 22 23
M  V30 23 1 23 24
M  V30 24 2 18 25
M  V30 25 1 25 26
M  V30 26 1 26 27
M  V30 27 2 27 28
M  V30 28 1 28 1
M  V30 29 1 16 5
M  V30 30 1 27 17
M  V30 31 1 14 9
M  V30 32 1 24 19
M  V30 33 1 1 29
M  V30 34 1 4 30
M  V30 35 1 5 31 CFG=1
M  V30 36 1 6 32
M  V30 37 1 6 33
M  V30 38 1 7 34
M  V30 39 1 7 35
M  V30 40 1 8 36 CFG=3
M  V30 41 1 10 37
M  V30 42 1 10 38
M  V30 43 1 11 39
M  V30 44 1 11 40
M  V30 45 1 13 41
M  V30 46 1 13 42
M  V30 47 1 14 43
M  V30 48 1 14 44
M  V30 49 1 15 45
M  V30 50 1 15 46
M  V30 51 1 16 47
M  V30 52 1 16 48
M  V30 53 1 19 49
M  V30 54 1 20 50
M  V30 55 1 20 51
M  V30 56 1 21 52
M  V30 57 1 21 53
M  V30 58 1 23 54
M  V30 59 1 23 55
M  V30 60 1 24 56
M  V30 61 1 24 57
M  V30 62 1 25 58
M  V30 63 1 26 59
M  V30 END BOND
M  V30 END CTAB
M  END
>  <Dataset>  (523) 
ChEMBL_Kinases

>  <Ligand_Instance>  (523) 
nan

>  <PDB_ID>  (523) 
nan

>  <Standardized_SMILES>  (523) 
c1nc(N[C@H]2CC[C@H](N3CCOCC3)CC2)c2c(C3CCOCC3)c[nH]c2n1

>  <Name>  (523) 
nan

>  <Pocket>  (523) 
nan

>  <ATP_Site>  (523) 
nan

>  <Peripheral>  (523) 
nan

>  <Num_H_Atoms_ProtBoundConf>  (523) 
nan

>  <Num_Resolved_Atoms>  (523) 
nan

>  <Num_Not_Resolved_Atoms>  (523) 
nan

$$$$
CHEMBL4206831
     RDKit          3D

  0  0  0  0  0  0  0  0  0  0999 V3000
M  V30 BEGIN CTAB
M  V30 COUNTS 69 73 0 0 0
M  V30 BEGIN ATOM
M  V30 1 C 5.222681 -9.235975 2.746773 0
M  V30 2 C 6.446123 -8.754440 2.013703 0
M  V30 3 C 6.212520 -7.332653 1.615140 0
M  V30 4 O 5.043034 -7.221825 2.084214 0
M  V30 5 N 7.050116 -6.414415 0.928804 0
M  V30 6 C 6.301379 -5.192866 0.823992 0
M  V30 7 C 6.324618 -4.203251 1.758385 0
M  V30 8 C 5.581624 -3.056551 1.597351 0
M  V30 9 C 4.818677 -2.955727 0.456771 0
M  V30 10 C 3.953865 -1.808270 0.106914 0
M  V30 11 O 3.256763 -1.662664 -0.937803 0
M  V30 12 N 3.799771 -0.670883 0.959486 0
M  V30 13 C 2.918591 0.282482 0.390071 0
M  V30 14 C 3.410143 1.284795 -0.415549 0
M  V30 15 C 2.561035 2.210532 -0.971246 0
M  V30 16 C 1.198541 2.207332 -0.772107 0
M  V30 17 N 0.369748 3.182874 -1.360840 0
M  V30 18 C -1.043254 3.300689 -1.327790 0
M  V30 19 N -1.625649 4.347035 -1.948971 0
M  V30 20 C -2.946564 4.558737 -1.989090 0
M  V30 21 C -3.779640 3.661471 -1.362262 0
M  V30 22 C -3.207050 2.584978 -0.721641 0
M  V30 23 N -1.874653 2.440148 -0.724538 0
M  V30 24 N -3.903717 1.568156 -0.031011 0
M  V30 25 C -3.166832 0.351331 0.168711 0
M  V30 26 C -5.228964 1.542947 0.504598 0
M  V30 27 C -5.426910 0.573348 1.475409 0
M  V30 28 C -6.673814 0.462228 2.057270 0
M  V30 29 C -7.711562 1.292736 1.689631 0
M  V30 30 C -9.027111 1.099663 2.372439 0
M  V30 31 C -7.493323 2.250416 0.722255 0
M  V30 32 C -6.265546 2.400210 0.112247 0
M  V30 33 C -6.254332 3.478683 -0.887004 0
M  V30 34 O -7.372786 3.926554 -1.218027 0
M  V30 35 N -5.123968 4.090697 -1.538493 0
M  V30 36 C -5.362623 5.197000 -2.415973 0
M  V30 37 C 0.776688 1.181321 0.041036 0
M  V30 38 C 1.556792 0.214113 0.637104 0
M  V30 39 C 4.782445 -3.949125 -0.501909 0
M  V30 40 C 5.527508 -5.096284 -0.338217 0
M  V30 41 H 5.152413 -8.779323 3.773505 0
M  V30 42 H 4.282859 -9.107175 2.208230 0
M  V30 43 H 5.337247 -10.341407 2.891423 0
M  V30 44 H 7.331425 -8.910186 2.625215 0
M  V30 45 H 6.499658 -9.387077 1.084811 0
M  V30 46 H 7.968383 -6.845065 0.682969 0
M  V30 47 H 6.928830 -4.325036 2.627821 0
M  V30 48 H 5.547172 -2.239907 2.281890 0
M  V30 49 H 4.329285 -0.649140 1.883735 0
M  V30 50 H 4.477354 1.356584 -0.621939 0
M  V30 51 H 3.010458 2.982619 -1.603757 0
M  V30 52 H 0.888902 3.935412 -1.905876 0
M  V30 53 H -3.245543 5.429238 -2.518379 0
M  V30 54 H -2.645798 0.272318 1.134754 0
M  V30 55 H -2.353102 0.291493 -0.614718 0
M  V30 56 H -3.782723 -0.564487 -0.077653 0
M  V30 57 H -4.577976 -0.050433 1.723694 0
M  V30 58 H -6.792828 -0.308791 2.814151 0
M  V30 59 H -9.248703 0.016245 2.396784 0
M  V30 60 H -9.808534 1.665489 1.807304 0
M  V30 61 H -9.009796 1.505527 3.420667 0
M  V30 62 H -8.326708 2.904470 0.438838 0
M  V30 63 H -5.011895 5.032623 -3.452873 0
M  V30 64 H -6.478382 5.284252 -2.529328 0
M  V30 65 H -5.066850 6.174426 -1.981920 0
M  V30 66 H -0.273987 1.078583 0.269493 0
M  V30 67 H 1.158598 -0.562260 1.263752 0
M  V30 68 H 4.185893 -3.903319 -1.424864 0
M  V30 69 H 5.508821 -5.896995 -1.093239 0
M  V30 END ATOM
M  V30 BEGIN BOND
M  V30 1 1 1 2
M  V30 2 1 2 3
M  V30 3 2 3 4
M  V30 4 1 3 5
M  V30 5 1 5 6
M  V30 6 2 6 7
M  V30 7 1 7 8
M  V30 8 2 8 9
M  V30 9 1 9 10
M  V30 10 2 10 11
M  V30 11 1 10 12
M  V30 12 1 12 13
M  V30 13 2 13 14
M  V30 14 1 14 15
M  V30 15 2 15 16
M  V30 16 1 16 17
M  V30 17 1 17 18
M  V30 18 2 18 19
M  V30 19 1 19 20
M  V30 20 2 20 21
M  V30 21 1 21 22
M  V30 22 2 22 23
M  V30 23 1 22 24
M  V30 24 1 24 25
M  V30 25 1 24 26
M  V30 26 2 26 27
M  V30 27 1 27 28
M  V30 28 2 28 29
M  V30 29 1 29 30
M  V30 30 1 29 31
M  V30 31 2 31 32
M  V30 32 1 32 33
M  V30 33 2 33 34
M  V30 34 1 33 35
M  V30 35 1 35 36
M  V30 36 1 16 37
M  V30 37 2 37 38
M  V30 38 1 9 39
M  V30 39 2 39 40
M  V30 40 1 40 6
M  V30 41 1 38 13
M  V30 42 1 23 18
M  V30 43 1 32 26
M  V30 44 1 35 21
M  V30 45 1 1 41
M  V30 46 1 1 42
M  V30 47 1 1 43
M  V30 48 1 2 44
M  V30 49 1 2 45
M  V30 50 1 5 46
M  V30 51 1 7 47
M  V30 52 1 8 48
M  V30 53 1 12 49
M  V30 54 1 14 50
M  V30 55 1 15 51
M  V30 56 1 17 52
M  V30 57 1 20 53
M  V30 58 1 25 54
M  V30 59 1 25 55
M  V30 60 1 25 56
M  V30 61 1 27 57
M  V30 62 1 28 58
M  V30 63 1 30 59
M  V30 64 1 30 60
M  V30 65 1 30 61
M  V30 66 1 31 62
M  V30 67 1 36 63
M  V30 68 1 36 64
M  V30 69 1 36 65
M  V30 70 1 37 66
M  V30 71 1 38 67
M  V30 72 1 39 68
M  V30 73 1 40 69
M  V30 END BOND
M  V30 END CTAB
M  END
>  <Dataset>  (524) 
ChEMBL_Kinases

>  <Ligand_Instance>  (524) 
nan

>  <PDB_ID>  (524) 
nan

>  <Standardized_SMILES>  (524) 
CCC(=O)Nc1ccc(C(=O)Nc2ccc(Nc3ncc4c(n3)N(C)c3ccc(C)cc3C(=O)N4C)cc2)cc1

>  <Name>  (524) 
nan

>  <Pocket>  (524) 
nan

>  <ATP_Site>  (524) 
nan

>  <Peripheral>  (524) 
nan

>  <Num_H_Atoms_ProtBoundConf>  (524) 
nan

>  <Num_Resolved_Atoms>  (524) 
nan

>  <Num_Not_Resolved_Atoms>  (524) 
nan

$$$$
CHEMBL5086749
     RDKit          3D

  0  0  0  0  0  0  0  0  0  0999 V3000
M  V30 BEGIN CTAB
M  V30 COUNTS 57 61 0 0 0
M  V30 BEGIN ATOM
M  V30 1 O 4.851040 -4.184559 0.681550 0
M  V30 2 S 4.828980 -3.171870 -0.454751 0
M  V30 3 O 6.207159 -2.992408 -0.979522 0
M  V30 4 N 4.201825 -1.696059 0.161335 0
M  V30 5 C 2.919151 -1.880255 0.773780 0
M  V30 6 C 2.440967 -0.540271 1.286791 0
M  V30 7 C 2.307431 0.470827 0.173567 0
M  V30 8 N 1.852915 1.769986 0.628876 0
M  V30 9 C 0.608279 1.973162 1.288703 0
M  V30 10 N 0.202706 3.190631 1.696824 0
M  V30 11 C -0.961422 3.431893 2.323072 0
M  V30 12 C -1.802999 2.366148 2.567944 0
M  V30 13 C -1.432025 1.097234 2.168440 0
M  V30 14 C -2.235668 -0.131761 2.359246 0
M  V30 15 C -3.384020 -0.269380 1.613714 0
M  V30 16 C -4.119510 0.475995 0.604672 0
M  V30 17 C -4.204992 -0.149371 -0.645612 0
M  V30 18 C -4.852680 0.377567 -1.740565 0
M  V30 19 C -5.460476 1.606857 -1.598782 0
M  V30 20 C -5.396414 2.258663 -0.369888 0
M  V30 21 O -6.000729 3.507107 -0.187361 0
M  V30 22 C -4.740450 1.702772 0.703949 0
M  V30 23 N -3.909113 -1.449374 1.981491 0
M  V30 24 C -3.090523 -1.982888 2.913578 0
M  V30 25 S -2.857909 -3.387112 3.973422 0
M  V30 26 C -1.298022 -2.760642 4.707555 0
M  V30 27 C -1.128273 -1.536865 4.054021 0
M  V30 28 N -2.066150 -1.200681 3.160232 0
M  V30 29 N -0.244758 0.969460 1.549740 0
M  V30 30 C 3.739646 -3.768659 -1.683034 0
M  V30 31 C 2.653126 -4.596018 -1.497295 0
M  V30 32 C 1.912525 -4.961303 -2.595706 0
M  V30 33 C 2.194401 -4.546805 -3.875953 0
M  V30 34 C 3.285304 -3.717361 -4.053667 0
M  V30 35 F 3.535614 -3.326315 -5.334674 0
M  V30 36 C 4.043116 -3.338769 -2.959649 0
M  V30 37 H 4.869773 -1.202422 0.780313 0
M  V30 38 H 2.218736 -2.258064 0.010884 0
M  V30 39 H 2.940208 -2.576232 1.617838 0
M  V30 40 H 1.432893 -0.700123 1.718227 0
M  V30 41 H 3.100423 -0.176202 2.098685 0
M  V30 42 H 3.332269 0.596434 -0.246418 0
M  V30 43 H 1.624801 0.056759 -0.597790 0
M  V30 44 H 2.452036 2.636678 0.480038 0
M  V30 45 H -1.255300 4.420838 2.636527 0
M  V30 46 H -2.757080 2.458136 3.067657 0
M  V30 47 H -3.746615 -1.120009 -0.822452 0
M  V30 48 H -4.892224 -0.143410 -2.687305 0
M  V30 49 H -5.976466 2.052013 -2.430331 0
M  V30 50 H -6.218787 4.044392 -1.013881 0
M  V30 51 H -4.660635 2.157369 1.674374 0
M  V30 52 H -0.738396 -3.284942 5.446526 0
M  V30 53 H -0.237242 -1.013644 4.368617 0
M  V30 54 H 2.475833 -4.892205 -0.473291 0
M  V30 55 H 1.063233 -5.614437 -2.412904 0
M  V30 56 H 1.563819 -4.875385 -4.705734 0
M  V30 57 H 4.872683 -2.688874 -3.214534 0
M  V30 END ATOM
M  V30 BEGIN BOND
M  V30 1 2 1 2
M  V30 2 2 2 3
M  V30 3 1 2 4
M  V30 4 1 4 5
M  V30 5 1 5 6
M  V30 6 1 6 7
M  V30 7 1 7 8
M  V30 8 1 8 9
M  V30 9 2 9 10
M  V30 10 1 10 11
M  V30 11 2 11 12
M  V30 12 1 12 13
M  V30 13 1 13 14
M  V30 14 2 14 15
M  V30 15 1 15 16
M  V30 16 2 16 17
M  V30 17 1 17 18
M  V30 18 2 18 19
M  V30 19 1 19 20
M  V30 20 1 20 21
M  V30 21 2 20 22
M  V30 22 1 15 23
M  V30 23 2 23 24
M  V30 24 1 24 25
M  V30 25 1 25 26
M  V30 26 2 26 27
M  V30 27 1 27 28
M  V30 28 2 13 29
M  V30 29 1 2 30
M  V30 30 2 30 31
M  V30 31 1 31 32
M  V30 32 2 32 33
M  V30 33 1 33 34
M  V30 34 1 34 35
M  V30 35 2 34 36
M  V30 36 1 29 9
M  V30 37 1 36 30
M  V30 38 1 28 14
M  V30 39 1 22 16
M  V30 40 1 28 24
M  V30 41 1 4 37
M  V30 42 1 5 38
M  V30 43 1 5 39
M  V30 44 1 6 40
M  V30 45 1 6 41
M  V30 46 1 7 42
M  V30 47 1 7 43
M  V30 48 1 8 44
M  V30 49 1 11 45
M  V30 50 1 12 46
M  V30 51 1 17 47
M  V30 52 1 18 48
M  V30 53 1 19 49
M  V30 54 1 21 50
M  V30 55 1 22 51
M  V30 56 1 26 52
M  V30 57 1 27 53
M  V30 58 1 31 54
M  V30 59 1 32 55
M  V30 60 1 33 56
M  V30 61 1 36 57
M  V30 END BOND
M  V30 END CTAB
M  END
>  <Dataset>  (525) 
ChEMBL_Kinases

>  <Ligand_Instance>  (525) 
nan

>  <PDB_ID>  (525) 
nan

>  <Standardized_SMILES>  (525) 
O=S(=O)(NCCCNc1nccc(-c2c(-c3cccc(O)c3)nc3sccn23)n1)c1cccc(F)c1

>  <Name>  (525) 
nan

>  <Pocket>  (525) 
nan

>  <ATP_Site>  (525) 
nan

>  <Peripheral>  (525) 
nan

>  <Num_H_Atoms_ProtBoundConf>  (525) 
nan

>  <Num_Resolved_Atoms>  (525) 
nan

>  <Num_Not_Resolved_Atoms>  (525) 
nan

$$$$
CHEMBL303205
     RDKit          3D

  0  0  0  0  0  0  0  0  0  0999 V3000
M  V30 BEGIN CTAB
M  V30 COUNTS 67 70 0 0 0
M  V30 BEGIN ATOM
M  V30 1 O 5.715254 0.718336 1.396011 0
M  V30 2 C 4.873061 0.581817 2.305392 0
M  V30 3 N 3.587012 0.217428 1.840879 0
M  V30 4 C 3.293711 0.025225 0.435108 0 CFG=1
M  V30 5 C 2.784049 -1.327348 0.081601 0
M  V30 6 S 2.941349 -1.601425 -1.653796 0
M  V30 7 O 4.311946 -2.121118 -2.017362 0
M  V30 8 O 1.932444 -2.665148 -2.028267 0
M  V30 9 C 2.592357 -0.187733 -2.629700 0
M  V30 10 C 3.343340 1.045936 -2.260178 0
M  V30 11 C 2.713485 1.865143 -1.164336 0
M  V30 12 C 2.248260 1.045647 -0.007168 0 CFG=1
M  V30 13 O 1.044246 0.400647 -0.362784 0
M  V30 14 C -0.158915 0.593369 0.245593 0
M  V30 15 O -0.112777 1.416128 1.178620 0
M  V30 16 C -1.371152 -0.099237 -0.162913 0
M  V30 17 C -1.283578 -0.980220 -1.212602 0
M  V30 18 C -2.416018 -1.665252 -1.633411 0
M  V30 19 O -2.189976 -2.535612 -2.716957 0
M  V30 20 C -3.649953 -1.507523 -1.043399 0
M  V30 21 C -4.780123 -2.186042 -1.562306 0
M  V30 22 O -4.541658 -2.422586 -2.796601 0
M  V30 23 C -6.059095 -2.687974 -1.208355 0
M  V30 24 C -6.987076 -2.839717 -2.248828 0
M  V30 25 O -6.767510 -2.494151 -3.593103 0
M  V30 26 C -8.236448 -3.365656 -1.997077 0
M  V30 27 C -8.621322 -3.756293 -0.747398 0
M  V30 28 C -7.777372 -3.644907 0.323629 0
M  V30 29 C -6.551225 -3.116995 0.009319 0
M  V30 30 C -5.587424 -3.087626 1.103704 0
M  V30 31 O -5.925347 -3.461868 2.283278 0
M  V30 32 O -4.670370 -3.050787 2.106864 0
M  V30 33 C -3.669593 -0.609353 -0.000559 0
M  V30 34 O -4.788041 -0.267241 0.742998 0
M  V30 35 C -2.581809 0.097931 0.462176 0
M  V30 36 C 5.158117 0.773545 3.726707 0
M  V30 37 C 4.228944 0.624979 4.735926 0
M  V30 38 C 4.572832 0.823205 6.056785 0
M  V30 39 C 5.881266 1.180203 6.384279 0
M  V30 40 O 6.222904 1.378078 7.708547 0
M  V30 41 C 6.792773 1.323683 5.367134 0
M  V30 42 C 6.476206 1.131402 4.034965 0
M  V30 43 H 2.789030 0.070602 2.498471 0
M  V30 44 H 4.197020 0.199614 -0.201590 0
M  V30 45 H 1.682811 -1.324876 0.328445 0
M  V30 46 H 3.215225 -2.156609 0.630244 0
M  V30 47 H 1.524106 0.054250 -2.722994 0
M  V30 48 H 2.913776 -0.448370 -3.678377 0
M  V30 49 H 3.308977 1.712543 -3.172292 0
M  V30 50 H 4.428572 0.864392 -2.115343 0
M  V30 51 H 3.522079 2.544661 -0.796537 0
M  V30 52 H 1.863646 2.414765 -1.575916 0
M  V30 53 H 2.037631 1.731628 0.844977 0
M  V30 54 H -0.320115 -1.125577 -1.698251 0
M  V30 55 H -1.597476 -2.303842 -3.483497 0
M  V30 56 H -6.398610 -3.173470 -4.231998 0
M  V30 57 H -8.970133 -3.494819 -2.774867 0
M  V30 58 H -9.605175 -4.162802 -0.577414 0
M  V30 59 H -8.039255 -3.940332 1.324544 0
M  V30 60 H -3.688329 -2.755335 1.947253 0
M  V30 61 H -5.353176 0.543998 0.557588 0
M  V30 62 H -2.542430 0.806565 1.269999 0
M  V30 63 H 3.226075 0.349963 4.470623 0
M  V30 64 H 3.859115 0.711939 6.861939 0
M  V30 65 H 6.953235 1.968606 8.033536 0
M  V30 66 H 7.806309 1.601232 5.633386 0
M  V30 67 H 7.211081 1.250169 3.250430 0
M  V30 END ATOM
M  V30 BEGIN BOND
M  V30 1 2 1 2
M  V30 2 1 2 3
M  V30 3 1 3 4
M  V30 4 1 4 5
M  V30 5 1 5 6
M  V30 6 2 6 7
M  V30 7 2 6 8
M  V30 8 1 6 9
M  V30 9 1 9 10
M  V30 10 1 10 11
M  V30 11 1 11 12
M  V30 12 1 12 13
M  V30 13 1 13 14
M  V30 14 2 14 15
M  V30 15 1 14 16
M  V30 16 2 16 17
M  V30 17 1 17 18
M  V30 18 1 18 19
M  V30 19 2 18 20
M  V30 20 1 20 21
M  V30 21 2 21 22
M  V30 22 1 21 23
M  V30 23 2 23 24
M  V30 24 1 24 25
M  V30 25 1 24 26
M  V30 26 2 26 27
M  V30 27 1 27 28
M  V30 28 2 28 29
M  V30 29 1 29 30
M  V30 30 2 30 31
M  V30 31 1 30 32
M  V30 32 1 20 33
M  V30 33 1 33 34
M  V30 34 2 33 35
M  V30 35 1 2 36
M  V30 36 2 36 37
M  V30 37 1 37 38
M  V30 38 2 38 39
M  V30 39 1 39 40
M  V30 40 1 39 41
M  V30 41 2 41 42
M  V30 42 1 12 4
M  V30 43 1 35 16
M  V30 44 1 42 36
M  V30 45 1 29 23
M  V30 46 1 3 43
M  V30 47 1 4 44 CFG=3
M  V30 48 1 5 45
M  V30 49 1 5 46
M  V30 50 1 9 47
M  V30 51 1 9 48
M  V30 52 1 10 49
M  V30 53 1 10 50
M  V30 54 1 11 51
M  V30 55 1 11 52
M  V30 56 1 12 53 CFG=1
M  V30 57 1 17 54
M  V30 58 1 19 55
M  V30 59 1 25 56
M  V30 60 1 26 57
M  V30 61 1 27 58
M  V30 62 1 28 59
M  V30 63 1 32 60
M  V30 64 1 34 61
M  V30 65 1 35 62
M  V30 66 1 37 63
M  V30 67 1 38 64
M  V30 68 1 40 65
M  V30 69 1 41 66
M  V30 70 1 42 67
M  V30 END BOND
M  V30 END CTAB
M  END
>  <Dataset>  (526) 
ChEMBL_Kinases

>  <Ligand_Instance>  (526) 
nan

>  <PDB_ID>  (526) 
nan

>  <Standardized_SMILES>  (526) 
O=C(N[C@H]1CS(=O)(=O)CCC[C@H]1OC(=O)c1cc(O)c(C(=O)c2c(O)cccc2C(=O)O)c(O)c1)c1ccc(O)cc1

>  <Name>  (526) 
nan

>  <Pocket>  (526) 
nan

>  <ATP_Site>  (526) 
nan

>  <Peripheral>  (526) 
nan

>  <Num_H_Atoms_ProtBoundConf>  (526) 
nan

>  <Num_Resolved_Atoms>  (526) 
nan

>  <Num_Not_Resolved_Atoms>  (526) 
nan

$$$$
CHEMBL567331
     RDKit          3D

  0  0  0  0  0  0  0  0  0  0999 V3000
M  V30 BEGIN CTAB
M  V30 COUNTS 41 45 0 0 0
M  V30 BEGIN ATOM
M  V30 1 C 2.156259 -5.541859 3.053612 0
M  V30 2 C 0.843349 -5.988523 3.303235 0
M  V30 3 S -0.100301 -5.483165 1.810378 0
M  V30 4 C 1.333921 -4.722161 0.984911 0
M  V30 5 C 1.255269 -4.099574 -0.310118 0
M  V30 6 N 0.942428 -2.681134 -0.231308 0
M  V30 7 C 0.827522 -1.922927 -1.438548 0
M  V30 8 N 1.008124 -2.535142 -2.619402 0
M  V30 9 C 0.916181 -1.892786 -3.795015 0
M  V30 10 N 0.629403 -0.564829 -3.832436 0
M  V30 11 C 0.435924 0.113035 -2.686819 0
M  V30 12 C 0.141139 1.471745 -2.654946 0
M  V30 13 C -0.056631 2.167796 -1.468460 0
M  V30 14 C 0.050208 1.451325 -0.271290 0
M  V30 15 C -0.152959 2.165306 0.984801 0
M  V30 16 C 0.183372 3.493084 1.154079 0
M  V30 17 C -0.030249 4.133013 2.373776 0
M  V30 18 C -0.591099 3.429882 3.443227 0
M  V30 19 C -0.922043 2.085722 3.243040 0
M  V30 20 C -0.710540 1.442572 2.027178 0
M  V30 21 O -1.461179 1.605220 4.445022 0
M  V30 22 C -1.923620 2.743402 5.188779 0
M  V30 23 O -0.946145 3.702628 4.762843 0
M  V30 24 C 0.343432 0.106099 -0.334353 0
M  V30 25 C 0.536966 -0.573690 -1.499507 0
M  V30 26 C 2.377126 -4.898159 1.860561 0
M  V30 27 H 2.921487 -5.719537 3.794560 0
M  V30 28 H 0.481824 -6.490910 4.139163 0
M  V30 29 H 0.416588 -4.575811 -0.873223 0
M  V30 30 H 2.150909 -4.280929 -0.943960 0
M  V30 31 H 0.820703 -2.307785 0.726152 0
M  V30 32 H 1.073898 -2.450768 -4.717971 0
M  V30 33 H 0.072318 1.966625 -3.620318 0
M  V30 34 H -0.283248 3.223548 -1.499696 0
M  V30 35 H 0.617909 4.045502 0.330536 0
M  V30 36 H 0.222224 5.171857 2.538360 0
M  V30 37 H -0.980846 0.415168 1.927780 0
M  V30 38 H -1.876080 2.535221 6.256573 0
M  V30 39 H -2.920011 3.039751 4.818634 0
M  V30 40 H 0.405725 -0.358967 0.617653 0
M  V30 41 H 3.343577 -4.515892 1.567599 0
M  V30 END ATOM
M  V30 BEGIN BOND
M  V30 1 2 1 2
M  V30 2 1 2 3
M  V30 3 1 3 4
M  V30 4 1 4 5
M  V30 5 1 5 6
M  V30 6 1 6 7
M  V30 7 2 7 8
M  V30 8 1 8 9
M  V30 9 2 9 10
M  V30 10 1 10 11
M  V30 11 2 11 12
M  V30 12 1 12 13
M  V30 13 2 13 14
M  V30 14 1 14 15
M  V30 15 2 15 16
M  V30 16 1 16 17
M  V30 17 2 17 18
M  V30 18 1 18 19
M  V30 19 2 19 20
M  V30 20 1 19 21
M  V30 21 1 21 22
M  V30 22 1 22 23
M  V30 23 1 14 24
M  V30 24 2 24 25
M  V30 25 2 4 26
M  V30 26 1 26 1
M  V30 27 1 25 7
M  V30 28 1 25 11
M  V30 29 1 20 15
M  V30 30 1 23 18
M  V30 31 1 1 27
M  V30 32 1 2 28
M  V30 33 1 5 29
M  V30 34 1 5 30
M  V30 35 1 6 31
M  V30 36 1 9 32
M  V30 37 1 12 33
M  V30 38 1 13 34
M  V30 39 1 16 35
M  V30 40 1 17 36
M  V30 41 1 20 37
M  V30 42 1 22 38
M  V30 43 1 22 39
M  V30 44 1 24 40
M  V30 45 1 26 41
M  V30 END BOND
M  V30 END CTAB
M  END
>  <Dataset>  (527) 
ChEMBL_Kinases

>  <Ligand_Instance>  (527) 
nan

>  <PDB_ID>  (527) 
nan

>  <Standardized_SMILES>  (527) 
c1csc(CNc2ncnc3ccc(-c4ccc5c(c4)OCO5)cc23)c1

>  <Name>  (527) 
nan

>  <Pocket>  (527) 
nan

>  <ATP_Site>  (527) 
nan

>  <Peripheral>  (527) 
nan

>  <Num_H_Atoms_ProtBoundConf>  (527) 
nan

>  <Num_Resolved_Atoms>  (527) 
nan

>  <Num_Not_Resolved_Atoms>  (527) 
nan

$$$$
CHEMBL383541
     RDKit          3D

  0  0  0  0  0  0  0  0  0  0999 V3000
M  V30 BEGIN CTAB
M  V30 COUNTS 50 53 0 0 0
M  V30 BEGIN ATOM
M  V30 1 N -0.418924 -1.180614 0.190672 0
M  V30 2 C -0.299462 -2.236281 -0.744813 0 CFG=2
M  V30 3 C 0.827039 -2.102846 -1.734805 0
M  V30 4 O 2.097411 -2.032304 -1.263761 0
M  V30 5 C 2.837953 -1.214523 -0.495105 0
M  V30 6 C 4.096248 -1.855307 -0.452472 0
M  V30 7 N 5.139958 -1.307293 0.253991 0
M  V30 8 C 4.996413 -0.150428 0.922440 0
M  V30 9 C 3.789514 0.509629 0.908895 0
M  V30 10 C 3.559159 1.766077 1.604738 0
M  V30 11 C 2.459514 2.488317 1.669205 0
M  V30 12 C 2.289399 3.744624 2.385569 0
M  V30 13 C 1.041859 4.375193 2.345636 0
M  V30 14 C 0.835512 5.571111 3.011103 0
M  V30 15 N 1.847996 6.145183 3.712007 0
M  V30 16 C 3.050932 5.535588 3.749566 0
M  V30 17 C 3.299207 4.348291 3.103767 0
M  V30 18 C 2.748374 -0.038321 0.203319 0
M  V30 19 C -1.580870 -2.208179 -1.599962 0
M  V30 20 C -2.793693 -2.397168 -0.800866 0
M  V30 21 C -3.666270 -1.388699 -0.448778 0
M  V30 22 N -4.664159 -1.945818 0.288140 0
M  V30 23 C -4.413959 -3.260882 0.387637 0
M  V30 24 C -5.117465 -4.262608 1.025411 0
M  V30 25 C -4.663700 -5.554722 0.991705 0
M  V30 26 C -3.500274 -5.827929 0.313055 0
M  V30 27 C -2.746455 -4.885289 -0.345054 0
M  V30 28 C -3.250227 -3.590974 -0.280381 0
M  V30 29 H -1.284968 -0.600546 0.122146 0
M  V30 30 H -0.315311 -1.457828 1.189026 0
M  V30 31 H -0.280026 -3.249065 -0.254860 0
M  V30 32 H 0.525686 -1.205459 -2.371878 0
M  V30 33 H 0.723030 -2.949996 -2.472192 0
M  V30 34 H 4.504043 -2.784545 -0.886572 0
M  V30 35 H 5.779356 0.324121 1.491293 0
M  V30 36 H 4.415745 2.156841 2.143487 0
M  V30 37 H 1.622829 2.076415 1.124507 0
M  V30 38 H 0.229569 3.900518 1.773680 0
M  V30 39 H -0.180247 5.976048 2.911281 0
M  V30 40 H 3.787623 6.058703 4.324077 0
M  V30 41 H 4.280281 3.899546 3.164234 0
M  V30 42 H 1.770396 0.360175 0.090945 0
M  V30 43 H -1.544961 -2.955830 -2.416933 0
M  V30 44 H -1.605088 -1.212177 -2.128402 0
M  V30 45 H -3.578766 -0.335366 -0.709858 0
M  V30 46 H -5.447866 -1.374534 0.669317 0
M  V30 47 H -6.042424 -4.030040 1.562400 0
M  V30 48 H -5.242125 -6.300374 1.500914 0
M  V30 49 H -3.172077 -6.850475 0.305835 0
M  V30 50 H -1.844208 -5.131397 -0.864043 0
M  V30 END ATOM
M  V30 BEGIN BOND
M  V30 1 1 1 2
M  V30 2 1 2 3
M  V30 3 1 3 4
M  V30 4 1 4 5
M  V30 5 2 5 6
M  V30 6 1 6 7
M  V30 7 2 7 8
M  V30 8 1 8 9
M  V30 9 1 9 10
M  V30 10 2 10 11
M  V30 11 1 11 12
M  V30 12 2 12 13
M  V30 13 1 13 14
M  V30 14 2 14 15
M  V30 15 1 15 16
M  V30 16 2 16 17
M  V30 17 2 9 18
M  V30 18 1 2 19
M  V30 19 1 19 20
M  V30 20 2 20 21
M  V30 21 1 21 22
M  V30 22 1 22 23
M  V30 23 2 23 24
M  V30 24 1 24 25
M  V30 25 2 25 26
M  V30 26 1 26 27
M  V30 27 2 27 28
M  V30 28 1 18 5
M  V30 29 1 28 20
M  V30 30 1 17 12
M  V30 31 1 28 23
M  V30 32 1 1 29
M  V30 33 1 1 30
M  V30 34 1 2 31 CFG=1
M  V30 35 1 3 32
M  V30 36 1 3 33
M  V30 37 1 6 34
M  V30 38 1 8 35
M  V30 39 1 10 36
M  V30 40 1 11 37
M  V30 41 1 13 38
M  V30 42 1 14 39
M  V30 43 1 16 40
M  V30 44 1 17 41
M  V30 45 1 18 42
M  V30 46 1 19 43
M  V30 47 1 19 44
M  V30 48 1 21 45
M  V30 49 1 22 46
M  V30 50 1 24 47
M  V30 51 1 25 48
M  V30 52 1 26 49
M  V30 53 1 27 50
M  V30 END BOND
M  V30 END CTAB
M  END
>  <Dataset>  (528) 
ChEMBL_Kinases

>  <Ligand_Instance>  (528) 
nan

>  <PDB_ID>  (528) 
nan

>  <Standardized_SMILES>  (528) 
N[C@H](COc1cncc(/C=C/c2ccncc2)c1)Cc1c[nH]c2ccccc12

>  <Name>  (528) 
nan

>  <Pocket>  (528) 
nan

>  <ATP_Site>  (528) 
nan

>  <Peripheral>  (528) 
nan

>  <Num_H_Atoms_ProtBoundConf>  (528) 
nan

>  <Num_Resolved_Atoms>  (528) 
nan

>  <Num_Not_Resolved_Atoms>  (528) 
nan

$$$$
CHEMBL5090159
     RDKit          3D

  0  0  0  0  0  0  0  0  0  0999 V3000
M  V30 BEGIN CTAB
M  V30 COUNTS 41 44 0 0 0
M  V30 BEGIN ATOM
M  V30 1 C 2.161251 -4.648343 -0.303332 0
M  V30 2 C 1.960326 -3.395226 0.470576 0
M  V30 3 N 0.801334 -2.707107 0.407167 0
M  V30 4 C 0.625858 -1.559546 1.119953 0
M  V30 5 O -0.570519 -0.866787 1.040746 0
M  V30 6 C -1.608384 -1.359308 0.216045 0
M  V30 7 C -1.212475 -1.459882 -1.213530 0
M  V30 8 C -1.388531 -0.421481 -2.106281 0
M  V30 9 C -0.908886 -0.883458 -3.315037 0
M  V30 10 C -0.923923 -0.041821 -4.549459 0
M  V30 11 O -0.475571 -2.120413 -3.146334 0
M  V30 12 N -0.652227 -2.473383 -1.896490 0
M  V30 13 C 1.700635 -1.164304 1.894595 0
M  V30 14 C 1.717579 -0.032590 2.682770 0
M  V30 15 C 0.806811 1.049021 3.029564 0
M  V30 16 C 1.296240 2.357431 2.912725 0
M  V30 17 C 0.602337 3.511018 3.199319 0
M  V30 18 N -0.653041 3.339588 3.627026 0
M  V30 19 C -1.201498 2.119448 3.768031 0
M  V30 20 N -2.548752 1.901659 4.225682 0
M  V30 21 C -0.491056 0.973593 3.476218 0
M  V30 22 C 2.973680 -0.043666 3.256556 0
M  V30 23 N 3.666504 -1.126973 2.831166 0
M  V30 24 C 2.893119 -1.832015 1.987320 0
M  V30 25 N 2.971549 -2.940075 1.256605 0
M  V30 26 H 1.438686 -4.695078 -1.143995 0
M  V30 27 H 3.189677 -4.672553 -0.758377 0
M  V30 28 H 1.974581 -5.564786 0.291824 0
M  V30 29 H -2.547483 -0.789196 0.369412 0
M  V30 30 H -1.884874 -2.410937 0.521988 0
M  V30 31 H -1.808429 0.540470 -1.905664 0
M  V30 32 H -0.511889 -0.599041 -5.415964 0
M  V30 33 H -2.002621 0.149466 -4.809840 0
M  V30 34 H -0.480078 0.954203 -4.410764 0
M  V30 35 H 2.329883 2.500143 2.560625 0
M  V30 36 H 1.059432 4.469418 3.079596 0
M  V30 37 H -2.689253 1.944169 5.262515 0
M  V30 38 H -3.247692 1.722361 3.457494 0
M  V30 39 H -0.893151 -0.004339 3.584139 0
M  V30 40 H 3.453120 0.650696 3.956686 0
M  V30 41 H 4.630563 -1.466427 3.043807 0
M  V30 END ATOM
M  V30 BEGIN BOND
M  V30 1 1 1 2
M  V30 2 2 2 3
M  V30 3 1 3 4
M  V30 4 1 4 5
M  V30 5 1 5 6
M  V30 6 1 6 7
M  V30 7 1 7 8
M  V30 8 2 8 9
M  V30 9 1 9 10
M  V30 10 1 9 11
M  V30 11 1 11 12
M  V30 12 2 4 13
M  V30 13 1 13 14
M  V30 14 1 14 15
M  V30 15 2 15 16
M  V30 16 1 16 17
M  V30 17 2 17 18
M  V30 18 1 18 19
M  V30 19 1 19 20
M  V30 20 2 19 21
M  V30 21 2 14 22
M  V30 22 1 22 23
M  V30 23 1 23 24
M  V30 24 2 24 25
M  V30 25 1 25 2
M  V30 26 2 12 7
M  V30 27 1 24 13
M  V30 28 1 21 15
M  V30 29 1 1 26
M  V30 30 1 1 27
M  V30 31 1 1 28
M  V30 32 1 6 29
M  V30 33 1 6 30
M  V30 34 1 8 31
M  V30 35 1 10 32
M  V30 36 1 10 33
M  V30 37 1 10 34
M  V30 38 1 16 35
M  V30 39 1 17 36
M  V30 40 1 20 37
M  V30 41 1 20 38
M  V30 42 1 21 39
M  V30 43 1 22 40
M  V30 44 1 23 41
M  V30 END BOND
M  V30 END CTAB
M  END
>  <Dataset>  (529) 
ChEMBL_Kinases

>  <Ligand_Instance>  (529) 
nan

>  <PDB_ID>  (529) 
nan

>  <Standardized_SMILES>  (529) 
Cc1nc(OCc2cc(C)on2)c2c(-c3ccnc(N)c3)c[nH]c2n1

>  <Name>  (529) 
nan

>  <Pocket>  (529) 
nan

>  <ATP_Site>  (529) 
nan

>  <Peripheral>  (529) 
nan

>  <Num_H_Atoms_ProtBoundConf>  (529) 
nan

>  <Num_Resolved_Atoms>  (529) 
nan

>  <Num_Not_Resolved_Atoms>  (529) 
nan

$$$$
CHEMBL1214932
     RDKit          3D

  0  0  0  0  0  0  0  0  0  0999 V3000
M  V30 BEGIN CTAB
M  V30 COUNTS 39 42 0 0 0
M  V30 BEGIN ATOM
M  V30 1 C -3.199778 -4.438426 2.448140 0
M  V30 2 C -2.186662 -3.963438 1.661746 0
M  V30 3 C -1.658086 -2.705941 1.832576 0
M  V30 4 C -0.581251 -2.146901 1.027043 0
M  V30 5 C 0.011896 -2.845385 0.003076 0
M  V30 6 C 1.026658 -2.283952 -0.737045 0
M  V30 7 C 1.679319 -2.887238 -1.788304 0
M  V30 8 N 2.662512 -2.273973 -2.486050 0
M  V30 9 C 3.032137 -1.005684 -2.144933 0
M  V30 10 C 2.383812 -0.399151 -1.095807 0
M  V30 11 C 1.386514 -1.008681 -0.378526 0
M  V30 12 C 0.832940 -0.266688 0.631566 0
M  V30 13 N 1.171967 1.027549 1.130499 0
M  V30 14 C 0.065725 1.772477 1.777770 0
M  V30 15 C -0.168899 2.997515 0.927993 0
M  V30 16 N 0.793941 3.209055 -0.099341 0
M  V30 17 C 2.160887 3.065058 0.352759 0
M  V30 18 C 2.345591 1.855494 1.233388 0
M  V30 19 N -0.156732 -0.907512 1.297430 0
M  V30 20 C -2.232709 -1.977586 2.852907 0
M  V30 21 C -3.254840 -2.455044 3.647327 0
M  V30 22 N -3.740906 -3.703066 3.437453 0
M  V30 23 H -3.572707 -5.445587 2.258544 0
M  V30 24 H -1.779279 -4.580473 0.881139 0
M  V30 25 H -0.287557 -3.837889 -0.254491 0
M  V30 26 H 1.317352 -3.899111 -1.988968 0
M  V30 27 H 3.812732 -0.582781 -2.737056 0
M  V30 28 H 2.718478 0.585446 -0.907555 0
M  V30 29 H -0.838670 1.130887 1.843000 0
M  V30 30 H 0.394789 1.986436 2.796394 0
M  V30 31 H -1.183383 2.864423 0.454856 0
M  V30 32 H -0.303900 3.903073 1.578966 0
M  V30 33 H 0.588660 2.796487 -1.017090 0
M  V30 34 H 2.424450 3.997992 0.891215 0
M  V30 35 H 2.792675 3.010704 -0.547573 0
M  V30 36 H 3.309040 1.343594 1.133140 0
M  V30 37 H 2.394949 2.247193 2.310130 0
M  V30 38 H -1.885110 -0.966105 3.071482 0
M  V30 39 H -3.689592 -1.853577 4.448312 0
M  V30 END ATOM
M  V30 BEGIN BOND
M  V30 1 2 1 2
M  V30 2 1 2 3
M  V30 3 1 3 4
M  V30 4 2 4 5
M  V30 5 1 5 6
M  V30 6 2 6 7
M  V30 7 1 7 8
M  V30 8 2 8 9
M  V30 9 1 9 10
M  V30 10 2 10 11
M  V30 11 1 11 12
M  V30 12 1 12 13
M  V30 13 1 13 14
M  V30 14 1 14 15
M  V30 15 1 15 16
M  V30 16 1 16 17
M  V30 17 1 17 18
M  V30 18 2 12 19
M  V30 19 2 3 20
M  V30 20 1 20 21
M  V30 21 2 21 22
M  V30 22 1 22 1
M  V30 23 1 19 4
M  V30 24 1 11 6
M  V30 25 1 18 13
M  V30 26 1 1 23
M  V30 27 1 2 24
M  V30 28 1 5 25
M  V30 29 1 7 26
M  V30 30 1 9 27
M  V30 31 1 10 28
M  V30 32 1 14 29
M  V30 33 1 14 30
M  V30 34 1 15 31
M  V30 35 1 15 32
M  V30 36 1 16 33
M  V30 37 1 17 34
M  V30 38 1 17 35
M  V30 39 1 18 36
M  V30 40 1 18 37
M  V30 41 1 20 38
M  V30 42 1 21 39
M  V30 END BOND
M  V30 END CTAB
M  END
>  <Dataset>  (530) 
ChEMBL_Kinases

>  <Ligand_Instance>  (530) 
nan

>  <PDB_ID>  (530) 
nan

>  <Standardized_SMILES>  (530) 
c1cc(-c2cc3cnccc3c(N3CCNCC3)n2)ccn1

>  <Name>  (530) 
nan

>  <Pocket>  (530) 
nan

>  <ATP_Site>  (530) 
nan

>  <Peripheral>  (530) 
nan

>  <Num_H_Atoms_ProtBoundConf>  (530) 
nan

>  <Num_Resolved_Atoms>  (530) 
nan

>  <Num_Not_Resolved_Atoms>  (530) 
nan

$$$$
CHEMBL4751394
     RDKit          3D

  0  0  0  0  0  0  0  0  0  0999 V3000
M  V30 BEGIN CTAB
M  V30 COUNTS 50 54 0 0 0
M  V30 BEGIN ATOM
M  V30 1 N 1.830891 -6.864102 2.664675 0
M  V30 2 C 3.118713 -6.273581 2.535697 0
M  V30 3 O 4.092131 -6.995504 2.843110 0
M  V30 4 C 3.169038 -4.897412 2.061514 0
M  V30 5 C 4.414347 -4.292688 1.924467 0
M  V30 6 C 4.527350 -2.989217 1.478683 0
M  V30 7 C 3.364386 -2.287316 1.167099 0
M  V30 8 N 3.093825 -1.040045 0.718592 0
M  V30 9 C 1.738597 -0.917398 0.596767 0
M  V30 10 C 0.944145 0.226095 0.153464 0
M  V30 11 C 1.051585 1.367943 0.921847 0
M  V30 12 C 0.322803 2.469313 0.544656 0
M  V30 13 C -0.520338 2.502929 -0.569817 0
M  V30 14 C -1.314143 3.654121 -1.005457 0
M  V30 15 N -1.347532 3.744660 -2.454985 0
M  V30 16 C -2.718424 3.716760 -0.401936 0
M  V30 17 C -2.202283 4.694051 0.640297 0
M  V30 18 C -1.046490 4.966121 -0.332039 0
M  V30 19 C -0.587737 1.336270 -1.297991 0
M  V30 20 C 0.120688 0.196323 -0.969265 0
M  V30 21 C 1.141671 -2.125043 0.980888 0
M  V30 22 C -0.278469 -2.416507 0.999572 0
M  V30 23 C -1.145823 -1.718866 1.816373 0
M  V30 24 C -2.486290 -2.058694 1.774161 0
M  V30 25 C -2.992899 -3.066700 0.948982 0
M  V30 26 C -2.100713 -3.759398 0.131663 0
M  V30 27 C -0.771265 -3.412660 0.182457 0
M  V30 28 N 2.184087 -2.923445 1.318831 0
M  V30 29 N 2.072947 -4.184412 1.749989 0
M  V30 30 H 0.941007 -6.286143 2.708104 0
M  V30 31 H 1.617105 -7.889338 2.729010 0
M  V30 32 H 5.315743 -4.808878 2.156490 0
M  V30 33 H 5.465098 -2.466440 1.351673 0
M  V30 34 H 1.683421 1.444213 1.811904 0
M  V30 35 H 0.396428 3.357742 1.129014 0
M  V30 36 H -1.864807 4.654176 -2.647942 0
M  V30 37 H -1.893828 2.967568 -2.878779 0
M  V30 38 H -3.469699 4.180274 -1.064466 0
M  V30 39 H -3.096503 2.758004 0.004086 0
M  V30 40 H -2.837453 5.562715 0.853137 0
M  V30 41 H -1.885273 4.132028 1.546680 0
M  V30 42 H -0.114376 5.099585 0.211251 0
M  V30 43 H -1.348430 5.821567 -0.996556 0
M  V30 44 H -1.187235 1.185542 -2.186253 0
M  V30 45 H 0.088737 -0.738400 -1.522636 0
M  V30 46 H -0.782052 -0.934305 2.465100 0
M  V30 47 H -3.154316 -1.487182 2.435055 0
M  V30 48 H -4.043167 -3.305464 0.941420 0
M  V30 49 H -2.477402 -4.544465 -0.515027 0
M  V30 50 H -0.126272 -3.995835 -0.484297 0
M  V30 END ATOM
M  V30 BEGIN BOND
M  V30 1 1 1 2
M  V30 2 2 2 3
M  V30 3 1 2 4
M  V30 4 1 4 5
M  V30 5 2 5 6
M  V30 6 1 6 7
M  V30 7 2 7 8
M  V30 8 1 8 9
M  V30 9 1 9 10
M  V30 10 2 10 11
M  V30 11 1 11 12
M  V30 12 2 12 13
M  V30 13 1 13 14
M  V30 14 1 14 15
M  V30 15 1 14 16
M  V30 16 1 16 17
M  V30 17 1 17 18
M  V30 18 1 13 19
M  V30 19 2 19 20
M  V30 20 2 9 21
M  V30 21 1 21 22
M  V30 22 2 22 23
M  V30 23 1 23 24
M  V30 24 2 24 25
M  V30 25 1 25 26
M  V30 26 2 26 27
M  V30 27 1 21 28
M  V30 28 1 28 29
M  V30 29 2 29 4
M  V30 30 1 28 7
M  V30 31 1 20 10
M  V30 32 1 27 22
M  V30 33 1 18 14
M  V30 34 1 1 30
M  V30 35 1 1 31
M  V30 36 1 5 32
M  V30 37 1 6 33
M  V30 38 1 11 34
M  V30 39 1 12 35
M  V30 40 1 15 36
M  V30 41 1 15 37
M  V30 42 1 16 38
M  V30 43 1 16 39
M  V30 44 1 17 40
M  V30 45 1 17 41
M  V30 46 1 18 42
M  V30 47 1 18 43
M  V30 48 1 19 44
M  V30 49 1 20 45
M  V30 50 1 23 46
M  V30 51 1 24 47
M  V30 52 1 25 48
M  V30 53 1 26 49
M  V30 54 1 27 50
M  V30 END BOND
M  V30 END CTAB
M  END
>  <Dataset>  (531) 
ChEMBL_Kinases

>  <Ligand_Instance>  (531) 
nan

>  <PDB_ID>  (531) 
nan

>  <Standardized_SMILES>  (531) 
NC(=O)c1ccc2nc(-c3ccc(C4(N)CCC4)cc3)c(-c3ccccc3)n2n1

>  <Name>  (531) 
BAY-1125976

>  <Pocket>  (531) 
nan

>  <ATP_Site>  (531) 
nan

>  <Peripheral>  (531) 
nan

>  <Num_H_Atoms_ProtBoundConf>  (531) 
nan

>  <Num_Resolved_Atoms>  (531) 
nan

>  <Num_Not_Resolved_Atoms>  (531) 
nan

$$$$
CHEMBL307543
     RDKit          3D

  0  0  0  0  0  0  0  0  0  0999 V3000
M  V30 BEGIN CTAB
M  V30 COUNTS 66 69 0 0 0
M  V30 BEGIN ATOM
M  V30 1 C -1.862740 0.420499 -5.755843 0
M  V30 2 C -0.613835 1.011574 -6.384913 0
M  V30 3 O 0.126979 1.648683 -5.394052 0
M  V30 4 C 1.310901 2.302177 -5.530851 0
M  V30 5 O 1.105970 1.934143 -6.704552 0
M  V30 6 C 2.408337 3.052695 -4.990322 0
M  V30 7 C 3.238822 3.491949 -5.998672 0
M  V30 8 C 4.268616 4.324717 -5.635466 0
M  V30 9 C 4.445979 4.687705 -4.345946 0
M  V30 10 C 3.590155 4.224087 -3.355506 0
M  V30 11 O 3.851502 4.651950 -2.054880 0
M  V30 12 C 2.539970 3.382520 -3.664341 0
M  V30 13 C 1.668733 2.978900 -2.608897 0
M  V30 14 O 1.659173 3.879132 -1.713237 0
M  V30 15 C 0.792484 1.933096 -2.166424 0
M  V30 16 C -0.202804 2.203431 -1.271363 0
M  V30 17 O -0.482297 3.496609 -0.790364 0
M  V30 18 C -1.025026 1.203658 -0.762921 0
M  V30 19 C -0.834834 -0.088928 -1.167707 0
M  V30 20 C -1.714990 -1.108378 -0.613355 0
M  V30 21 O -1.727418 -2.333571 -0.833246 0
M  V30 22 O -2.719936 -0.810656 0.294427 0
M  V30 23 C -3.582439 -1.754535 0.849485 0 CFG=2
M  V30 24 C -5.057637 -1.489652 0.562817 0
M  V30 25 N -5.635519 -2.241491 1.692074 0
M  V30 26 C -4.901314 -1.645627 2.786870 0
M  V30 27 C -3.511006 -1.674744 2.382460 0 CFG=1
M  V30 28 N -2.635562 -2.696834 2.792827 0
M  V30 29 C -1.376140 -2.390607 3.398312 0
M  V30 30 O -1.061697 -1.162851 3.558865 0
M  V30 31 C -0.493473 -3.460583 3.812219 0
M  V30 32 C -0.726490 -4.812589 3.698823 0
M  V30 33 C 0.192370 -5.744901 4.129456 0
M  V30 34 C 1.380047 -5.347511 4.690215 0
M  V30 35 O 2.275423 -6.325000 5.109525 0
M  V30 36 C 1.678900 -4.010264 4.834597 0
M  V30 37 C 0.730569 -3.113578 4.390118 0
M  V30 38 C 0.146193 -0.442890 -2.064464 0
M  V30 39 C 0.916391 0.601812 -2.519320 0
M  V30 40 O 1.897409 0.143342 -3.421610 0
M  V30 41 H -1.763036 -0.684856 -5.634440 0
M  V30 42 H -2.059615 0.944187 -4.810322 0
M  V30 43 H -2.729233 0.589428 -6.419299 0
M  V30 44 H -0.976636 1.790629 -7.103811 0
M  V30 45 H -0.107839 0.192540 -6.917472 0
M  V30 46 H 3.181258 3.261914 -7.044987 0
M  V30 47 H 4.971424 4.719761 -6.350303 0
M  V30 48 H 5.253284 5.341867 -4.067520 0
M  V30 49 H 4.123379 5.624343 -1.924812 0
M  V30 50 H -0.428893 3.566278 0.234783 0
M  V30 51 H -1.807710 1.437313 -0.055750 0
M  V30 52 H -3.400001 -2.802947 0.499361 0
M  V30 53 H -5.218460 -0.400190 0.695338 0
M  V30 54 H -5.349347 -1.889725 -0.407511 0
M  V30 55 H -6.628739 -1.937607 1.748252 0
M  V30 56 H -5.259740 -0.578326 2.820245 0
M  V30 57 H -5.171918 -2.049037 3.769139 0
M  V30 58 H -3.016124 -0.693023 2.644892 0
M  V30 59 H -2.972224 -3.671445 2.623547 0
M  V30 60 H -1.663453 -5.101101 3.256977 0
M  V30 61 H -0.011986 -6.811505 4.030084 0
M  V30 62 H 3.184128 -6.104453 5.500630 0
M  V30 63 H 2.604256 -3.661394 5.271497 0
M  V30 64 H 0.987661 -2.054757 4.514195 0
M  V30 65 H 0.249405 -1.478269 -2.346862 0
M  V30 66 H 2.687647 -0.419370 -3.072779 0
M  V30 END ATOM
M  V30 BEGIN BOND
M  V30 1 1 1 2
M  V30 2 1 2 3
M  V30 3 1 3 4
M  V30 4 2 4 5
M  V30 5 1 4 6
M  V30 6 2 6 7
M  V30 7 1 7 8
M  V30 8 2 8 9
M  V30 9 1 9 10
M  V30 10 1 10 11
M  V30 11 2 10 12
M  V30 12 1 12 13
M  V30 13 2 13 14
M  V30 14 1 13 15
M  V30 15 2 15 16
M  V30 16 1 16 17
M  V30 17 1 16 18
M  V30 18 2 18 19
M  V30 19 1 19 20
M  V30 20 2 20 21
M  V30 21 1 20 22
M  V30 22 1 22 23
M  V30 23 1 23 24
M  V30 24 1 24 25
M  V30 25 1 25 26
M  V30 26 1 26 27
M  V30 27 1 27 28
M  V30 28 1 28 29
M  V30 29 2 29 30
M  V30 30 1 29 31
M  V30 31 2 31 32
M  V30 32 1 32 33
M  V30 33 2 33 34
M  V30 34 1 34 35
M  V30 35 1 34 36
M  V30 36 2 36 37
M  V30 37 1 19 38
M  V30 38 2 38 39
M  V30 39 1 39 40
M  V30 40 1 12 6
M  V30 41 1 39 15
M  V30 42 1 27 23
M  V30 43 1 37 31
M  V30 44 1 1 41
M  V30 45 1 1 42
M  V30 46 1 1 43
M  V30 47 1 2 44
M  V30 48 1 2 45
M  V30 49 1 7 46
M  V30 50 1 8 47
M  V30 51 1 9 48
M  V30 52 1 11 49
M  V30 53 1 17 50
M  V30 54 1 18 51
M  V30 55 1 23 52 CFG=1
M  V30 56 1 24 53
M  V30 57 1 24 54
M  V30 58 1 25 55
M  V30 59 1 26 56
M  V30 60 1 26 57
M  V30 61 1 27 58 CFG=3
M  V30 62 1 28 59
M  V30 63 1 32 60
M  V30 64 1 33 61
M  V30 65 1 35 62
M  V30 66 1 36 63
M  V30 67 1 37 64
M  V30 68 1 38 65
M  V30 69 1 40 66
M  V30 END BOND
M  V30 END CTAB
M  END
>  <Dataset>  (532) 
ChEMBL_Kinases

>  <Ligand_Instance>  (532) 
nan

>  <PDB_ID>  (532) 
nan

>  <Standardized_SMILES>  (532) 
CCOC(=O)c1cccc(O)c1C(=O)c1c(O)cc(C(=O)O[C@@H]2CNC[C@H]2NC(=O)c2ccc(O)cc2)cc1O

>  <Name>  (532) 
nan

>  <Pocket>  (532) 
nan

>  <ATP_Site>  (532) 
nan

>  <Peripheral>  (532) 
nan

>  <Num_H_Atoms_ProtBoundConf>  (532) 
nan

>  <Num_Resolved_Atoms>  (532) 
nan

>  <Num_Not_Resolved_Atoms>  (532) 
nan

$$$$
CHEMBL4288096
     RDKit          3D

  0  0  0  0  0  0  0  0  0  0999 V3000
M  V30 BEGIN CTAB
M  V30 COUNTS 39 40 0 0 0
M  V30 BEGIN ATOM
M  V30 1 C -1.456756 -4.308708 -1.058920 0
M  V30 2 O -0.984882 -3.179396 -0.408357 0
M  V30 3 C 0.300458 -2.704129 -0.330362 0
M  V30 4 C 1.447521 -3.232099 -0.887324 0
M  V30 5 C 2.672993 -2.603799 -0.700333 0
M  V30 6 C 2.811849 -1.443766 0.034817 0
M  V30 7 C 4.144652 -0.859799 0.170012 0
M  V30 8 C 4.358851 0.432102 0.163070 0
M  V30 9 S 3.124619 1.749645 -0.006810 0
M  V30 10 C 4.315502 2.973258 -0.616861 0
M  V30 11 S 3.976117 4.284597 -1.498615 0
M  V30 12 N 5.559633 2.489378 -0.134638 0
M  V30 13 C 5.599718 1.151841 0.280802 0
M  V30 14 O 6.665004 0.608184 0.732877 0
M  V30 15 C 1.651472 -0.936511 0.580878 0
M  V30 16 C 0.426851 -1.536304 0.412747 0
M  V30 17 C -0.713067 -0.892279 1.049680 0
M  V30 18 C -1.652550 -0.360220 1.591969 0
M  V30 19 Si -3.080380 0.413993 2.412817 0 VAL=4
M  V30 20 C -4.653227 0.019372 1.493049 0
M  V30 21 C -2.921785 2.268204 2.464670 0
M  V30 22 C -3.132197 -0.223000 4.152580 0
M  V30 23 H -2.296204 -4.118431 -1.756763 0
M  V30 24 H -1.712821 -5.059310 -0.275912 0
M  V30 25 H -0.633180 -4.755657 -1.652797 0
M  V30 26 H 1.300996 -4.140333 -1.455103 0
M  V30 27 H 3.493012 -3.124421 -1.192725 0
M  V30 28 H 5.025482 -1.510414 0.284332 0
M  V30 29 H 6.380811 3.167836 -0.119145 0
M  V30 30 H 1.734668 -0.030070 1.161085 0
M  V30 31 H -4.670950 -1.024860 1.127105 0
M  V30 32 H -5.537384 0.185622 2.144536 0
M  V30 33 H -4.786432 0.689537 0.616508 0
M  V30 34 H -2.042659 2.601286 3.031895 0
M  V30 35 H -2.831225 2.705710 1.450525 0
M  V30 36 H -3.873986 2.654387 2.888007 0
M  V30 37 H -3.896180 -1.013029 4.274753 0
M  V30 38 H -3.393079 0.607041 4.864016 0
M  V30 39 H -2.134302 -0.586262 4.458049 0
M  V30 END ATOM
M  V30 BEGIN BOND
M  V30 1 1 1 2
M  V30 2 1 2 3
M  V30 3 2 3 4
M  V30 4 1 4 5
M  V30 5 2 5 6
M  V30 6 1 6 7
M  V30 7 2 7 8
M  V30 8 1 8 9
M  V30 9 1 9 10
M  V30 10 2 10 11
M  V30 11 1 10 12
M  V30 12 1 12 13
M  V30 13 2 13 14
M  V30 14 1 6 15
M  V30 15 2 15 16
M  V30 16 1 16 17
M  V30 17 3 17 18
M  V30 18 1 18 19
M  V30 19 1 19 20
M  V30 20 1 19 21
M  V30 21 1 19 22
M  V30 22 1 16 3
M  V30 23 1 13 8
M  V30 24 1 1 23
M  V30 25 1 1 24
M  V30 26 1 1 25
M  V30 27 1 4 26
M  V30 28 1 5 27
M  V30 29 1 7 28
M  V30 30 1 12 29
M  V30 31 1 15 30
M  V30 32 1 20 31
M  V30 33 1 20 32
M  V30 34 1 20 33
M  V30 35 1 21 34
M  V30 36 1 21 35
M  V30 37 1 21 36
M  V30 38 1 22 37
M  V30 39 1 22 38
M  V30 40 1 22 39
M  V30 END BOND
M  V30 END CTAB
M  END
>  <Dataset>  (533) 
ChEMBL_Kinases

>  <Ligand_Instance>  (533) 
nan

>  <PDB_ID>  (533) 
nan

>  <Standardized_SMILES>  (533) 
COc1ccc(/C=C2\SC(=S)NC2=O)cc1C#C[Si](C)(C)C

>  <Name>  (533) 
nan

>  <Pocket>  (533) 
nan

>  <ATP_Site>  (533) 
nan

>  <Peripheral>  (533) 
nan

>  <Num_H_Atoms_ProtBoundConf>  (533) 
nan

>  <Num_Resolved_Atoms>  (533) 
nan

>  <Num_Not_Resolved_Atoms>  (533) 
nan

$$$$
CHEMBL4643610
     RDKit          3D

  0  0  0  0  0  0  0  0  0  0999 V3000
M  V30 BEGIN CTAB
M  V30 COUNTS 50 54 0 0 0
M  V30 BEGIN ATOM
M  V30 1 C 2.098358 -4.134229 -4.383072 0
M  V30 2 C 2.374315 -2.876994 -3.652134 0
M  V30 3 C 3.629580 -2.261601 -3.690640 0
M  V30 4 C 3.937188 -1.095876 -3.031216 0
M  V30 5 C 2.929525 -0.523440 -2.297494 0
M  V30 6 N 3.157559 0.630856 -1.617462 0
M  V30 7 C 2.212201 1.241765 -0.880441 0
M  V30 8 O 2.491848 2.303788 -0.279477 0
M  V30 9 C 0.954152 0.641251 -0.831147 0
M  V30 10 C -0.013592 1.386193 0.002103 0
M  V30 11 O -0.807775 2.301108 -0.338383 0
M  V30 12 C -0.070328 1.024329 1.419379 0
M  V30 13 C -0.908026 1.638699 2.243657 0
M  V30 14 C -0.941879 1.255276 3.654579 0
M  V30 15 N -0.185685 0.309221 4.231621 0
M  V30 16 C -0.458466 0.199960 5.544003 0
M  V30 17 C -0.038759 -0.550131 6.623773 0
M  V30 18 C -0.552643 -0.400207 7.895552 0
M  V30 19 C -1.543055 0.552198 8.107297 0
M  V30 20 C -1.972077 1.308911 7.037394 0
M  V30 21 C -1.454527 1.154472 5.768188 0
M  V30 22 N -1.738638 1.793122 4.595551 0
M  V30 23 C 0.645331 -0.530753 -1.494268 0
M  V30 24 C -0.697418 -1.059831 -1.367942 0
M  V30 25 C -1.637608 -0.654610 -2.283402 0
M  V30 26 C -2.945923 -1.111091 -2.236709 0
M  V30 27 C -3.315951 -2.004605 -1.234173 0
M  V30 28 C -2.389500 -2.439908 -0.285490 0
M  V30 29 C -1.108718 -1.944874 -0.393534 0
M  V30 30 C 1.671766 -1.086619 -2.223698 0
M  V30 31 C 1.386884 -2.264227 -2.898990 0
M  V30 32 H 3.011888 -4.382872 -4.981947 0
M  V30 33 H 1.957583 -4.998455 -3.678224 0
M  V30 34 H 1.257219 -4.052657 -5.085641 0
M  V30 35 H 4.431513 -2.714231 -4.272633 0
M  V30 36 H 4.922772 -0.667996 -3.097895 0
M  V30 37 H 4.116164 1.033297 -1.691353 0
M  V30 38 H 0.565393 0.242468 1.858870 0
M  V30 39 H -1.563024 2.418239 1.878686 0
M  V30 40 H 0.743701 -1.262578 6.321483 0
M  V30 41 H -0.099984 -1.075443 8.608693 0
M  V30 42 H -1.897806 0.614185 9.125323 0
M  V30 43 H -2.742726 2.025284 7.285559 0
M  V30 44 H -2.441904 2.543201 4.496830 0
M  V30 45 H -1.370134 0.037365 -3.067752 0
M  V30 46 H -3.664067 -0.774350 -2.971207 0
M  V30 47 H -4.352060 -2.333846 -1.238946 0
M  V30 48 H -2.690972 -3.127606 0.479186 0
M  V30 49 H -0.374474 -2.266980 0.328707 0
M  V30 50 H 0.384297 -2.700615 -2.831898 0
M  V30 END ATOM
M  V30 BEGIN BOND
M  V30 1 1 1 2
M  V30 2 2 2 3
M  V30 3 1 3 4
M  V30 4 2 4 5
M  V30 5 1 5 6
M  V30 6 1 6 7
M  V30 7 2 7 8
M  V30 8 1 7 9
M  V30 9 1 9 10
M  V30 10 2 10 11
M  V30 11 1 10 12
M  V30 12 2 12 13
M  V30 13 1 13 14
M  V30 14 2 14 15
M  V30 15 1 15 16
M  V30 16 2 16 17
M  V30 17 1 17 18
M  V30 18 2 18 19
M  V30 19 1 19 20
M  V30 20 2 20 21
M  V30 21 1 21 22
M  V30 22 2 9 23
M  V30 23 1 23 24
M  V30 24 2 24 25
M  V30 25 1 25 26
M  V30 26 2 26 27
M  V30 27 1 27 28
M  V30 28 2 28 29
M  V30 29 1 23 30
M  V30 30 2 30 31
M  V30 31 1 31 2
M  V30 32 1 30 5
M  V30 33 1 22 14
M  V30 34 1 29 24
M  V30 35 1 21 16
M  V30 36 1 1 32
M  V30 37 1 1 33
M  V30 38 1 1 34
M  V30 39 1 3 35
M  V30 40 1 4 36
M  V30 41 1 6 37
M  V30 42 1 12 38
M  V30 43 1 13 39
M  V30 44 1 17 40
M  V30 45 1 18 41
M  V30 46 1 19 42
M  V30 47 1 20 43
M  V30 48 1 22 44
M  V30 49 1 25 45
M  V30 50 1 26 46
M  V30 51 1 27 47
M  V30 52 1 28 48
M  V30 53 1 29 49
M  V30 54 1 31 50
M  V30 END BOND
M  V30 END CTAB
M  END
>  <Dataset>  (534) 
ChEMBL_Kinases

>  <Ligand_Instance>  (534) 
nan

>  <PDB_ID>  (534) 
nan

>  <Standardized_SMILES>  (534) 
Cc1ccc2[nH]c(=O)c(C(=O)/C=C/c3nc4ccccc4[nH]3)c(-c3ccccc3)c2c1

>  <Name>  (534) 
nan

>  <Pocket>  (534) 
nan

>  <ATP_Site>  (534) 
nan

>  <Peripheral>  (534) 
nan

>  <Num_H_Atoms_ProtBoundConf>  (534) 
nan

>  <Num_Resolved_Atoms>  (534) 
nan

>  <Num_Not_Resolved_Atoms>  (534) 
nan

$$$$
CHEMBL206866
     RDKit          3D

  0  0  0  0  0  0  0  0  0  0999 V3000
M  V30 BEGIN CTAB
M  V30 COUNTS 68 69 0 0 0
M  V30 BEGIN ATOM
M  V30 1 C 5.072935 0.294812 7.088775 0
M  V30 2 C 4.867728 -0.200458 5.654387 0
M  V30 3 C 3.938073 0.722299 4.903915 0
M  V30 4 C 3.780357 0.169121 3.489821 0
M  V30 5 C 2.855600 1.046288 2.671500 0
M  V30 6 C 2.686184 0.501015 1.249972 0
M  V30 7 C 1.747372 1.467063 0.559352 0
M  V30 8 C 1.488514 1.025769 -0.892548 0
M  V30 9 C 0.873053 -0.302946 -0.980575 0
M  V30 10 C 1.931492 -1.242745 -0.984709 0
M  V30 11 C 1.709770 -2.609198 -0.931283 0
M  V30 12 C 0.368875 -2.927230 -0.874236 0
M  V30 13 C -0.715040 -2.075750 -0.867394 0
M  V30 14 C -0.487729 -0.702314 -0.925646 0
M  V30 15 C -1.186402 0.595668 -1.008401 0
M  V30 16 C -1.282869 1.173085 -2.413187 0
M  V30 17 C -2.379112 0.443920 -3.250385 0 CFG=1
M  V30 18 C -2.239491 0.802930 -4.665604 0
M  V30 19 O -3.143648 0.171864 -5.495025 0
M  V30 20 N -2.235489 -0.888759 -2.809725 0
M  V30 21 C -3.268111 -1.311055 -1.943933 0
M  V30 22 O -4.312542 -0.656941 -1.877582 0
M  V30 23 C -3.322888 -2.522127 -1.029255 0 CFG=2
M  V30 24 C -4.083935 -2.135492 0.205897 0
M  V30 25 C -5.512377 -1.707532 -0.094126 0
M  V30 26 C -4.099446 -3.061788 1.351007 0
M  V30 27 N -1.919559 -2.853343 -0.768240 0
M  V30 28 C -1.911048 -4.231968 -0.312648 0
M  V30 29 H 6.003279 0.895663 7.158471 0
M  V30 30 H 4.222250 0.981856 7.293296 0
M  V30 31 H 5.111448 -0.522928 7.820195 0
M  V30 32 H 4.407732 -1.202530 5.751489 0
M  V30 33 H 5.824135 -0.298799 5.136081 0
M  V30 34 H 4.373812 1.739241 4.839241 0
M  V30 35 H 2.933981 0.721990 5.393995 0
M  V30 36 H 3.294567 -0.822048 3.582243 0
M  V30 37 H 4.782909 0.112585 3.053586 0
M  V30 38 H 3.320376 2.052552 2.659325 0
M  V30 39 H 1.873619 1.127897 3.179462 0
M  V30 40 H 2.290251 -0.508196 1.378443 0
M  V30 41 H 3.701957 0.551220 0.806349 0
M  V30 42 H 0.845105 1.503844 1.179007 0
M  V30 43 H 2.214612 2.460655 0.583811 0
M  V30 44 H 2.427624 1.061650 -1.458193 0
M  V30 45 H 0.872696 1.855368 -1.280449 0
M  V30 46 H 3.006310 -0.998163 -1.030238 0
M  V30 47 H 2.519091 -3.321053 -0.935721 0
M  V30 48 H 0.307466 -4.027910 -0.836456 0
M  V30 49 H -2.264118 0.474881 -0.662911 0
M  V30 50 H -0.799907 1.365759 -0.377067 0
M  V30 51 H -1.592432 2.229094 -2.396187 0
M  V30 52 H -0.337376 1.087844 -2.991849 0
M  V30 53 H -3.357703 0.910371 -2.903209 0
M  V30 54 H -2.467334 1.903144 -4.756113 0
M  V30 55 H -1.201532 0.695550 -5.046342 0
M  V30 56 H -3.485840 -0.665323 -5.075256 0
M  V30 57 H -1.696251 -1.733038 -2.867113 0
M  V30 58 H -3.875153 -3.284396 -1.576588 0
M  V30 59 H -3.588342 -1.182526 0.574982 0
M  V30 60 H -5.672220 -0.616578 -0.022855 0
M  V30 61 H -6.204222 -2.126587 0.703924 0
M  V30 62 H -5.902855 -2.104285 -1.041931 0
M  V30 63 H -4.694913 -3.978593 1.238813 0
M  V30 64 H -3.119389 -3.262669 1.840985 0
M  V30 65 H -4.655863 -2.509227 2.191217 0
M  V30 66 H -1.441635 -4.824096 -1.146304 0
M  V30 67 H -1.160613 -4.268202 0.531195 0
M  V30 68 H -2.853016 -4.639069 -0.006684 0
M  V30 END ATOM
M  V30 BEGIN BOND
M  V30 1 1 1 2
M  V30 2 1 2 3
M  V30 3 1 3 4
M  V30 4 1 4 5
M  V30 5 1 5 6
M  V30 6 1 6 7
M  V30 7 1 7 8
M  V30 8 1 8 9
M  V30 9 2 9 10
M  V30 10 1 10 11
M  V30 11 2 11 12
M  V30 12 1 12 13
M  V30 13 2 13 14
M  V30 14 1 14 15
M  V30 15 1 15 16
M  V30 16 1 16 17
M  V30 17 1 17 18
M  V30 18 1 18 19
M  V30 19 1 17 20
M  V30 20 1 20 21
M  V30 21 2 21 22
M  V30 22 1 21 23
M  V30 23 1 23 24
M  V30 24 1 24 25
M  V30 25 1 24 26
M  V30 26 1 23 27
M  V30 27 1 27 28
M  V30 28 1 14 9
M  V30 29 1 27 13
M  V30 30 1 1 29
M  V30 31 1 1 30
M  V30 32 1 1 31
M  V30 33 1 2 32
M  V30 34 1 2 33
M  V30 35 1 3 34
M  V30 36 1 3 35
M  V30 37 1 4 36
M  V30 38 1 4 37
M  V30 39 1 5 38
M  V30 40 1 5 39
M  V30 41 1 6 40
M  V30 42 1 6 41
M  V30 43 1 7 42
M  V30 44 1 7 43
M  V30 45 1 8 44
M  V30 46 1 8 45
M  V30 47 1 10 46
M  V30 48 1 11 47
M  V30 49 1 12 48
M  V30 50 1 15 49
M  V30 51 1 15 50
M  V30 52 1 16 51
M  V30 53 1 16 52
M  V30 54 1 17 53 CFG=1
M  V30 55 1 18 54
M  V30 56 1 18 55
M  V30 57 1 19 56
M  V30 58 1 20 57
M  V30 59 1 23 58 CFG=3
M  V30 60 1 24 59
M  V30 61 1 25 60
M  V30 62 1 25 61
M  V30 63 1 25 62
M  V30 64 1 26 63
M  V30 65 1 26 64
M  V30 66 1 26 65
M  V30 67 1 28 66
M  V30 68 1 28 67
M  V30 69 1 28 68
M  V30 END BOND
M  V30 END CTAB
M  END
>  <Dataset>  (535) 
ChEMBL_Kinases

>  <Ligand_Instance>  (535) 
nan

>  <PDB_ID>  (535) 
nan

>  <Standardized_SMILES>  (535) 
CCCCCCCCc1cccc2c1CC[C@@H](CO)NC(=O)[C@H](C(C)C)N2C

>  <Name>  (535) 
nan

>  <Pocket>  (535) 
nan

>  <ATP_Site>  (535) 
nan

>  <Peripheral>  (535) 
nan

>  <Num_H_Atoms_ProtBoundConf>  (535) 
nan

>  <Num_Resolved_Atoms>  (535) 
nan

>  <Num_Not_Resolved_Atoms>  (535) 
nan

$$$$
CHEMBL384073
     RDKit          3D

  0  0  0  0  0  0  0  0  0  0999 V3000
M  V30 BEGIN CTAB
M  V30 COUNTS 43 46 0 0 0
M  V30 BEGIN ATOM
M  V30 1 C 1.801793 -1.835939 3.987660 0
M  V30 2 C 1.076738 -2.578100 2.928577 0
M  V30 3 C 0.816567 -2.128971 1.686575 0
M  V30 4 C 1.308716 -0.801259 1.382725 0
M  V30 5 O 1.921378 -0.121882 2.228029 0
M  V30 6 N 1.164159 -0.139622 0.141333 0
M  V30 7 C 1.568920 1.134924 -0.323969 0
M  V30 8 C 1.279545 1.517283 -1.620888 0
M  V30 9 C 1.641241 2.733074 -2.133348 0
M  V30 10 C 2.323793 3.647676 -1.362447 0
M  V30 11 N 2.798321 4.900987 -1.604312 0
M  V30 12 N 3.384193 5.328928 -0.492769 0
M  V30 13 C 3.306753 4.394338 0.466354 0
M  V30 14 C 2.638190 3.318265 -0.061715 0
M  V30 15 C 2.251066 2.081252 0.405837 0
M  V30 16 C 0.006664 -2.923212 0.692838 0
M  V30 17 C -1.355382 -2.312256 0.498398 0
M  V30 18 C -2.073960 -2.499270 1.689130 0
M  V30 19 C -3.391256 -2.047361 1.807916 0
M  V30 20 C -4.026610 -1.398363 0.745660 0
M  V30 21 F -5.299291 -0.942863 0.811917 0
M  V30 22 C -3.292243 -1.237470 -0.393459 0
M  V30 23 C -2.017442 -1.668745 -0.524681 0
M  V30 24 N -0.136571 -4.293944 1.135447 0
M  V30 25 C 0.088911 -4.845040 2.422073 0
M  V30 26 O -0.236875 -6.017129 2.725977 0
M  V30 27 N 0.714772 -3.925526 3.302172 0
M  V30 28 H 1.779875 -2.406889 4.962749 0
M  V30 29 H 2.838104 -1.574698 3.736027 0
M  V30 30 H 1.225771 -0.899123 4.248179 0
M  V30 31 H 0.668493 -0.743820 -0.548838 0
M  V30 32 H 0.736037 0.829648 -2.285940 0
M  V30 33 H 1.383817 2.969360 -3.156263 0
M  V30 34 H 2.701243 5.406239 -2.514289 0
M  V30 35 H 3.682607 4.422785 1.489441 0
M  V30 36 H 2.525578 1.897063 1.411378 0
M  V30 37 H 0.562704 -2.911883 -0.247008 0
M  V30 38 H -1.792657 -2.960672 2.610355 0
M  V30 39 H -4.029015 -2.143486 2.683361 0
M  V30 40 H -3.661975 -0.753987 -1.286581 0
M  V30 41 H -1.348818 -1.604270 -1.373564 0
M  V30 42 H -0.457999 -4.933969 0.347278 0
M  V30 43 H 0.899109 -4.311456 4.271477 0
M  V30 END ATOM
M  V30 BEGIN BOND
M  V30 1 1 1 2
M  V30 2 2 2 3
M  V30 3 1 3 4
M  V30 4 2 4 5
M  V30 5 1 4 6
M  V30 6 1 6 7
M  V30 7 2 7 8
M  V30 8 1 8 9
M  V30 9 2 9 10
M  V30 10 1 10 11
M  V30 11 1 11 12
M  V30 12 2 12 13
M  V30 13 1 13 14
M  V30 14 2 14 15
M  V30 15 1 3 16
M  V30 16 1 16 17
M  V30 17 2 17 18
M  V30 18 1 18 19
M  V30 19 2 19 20
M  V30 20 1 20 21
M  V30 21 1 20 22
M  V30 22 2 22 23
M  V30 23 1 16 24
M  V30 24 1 24 25
M  V30 25 2 25 26
M  V30 26 1 25 27
M  V30 27 1 27 2
M  V30 28 1 15 7
M  V30 29 1 23 17
M  V30 30 1 14 10
M  V30 31 1 1 28
M  V30 32 1 1 29
M  V30 33 1 1 30
M  V30 34 1 6 31
M  V30 35 1 8 32
M  V30 36 1 9 33
M  V30 37 1 11 34
M  V30 38 1 13 35
M  V30 39 1 15 36
M  V30 40 1 16 37
M  V30 41 1 18 38
M  V30 42 1 19 39
M  V30 43 1 22 40
M  V30 44 1 23 41
M  V30 45 1 24 42
M  V30 46 1 27 43
M  V30 END BOND
M  V30 END CTAB
M  END
>  <Dataset>  (536) 
ChEMBL_Kinases

>  <Ligand_Instance>  (536) 
nan

>  <PDB_ID>  (536) 
nan

>  <Standardized_SMILES>  (536) 
CC1=C(C(=O)Nc2ccc3[nH]ncc3c2)C(c2ccc(F)cc2)NC(=O)N1

>  <Name>  (536) 
GSK-180736A

>  <Pocket>  (536) 
nan

>  <ATP_Site>  (536) 
nan

>  <Peripheral>  (536) 
nan

>  <Num_H_Atoms_ProtBoundConf>  (536) 
nan

>  <Num_Resolved_Atoms>  (536) 
nan

>  <Num_Not_Resolved_Atoms>  (536) 
nan

$$$$
CHEMBL1088752
     RDKit          3D

  0  0  0  0  0  0  0  0  0  0999 V3000
M  V30 BEGIN CTAB
M  V30 COUNTS 54 56 0 0 0
M  V30 BEGIN ATOM
M  V30 1 C 1.976504 -2.421264 4.063568 0
M  V30 2 C 2.019576 -0.923303 3.986851 0
M  V30 3 C 2.561033 -0.180867 5.044913 0
M  V30 4 F 3.037429 -0.883225 6.126854 0
M  V30 5 C 2.637524 1.195258 5.052874 0
M  V30 6 C 2.149879 1.869406 3.950540 0
M  V30 7 C 2.246674 3.324220 3.993809 0
M  V30 8 O 2.743853 3.887164 4.980940 0
M  V30 9 N 1.801723 4.192369 2.959027 0
M  V30 10 C 1.925720 5.614910 3.064188 0
M  V30 11 C 0.650600 6.346611 2.636787 0
M  V30 12 C 1.923129 6.518485 1.903025 0
M  V30 13 C 1.619140 1.161619 2.911146 0
M  V30 14 C 1.542783 -0.215278 2.903492 0
M  V30 15 C 0.972022 -0.956691 1.783171 0
M  V30 16 C 0.466979 -0.356245 0.648865 0
M  V30 17 C -0.071751 -1.067379 -0.407235 0
M  V30 18 C -0.129177 -2.446223 -0.371358 0
M  V30 19 C -0.660574 -3.345781 -1.390316 0
M  V30 20 O -0.655167 -4.575461 -1.235483 0
M  V30 21 N -1.214410 -2.903938 -2.613489 0
M  V30 22 C -1.782245 -3.559187 -3.731852 0
M  V30 23 C -2.989038 -4.390586 -3.559084 0
M  V30 24 C -4.111217 -3.517817 -3.003490 0
M  V30 25 C -2.839626 -5.696308 -2.862953 0
M  V30 26 C -3.478355 -4.750257 -4.983293 0
M  V30 27 C 0.386419 -3.020419 0.782196 0
M  V30 28 N 0.905038 -2.300045 1.794660 0
M  V30 29 H 2.402703 -2.713143 5.061687 0
M  V30 30 H 0.925234 -2.806103 4.113261 0
M  V30 31 H 2.610443 -2.916477 3.326522 0
M  V30 32 H 3.071538 1.676962 5.913697 0
M  V30 33 H 1.374417 3.777706 2.103290 0
M  V30 34 H 2.387734 5.992071 3.999035 0
M  V30 35 H 0.229601 7.096084 3.324848 0
M  V30 36 H -0.127692 5.790376 2.071420 0
M  V30 37 H 2.018643 6.157180 0.866580 0
M  V30 38 H 2.409111 7.508933 2.032362 0
M  V30 39 H 1.263404 1.747822 2.096752 0
M  V30 40 H 0.477093 0.709919 0.548695 0
M  V30 41 H -0.464992 -0.598751 -1.290560 0
M  V30 42 H -1.196256 -1.837415 -2.703972 0
M  V30 43 H -1.957504 -2.894008 -4.607204 0
M  V30 44 H -0.965986 -4.250841 -4.126042 0
M  V30 45 H -4.737372 -3.058753 -3.796389 0
M  V30 46 H -3.698413 -2.634292 -2.443689 0
M  V30 47 H -4.825871 -4.110557 -2.371078 0
M  V30 48 H -1.858370 -6.155663 -3.091112 0
M  V30 49 H -3.575248 -6.469828 -3.255529 0
M  V30 50 H -3.086779 -5.678696 -1.771142 0
M  V30 51 H -4.344977 -5.434110 -4.926444 0
M  V30 52 H -2.631417 -5.120530 -5.582834 0
M  V30 53 H -3.828792 -3.790444 -5.418314 0
M  V30 54 H 0.386236 -4.110663 0.906504 0
M  V30 END ATOM
M  V30 BEGIN BOND
M  V30 1 1 1 2
M  V30 2 2 2 3
M  V30 3 1 3 4
M  V30 4 1 3 5
M  V30 5 2 5 6
M  V30 6 1 6 7
M  V30 7 2 7 8
M  V30 8 1 7 9
M  V30 9 1 9 10
M  V30 10 1 10 11
M  V30 11 1 11 12
M  V30 12 1 6 13
M  V30 13 2 13 14
M  V30 14 1 14 15
M  V30 15 2 15 16
M  V30 16 1 16 17
M  V30 17 2 17 18
M  V30 18 1 18 19
M  V30 19 2 19 20
M  V30 20 1 19 21
M  V30 21 1 21 22
M  V30 22 1 22 23
M  V30 23 1 23 24
M  V30 24 1 23 25
M  V30 25 1 23 26
M  V30 26 1 18 27
M  V30 27 2 27 28
M  V30 28 1 14 2
M  V30 29 1 28 15
M  V30 30 1 12 10
M  V30 31 1 1 29
M  V30 32 1 1 30
M  V30 33 1 1 31
M  V30 34 1 5 32
M  V30 35 1 9 33
M  V30 36 1 10 34
M  V30 37 1 11 35
M  V30 38 1 11 36
M  V30 39 1 12 37
M  V30 40 1 12 38
M  V30 41 1 13 39
M  V30 42 1 16 40
M  V30 43 1 17 41
M  V30 44 1 21 42
M  V30 45 1 22 43
M  V30 46 1 22 44
M  V30 47 1 24 45
M  V30 48 1 24 46
M  V30 49 1 24 47
M  V30 50 1 25 48
M  V30 51 1 25 49
M  V30 52 1 25 50
M  V30 53 1 26 51
M  V30 54 1 26 52
M  V30 55 1 26 53
M  V30 56 1 27 54
M  V30 END BOND
M  V30 END CTAB
M  END
>  <Dataset>  (537) 
ChEMBL_Kinases

>  <Ligand_Instance>  (537) 
nan

>  <PDB_ID>  (537) 
nan

>  <Standardized_SMILES>  (537) 
Cc1c(F)cc(C(=O)NC2CC2)cc1-c1ccc(C(=O)NCC(C)(C)C)cn1

>  <Name>  (537) 
LOSMAPIMOD

>  <Pocket>  (537) 
nan

>  <ATP_Site>  (537) 
nan

>  <Peripheral>  (537) 
nan

>  <Num_H_Atoms_ProtBoundConf>  (537) 
nan

>  <Num_Resolved_Atoms>  (537) 
nan

>  <Num_Not_Resolved_Atoms>  (537) 
nan

$$$$
CHEMBL187081
     RDKit          3D

  0  0  0  0  0  0  0  0  0  0999 V3000
M  V30 BEGIN CTAB
M  V30 COUNTS 38 41 0 0 0
M  V30 BEGIN ATOM
M  V30 1 C -0.611438 -3.377551 2.093518 0
M  V30 2 O 0.717759 -3.762802 1.947682 0
M  V30 3 C 1.684696 -3.191254 1.170552 0
M  V30 4 C 2.880148 -3.872451 1.300157 0
M  V30 5 C 3.999040 -3.440139 0.579953 0
M  V30 6 C 3.886755 -2.346478 -0.242007 0
M  V30 7 C 2.711943 -1.641812 -0.396719 0
M  V30 8 N 2.557733 -0.523270 -1.257402 0
M  V30 9 C 1.542933 0.457344 -1.360183 0
M  V30 10 N 1.626814 1.312854 -2.404782 0
M  V30 11 C 0.740756 2.289760 -2.601825 0
M  V30 12 C -0.268078 2.372582 -1.670501 0
M  V30 13 C -0.406880 1.529166 -0.582258 0
M  V30 14 C -1.520261 1.778100 0.315366 0
M  V30 15 C -2.530721 2.711321 0.124731 0
M  V30 16 N -3.359018 2.649569 1.168183 0
M  V30 17 N -2.973426 1.740543 2.044254 0
M  V30 18 N -3.515369 1.384568 3.194353 0
M  V30 19 C -2.961131 0.427264 3.957762 0
M  V30 20 C -1.805208 -0.157837 3.478134 0
M  V30 21 C -1.250583 0.225746 2.272507 0
M  V30 22 C -1.855123 1.211363 1.524973 0
M  V30 23 N 0.543837 0.583809 -0.487463 0
M  V30 24 C 1.629471 -2.093797 0.326537 0
M  V30 25 H -0.770535 -3.057106 3.148673 0
M  V30 26 H -0.821743 -2.519066 1.448283 0
M  V30 27 H -1.331271 -4.212306 1.942356 0
M  V30 28 H 3.108575 -4.747387 1.911516 0
M  V30 29 H 4.969795 -3.916027 0.623885 0
M  V30 30 H 4.751746 -2.004185 -0.805849 0
M  V30 31 H 3.378775 -0.461436 -1.920214 0
M  V30 32 H 0.809118 2.971560 -3.436143 0
M  V30 33 H -0.990865 3.176386 -1.838795 0
M  V30 34 H -2.678837 3.403296 -0.707727 0
M  V30 35 H -3.361206 0.084872 4.925050 0
M  V30 36 H -1.354096 -0.937887 4.100993 0
M  V30 37 H -0.348171 -0.220325 1.894118 0
M  V30 38 H 0.648783 -1.648121 0.300512 0
M  V30 END ATOM
M  V30 BEGIN BOND
M  V30 1 1 1 2
M  V30 2 1 2 3
M  V30 3 2 3 4
M  V30 4 1 4 5
M  V30 5 2 5 6
M  V30 6 1 6 7
M  V30 7 1 7 8
M  V30 8 1 8 9
M  V30 9 2 9 10
M  V30 10 1 10 11
M  V30 11 2 11 12
M  V30 12 1 12 13
M  V30 13 1 13 14
M  V30 14 1 14 15
M  V30 15 2 15 16
M  V30 16 1 16 17
M  V30 17 1 17 18
M  V30 18 2 18 19
M  V30 19 1 19 20
M  V30 20 2 20 21
M  V30 21 1 21 22
M  V30 22 2 13 23
M  V30 23 2 7 24
M  V30 24 1 24 3
M  V30 25 1 23 9
M  V30 26 2 22 14
M  V30 27 1 22 17
M  V30 28 1 1 25
M  V30 29 1 1 26
M  V30 30 1 1 27
M  V30 31 1 4 28
M  V30 32 1 5 29
M  V30 33 1 6 30
M  V30 34 1 8 31
M  V30 35 1 11 32
M  V30 36 1 12 33
M  V30 37 1 15 34
M  V30 38 1 19 35
M  V30 39 1 20 36
M  V30 40 1 21 37
M  V30 41 1 24 38
M  V30 END BOND
M  V30 END CTAB
M  END
>  <Dataset>  (538) 
ChEMBL_Kinases

>  <Ligand_Instance>  (538) 
nan

>  <PDB_ID>  (538) 
nan

>  <Standardized_SMILES>  (538) 
COc1cccc(Nc2nccc(-c3cnn4ncccc34)n2)c1

>  <Name>  (538) 
PYRAZOLOPYRIDAZINE 1

>  <Pocket>  (538) 
nan

>  <ATP_Site>  (538) 
nan

>  <Peripheral>  (538) 
nan

>  <Num_H_Atoms_ProtBoundConf>  (538) 
nan

>  <Num_Resolved_Atoms>  (538) 
nan

>  <Num_Not_Resolved_Atoms>  (538) 
nan

$$$$
CHEMBL304175
     RDKit          3D

  0  0  0  0  0  0  0  0  0  0999 V3000
M  V30 BEGIN CTAB
M  V30 COUNTS 78 81 0 0 0
M  V30 BEGIN ATOM
M  V30 1 C -0.622955 -3.311176 5.007948 0
M  V30 2 C -0.586460 -2.737380 3.596195 0
M  V30 3 C 0.843197 -2.729382 3.070802 0
M  V30 4 C -1.390483 -3.663128 2.721306 0
M  V30 5 C -1.093898 -1.368468 3.545051 0
M  V30 6 O -0.361113 -0.406910 3.201577 0
M  V30 7 O -2.176020 -0.538840 3.732987 0
M  V30 8 C -2.025661 0.860900 3.508049 0
M  V30 9 O -3.232210 1.537034 3.752984 0
M  V30 10 C -4.422765 1.407030 3.137831 0
M  V30 11 O -3.274107 1.406146 3.594787 0
M  V30 12 C -5.729274 1.349677 2.555941 0
M  V30 13 C -6.587548 2.134478 3.338072 0
M  V30 14 C -7.937940 2.126470 3.045969 0
M  V30 15 C -8.303032 1.333824 2.000227 0
M  V30 16 C -7.446206 0.576595 1.249945 0
M  V30 17 O -7.912854 -0.217029 0.182919 0
M  V30 18 C -6.100658 0.555203 1.499776 0
M  V30 19 C -5.174876 -0.268153 0.798012 0
M  V30 20 O -5.693735 -1.368330 0.410687 0
M  V30 21 C -3.783029 -0.164278 0.413622 0
M  V30 22 C -3.004373 -1.272395 0.232228 0
M  V30 23 O -3.555355 -2.509387 0.527741 0
M  V30 24 C -1.714860 -1.147467 -0.229323 0
M  V30 25 C -1.258451 0.118031 -0.494715 0
M  V30 26 C 0.054972 0.508635 -0.959557 0
M  V30 27 O 0.693139 -0.561940 -1.046483 0
M  V30 28 O 1.269585 0.726210 -1.374570 0
M  V30 29 C 2.452662 0.111270 -1.676009 0 CFG=2
M  V30 30 C 3.502342 0.904731 -0.878214 0
M  V30 31 N 3.582623 2.142938 -1.595525 0
M  V30 32 C 3.137573 1.919261 -2.964828 0
M  V30 33 C 2.961207 0.429358 -3.089524 0 CFG=1
M  V30 34 N 4.228603 -0.258699 -3.225994 0
M  V30 35 C 4.556729 -1.388291 -4.031532 0
M  V30 36 O 3.592187 -1.825828 -4.711292 0
M  V30 37 C 5.887332 -1.954766 -4.038308 0
M  V30 38 C 6.981161 -1.438102 -3.376922 0
M  V30 39 C 8.237084 -1.978280 -3.363084 0
M  V30 40 C 8.468125 -3.143012 -4.062486 0
M  V30 41 O 9.723473 -3.760484 -4.101420 0
M  V30 42 C 7.387739 -3.681266 -4.734213 0
M  V30 43 C 6.121159 -3.135616 -4.747546 0
M  V30 44 C -2.034161 1.276534 -0.320553 0
M  V30 45 C -3.351092 1.145684 0.151191 0
M  V30 46 O -4.069000 2.347966 0.291451 0
M  V30 47 H -0.662412 -4.420248 4.908235 0
M  V30 48 H -1.559234 -2.988320 5.525876 0
M  V30 49 H 0.302802 -3.025327 5.545749 0
M  V30 50 H 1.532513 -2.368387 3.851146 0
M  V30 51 H 0.878670 -2.009263 2.219326 0
M  V30 52 H 1.124914 -3.756293 2.731340 0
M  V30 53 H -2.495920 -3.521396 2.859681 0
M  V30 54 H -1.217265 -4.741447 3.001388 0
M  V30 55 H -1.169224 -3.547177 1.651955 0
M  V30 56 H -1.656584 1.111095 2.500832 0
M  V30 57 H -1.232613 1.247032 4.215598 0
M  V30 58 H -6.303733 2.773992 4.179914 0
M  V30 59 H -8.712949 2.673504 3.555589 0
M  V30 60 H -9.336740 1.267918 1.703492 0
M  V30 61 H -8.716668 0.195833 -0.311620 0
M  V30 62 H -4.021074 -3.109465 -0.130297 0
M  V30 63 H -1.060939 -1.981049 -0.386034 0
M  V30 64 H 2.557599 -0.978465 -1.532142 0
M  V30 65 H 3.053370 1.166306 0.127821 0
M  V30 66 H 4.453654 0.400854 -0.777279 0
M  V30 67 H 3.075417 2.931541 -1.148638 0
M  V30 68 H 2.136909 2.376554 -3.140052 0
M  V30 69 H 3.886786 2.313102 -3.683664 0
M  V30 70 H 2.220015 0.102348 -3.840759 0
M  V30 71 H 4.985372 0.161176 -2.649936 0
M  V30 72 H 6.861298 -0.518548 -2.808566 0
M  V30 73 H 9.044390 -1.508756 -2.816913 0
M  V30 74 H 10.447230 -3.498941 -3.442685 0
M  V30 75 H 7.621223 -4.613372 -5.274405 0
M  V30 76 H 5.361415 -3.643794 -5.306053 0
M  V30 77 H -1.691621 2.304151 -0.528224 0
M  V30 78 H -4.010523 2.965010 -0.523952 0
M  V30 END ATOM
M  V30 BEGIN BOND
M  V30 1 1 1 2
M  V30 2 1 2 3
M  V30 3 1 2 4
M  V30 4 1 2 5
M  V30 5 2 5 6
M  V30 6 1 5 7
M  V30 7 1 7 8
M  V30 8 1 8 9
M  V30 9 1 9 10
M  V30 10 2 10 11
M  V30 11 1 10 12
M  V30 12 2 12 13
M  V30 13 1 13 14
M  V30 14 2 14 15
M  V30 15 1 15 16
M  V30 16 1 16 17
M  V30 17 2 16 18
M  V30 18 1 18 19
M  V30 19 2 19 20
M  V30 20 1 19 21
M  V30 21 2 21 22
M  V30 22 1 22 23
M  V30 23 1 22 24
M  V30 24 2 24 25
M  V30 25 1 25 26
M  V30 26 2 26 27
M  V30 27 1 26 28
M  V30 28 1 28 29
M  V30 29 1 29 30
M  V30 30 1 30 31
M  V30 31 1 31 32
M  V30 32 1 32 33
M  V30 33 1 33 34
M  V30 34 1 34 35
M  V30 35 2 35 36
M  V30 36 1 35 37
M  V30 37 2 37 38
M  V30 38 1 38 39
M  V30 39 2 39 40
M  V30 40 1 40 41
M  V30 41 1 40 42
M  V30 42 2 42 43
M  V30 43 1 25 44
M  V30 44 2 44 45
M  V30 45 1 45 46
M  V30 46 1 18 12
M  V30 47 1 45 21
M  V30 48 1 33 29
M  V30 49 1 43 37
M  V30 50 1 1 47
M  V30 51 1 1 48
M  V30 52 1 1 49
M  V30 53 1 3 50
M  V30 54 1 3 51
M  V30 55 1 3 52
M  V30 56 1 4 53
M  V30 57 1 4 54
M  V30 58 1 4 55
M  V30 59 1 8 56
M  V30 60 1 8 57
M  V30 61 1 13 58
M  V30 62 1 14 59
M  V30 63 1 15 60
M  V30 64 1 17 61
M  V30 65 1 23 62
M  V30 66 1 24 63
M  V30 67 1 29 64 CFG=1
M  V30 68 1 30 65
M  V30 69 1 30 66
M  V30 70 1 31 67
M  V30 71 1 32 68
M  V30 72 1 32 69
M  V30 73 1 33 70 CFG=3
M  V30 74 1 34 71
M  V30 75 1 38 72
M  V30 76 1 39 73
M  V30 77 1 41 74
M  V30 78 1 42 75
M  V30 79 1 43 76
M  V30 80 1 44 77
M  V30 81 1 46 78
M  V30 END BOND
M  V30 END CTAB
M  END
>  <Dataset>  (539) 
ChEMBL_Kinases

>  <Ligand_Instance>  (539) 
nan

>  <PDB_ID>  (539) 
nan

>  <Standardized_SMILES>  (539) 
CC(C)(C)C(=O)OCOC(=O)c1cccc(O)c1C(=O)c1c(O)cc(C(=O)O[C@@H]2CNC[C@H]2NC(=O)c2ccc(O)cc2)cc1O

>  <Name>  (539) 
nan

>  <Pocket>  (539) 
nan

>  <ATP_Site>  (539) 
nan

>  <Peripheral>  (539) 
nan

>  <Num_H_Atoms_ProtBoundConf>  (539) 
nan

>  <Num_Resolved_Atoms>  (539) 
nan

>  <Num_Not_Resolved_Atoms>  (539) 
nan

$$$$
CHEMBL1872011
     RDKit          3D

  0  0  0  0  0  0  0  0  0  0999 V3000
M  V30 BEGIN CTAB
M  V30 COUNTS 37 40 0 0 0
M  V30 BEGIN ATOM
M  V30 1 C 0.515620 -3.368069 2.888051 0
M  V30 2 C -0.581488 -3.806784 2.144180 0
M  V30 3 N -0.484524 -3.973815 0.815334 0
M  V30 4 C 0.672161 -3.722519 0.154779 0
M  V30 5 C 1.749549 -3.289708 0.886985 0
M  V30 6 C 3.034011 -3.008008 0.151094 0
M  V30 7 N 3.107953 -1.643311 -0.256985 0
M  V30 8 C 2.521403 -0.613970 -1.033770 0
M  V30 9 C 2.843313 -0.061126 -2.250547 0
M  V30 10 C 2.039279 0.946638 -2.748547 0
M  V30 11 N 0.976829 1.342241 -2.023486 0
M  V30 12 C 0.630789 0.830221 -0.838255 0
M  V30 13 C -0.537049 1.289382 -0.062856 0
M  V30 14 C -1.316380 2.347137 -0.475806 0
M  V30 15 C -2.402260 2.733398 0.306491 0
M  V30 16 C -2.672416 2.042664 1.483411 0
M  V30 17 C -3.657032 2.165182 2.470973 0
M  V30 18 N -3.411695 1.201295 3.381303 0
M  V30 19 N -2.354397 0.480504 3.051060 0
M  V30 20 C -1.886751 0.973645 1.900816 0
M  V30 21 C -0.818358 0.613336 1.106928 0
M  V30 22 N 1.434493 -0.145517 -0.385016 0
M  V30 23 C 1.738906 -3.091499 2.265106 0
M  V30 24 H 0.365753 -3.256295 3.956189 0
M  V30 25 H -1.535589 -4.029634 2.571301 0
M  V30 26 H 0.796633 -3.843138 -0.928128 0
M  V30 27 H 3.180996 -3.689748 -0.684627 0
M  V30 28 H 3.863424 -3.212691 0.870077 0
M  V30 29 H 3.896203 -1.026699 0.107637 0
M  V30 30 H 3.735035 -0.522344 -2.668584 0
M  V30 31 H 2.347330 1.331994 -3.700523 0
M  V30 32 H -1.096839 2.883317 -1.392335 0
M  V30 33 H -3.056960 3.557500 0.046170 0
M  V30 34 H -4.416646 2.924999 2.409182 0
M  V30 35 H -2.008518 -0.325691 3.648292 0
M  V30 36 H -0.187610 -0.234121 1.427886 0
M  V30 37 H 2.572482 -2.755193 2.849191 0
M  V30 END ATOM
M  V30 BEGIN BOND
M  V30 1 2 1 2
M  V30 2 1 2 3
M  V30 3 2 3 4
M  V30 4 1 4 5
M  V30 5 1 5 6
M  V30 6 1 6 7
M  V30 7 1 7 8
M  V30 8 2 8 9
M  V30 9 1 9 10
M  V30 10 2 10 11
M  V30 11 1 11 12
M  V30 12 1 12 13
M  V30 13 2 13 14
M  V30 14 1 14 15
M  V30 15 2 15 16
M  V30 16 1 16 17
M  V30 17 2 17 18
M  V30 18 1 18 19
M  V30 19 1 19 20
M  V30 20 2 20 21
M  V30 21 2 12 22
M  V30 22 2 5 23
M  V30 23 1 23 1
M  V30 24 1 22 8
M  V30 25 1 21 13
M  V30 26 1 20 16
M  V30 27 1 1 24
M  V30 28 1 2 25
M  V30 29 1 4 26
M  V30 30 1 6 27
M  V30 31 1 6 28
M  V30 32 1 7 29
M  V30 33 1 9 30
M  V30 34 1 10 31
M  V30 35 1 14 32
M  V30 36 1 15 33
M  V30 37 1 17 34
M  V30 38 1 19 35
M  V30 39 1 21 36
M  V30 40 1 23 37
M  V30 END BOND
M  V30 END CTAB
M  END
>  <Dataset>  (540) 
ChEMBL_Kinases

>  <Ligand_Instance>  (540) 
nan

>  <PDB_ID>  (540) 
nan

>  <Standardized_SMILES>  (540) 
c1cncc(CNc2ccnc(-c3ccc4cn[nH]c4c3)n2)c1

>  <Name>  (540) 
nan

>  <Pocket>  (540) 
nan

>  <ATP_Site>  (540) 
nan

>  <Peripheral>  (540) 
nan

>  <Num_H_Atoms_ProtBoundConf>  (540) 
nan

>  <Num_Resolved_Atoms>  (540) 
nan

>  <Num_Not_Resolved_Atoms>  (540) 
nan

$$$$
CHEMBL2071201
     RDKit          3D

  0  0  0  0  0  0  0  0  0  0999 V3000
M  V30 BEGIN CTAB
M  V30 COUNTS 43 46 0 0 0
M  V30 BEGIN ATOM
M  V30 1 C 0.171510 -2.851292 5.044797 0
M  V30 2 N -0.176599 -1.438191 5.141933 0
M  V30 3 C -0.149878 -0.532801 4.154717 0
M  V30 4 C -0.545785 0.698679 4.628208 0
M  V30 5 N -0.667592 1.936167 3.944146 0
M  V30 6 C -0.390091 2.153564 2.567992 0
M  V30 7 N -0.529311 3.357269 1.990136 0
M  V30 8 C -0.276066 3.589630 0.702885 0
M  V30 9 C 0.147249 2.503701 -0.025354 0
M  V30 10 Br 0.542591 2.817519 -1.841778 0
M  V30 11 C 0.311171 1.243366 0.499919 0
M  V30 12 N 0.721438 0.079738 -0.205844 0
M  V30 13 C 1.037647 -0.282906 -1.537243 0 CFG=1
M  V30 14 C 1.709754 -1.649687 -1.696111 0 CFG=1
M  V30 15 C 2.390394 -2.144363 -0.515834 0
M  V30 16 N 2.302234 -2.544920 0.836759 0
M  V30 17 O 3.648325 -2.390543 -0.501865 0
M  V30 18 C 0.654598 -2.518066 -2.264380 0 CFG=2
M  V30 19 C 0.578975 -2.240812 -3.737132 0
M  V30 20 C 0.286673 -0.919912 -3.743286 0
M  V30 21 C -0.191530 -0.475598 -2.406116 0 CFG=1
M  V30 22 C -0.636591 -1.846117 -1.848591 0
M  V30 23 N 0.024825 1.137645 1.805678 0
M  V30 24 C -0.810354 0.474670 5.956375 0
M  V30 25 N -0.578729 -0.808313 6.222943 0
M  V30 26 H -0.514483 -3.382522 4.343476 0
M  V30 27 H 1.229120 -2.989823 4.731165 0
M  V30 28 H 0.027669 -3.333480 6.024088 0
M  V30 29 H 0.143767 -0.787813 3.167280 0
M  V30 30 H -0.990914 2.777095 4.490018 0
M  V30 31 H -0.397704 4.557882 0.278549 0
M  V30 32 H 0.829296 -0.776359 0.375677 0
M  V30 33 H 1.664855 0.481338 -2.008482 0
M  V30 34 H 2.502410 -1.532663 -2.497396 0
M  V30 35 H 2.415240 -1.977760 1.704308 0
M  V30 36 H 2.101088 -3.505971 1.216119 0
M  V30 37 H 0.704010 -3.574322 -2.024010 0
M  V30 38 H 0.710434 -2.872949 -4.603452 0
M  V30 39 H 0.377985 -0.235204 -4.602561 0
M  V30 40 H -0.958482 0.253853 -2.369467 0
M  V30 41 H -0.802881 -1.808534 -0.774481 0
M  V30 42 H -1.491132 -2.181235 -2.456314 0
M  V30 43 H -1.150170 1.160660 6.721317 0
M  V30 END ATOM
M  V30 BEGIN BOND
M  V30 1 1 1 2
M  V30 2 1 2 3
M  V30 3 2 3 4
M  V30 4 1 4 5
M  V30 5 1 5 6
M  V30 6 2 6 7
M  V30 7 1 7 8
M  V30 8 2 8 9
M  V30 9 1 9 10
M  V30 10 1 9 11
M  V30 11 1 11 12
M  V30 12 1 12 13
M  V30 13 1 13 14
M  V30 14 1 14 15
M  V30 15 1 15 16
M  V30 16 2 15 17
M  V30 17 1 14 18
M  V30 18 1 18 19
M  V30 19 2 19 20
M  V30 20 1 20 21
M  V30 21 1 21 22
M  V30 22 2 11 23
M  V30 23 1 4 24
M  V30 24 2 24 25
M  V30 25 1 25 2
M  V30 26 1 23 6
M  V30 27 1 21 13
M  V30 28 1 22 18
M  V30 29 1 1 26
M  V30 30 1 1 27
M  V30 31 1 1 28
M  V30 32 1 3 29
M  V30 33 1 5 30
M  V30 34 1 8 31
M  V30 35 1 12 32
M  V30 36 1 13 33 CFG=3
M  V30 37 1 14 34 CFG=3
M  V30 38 1 16 35
M  V30 39 1 16 36
M  V30 40 1 18 37 CFG=3
M  V30 41 1 19 38
M  V30 42 1 20 39
M  V30 43 1 21 40 CFG=3
M  V30 44 1 22 41
M  V30 45 1 22 42
M  V30 46 1 24 43
M  V30 END BOND
M  V30 END CTAB
M  END
>  <Dataset>  (541) 
ChEMBL_Kinases

>  <Ligand_Instance>  (541) 
nan

>  <PDB_ID>  (541) 
nan

>  <Standardized_SMILES>  (541) 
Cn1cc(Nc2ncc(Br)c(N[C@H]3[C@@H](C(N)=O)[C@@H]4C=C[C@H]3C4)n2)cn1

>  <Name>  (541) 
nan

>  <Pocket>  (541) 
nan

>  <ATP_Site>  (541) 
nan

>  <Peripheral>  (541) 
nan

>  <Num_H_Atoms_ProtBoundConf>  (541) 
nan

>  <Num_Resolved_Atoms>  (541) 
nan

>  <Num_Not_Resolved_Atoms>  (541) 
nan

$$$$
CHEMBL4289707
     RDKit          3D

  0  0  0  0  0  0  0  0  0  0999 V3000
M  V30 BEGIN CTAB
M  V30 COUNTS 68 72 0 0 0
M  V30 BEGIN ATOM
M  V30 1 N -5.735176 0.078859 -2.978966 0
M  V30 2 C -5.153787 0.772530 -2.239350 0
M  V30 3 C -4.432150 1.613130 -1.332002 0
M  V30 4 C -5.161421 2.606336 -0.736639 0
M  V30 5 N -4.573576 3.436203 0.131511 0
M  V30 6 C -3.255467 3.269910 0.404256 0
M  V30 7 N -2.331561 3.890574 1.268244 0
M  V30 8 C -1.105613 4.476279 1.677715 0
M  V30 9 C 0.125123 3.687294 1.454628 0
M  V30 10 C 0.603047 3.007461 2.571099 0
M  V30 11 C 1.746083 2.225523 2.553330 0
M  V30 12 C 2.485835 2.081377 1.394577 0
M  V30 13 C 2.007659 2.762112 0.277664 0
M  V30 14 C 0.855424 3.549199 0.295431 0
M  V30 15 O 0.398923 4.210766 -0.808859 0
M  V30 16 C 1.011203 4.241062 -2.065547 0
M  V30 17 F 1.187872 3.036386 -2.668812 0
M  V30 18 F 0.260805 5.057308 -2.913257 0
M  V30 19 F 2.263621 4.855352 -1.943633 0
M  V30 20 N -2.608758 2.285512 -0.209408 0
M  V30 21 C -3.095770 1.404069 -1.089281 0
M  V30 22 N -2.391681 0.315455 -1.739058 0
M  V30 23 C -1.020586 0.373051 -1.280194 0
M  V30 24 C -0.209577 -0.797483 -1.709871 0 CFG=2
M  V30 25 C -0.154591 -0.888069 -3.194084 0
M  V30 26 C 0.630486 -2.126630 -3.562466 0 CFG=2
M  V30 27 C -0.094210 -3.350644 -3.031874 0
M  V30 28 C -0.193551 -3.314011 -1.551942 0 CFG=2
M  V30 29 C -0.932210 -2.029927 -1.170218 0
M  V30 30 C 1.106057 -3.220858 -0.800212 0 CFG=1
M  V30 31 N 1.836906 -4.411205 -0.693318 0
M  V30 32 C 1.124630 -5.550662 -0.239537 0
M  V30 33 C 0.630486 -5.523196 1.165055 0
M  V30 34 O 1.577826 -5.387849 2.144286 0
M  V30 35 C 1.876506 -2.075390 -1.394171 0 CFG=1
M  V30 36 C 1.980655 -2.125919 -2.904333 0
M  V30 37 C 1.174720 -0.748772 -1.095492 0
M  V30 38 H -6.189948 2.857459 -0.845113 0
M  V30 39 H -2.984602 3.902595 2.090222 0
M  V30 40 H -0.950813 5.411314 1.039843 0
M  V30 41 H -1.130961 4.869407 2.730024 0
M  V30 42 H 0.120451 3.041010 3.515970 0
M  V30 43 H 2.146123 1.685456 3.391714 0
M  V30 44 H 3.371465 1.505951 1.287733 0
M  V30 45 H 2.541720 2.693206 -0.661534 0
M  V30 46 H -2.931237 -0.279372 -2.368364 0
M  V30 47 H -0.525309 1.325850 -1.604665 0
M  V30 48 H -0.986644 0.374003 -0.146946 0
M  V30 49 H -1.200866 -1.006044 -3.578216 0
M  V30 50 H 0.338014 0.011719 -3.601249 0
M  V30 51 H 0.747522 -2.256999 -4.640426 0
M  V30 52 H 0.437886 -4.237391 -3.430141 0
M  V30 53 H -1.126561 -3.379670 -3.431294 0
M  V30 54 H -0.856451 -4.129054 -1.194065 0
M  V30 55 H -0.879346 -1.949083 -0.053283 0
M  V30 56 H -2.000536 -2.054764 -1.448819 0
M  V30 57 H 0.821970 -2.873020 0.237103 0
M  V30 58 H 2.677754 -4.537929 -1.244335 0
M  V30 59 H 1.845939 -6.425224 -0.320450 0
M  V30 60 H 0.271079 -5.849039 -0.883853 0
M  V30 61 H -0.162901 -4.716188 1.263733 0
M  V30 62 H 0.037001 -6.457952 1.398823 0
M  V30 63 H 1.201312 -4.815475 2.864842 0
M  V30 64 H 2.925752 -2.010875 -1.028604 0
M  V30 65 H 2.586078 -2.982350 -3.258143 0
M  V30 66 H 2.519069 -1.220157 -3.231879 0
M  V30 67 H 1.754529 0.019397 -1.663900 0
M  V30 68 H 1.127400 -0.527055 -0.035150 0
M  V30 END ATOM
M  V30 BEGIN BOND
M  V30 1 3 1 2
M  V30 2 1 2 3
M  V30 3 2 3 4
M  V30 4 1 4 5
M  V30 5 2 5 6
M  V30 6 1 6 7
M  V30 7 1 7 8
M  V30 8 1 8 9
M  V30 9 2 9 10
M  V30 10 1 10 11
M  V30 11 2 11 12
M  V30 12 1 12 13
M  V30 13 2 13 14
M  V30 14 1 14 15
M  V30 15 1 15 16
M  V30 16 1 16 17
M  V30 17 1 16 18
M  V30 18 1 16 19
M  V30 19 1 6 20
M  V30 20 2 20 21
M  V30 21 1 21 22
M  V30 22 1 22 23
M  V30 23 1 24 23 CFG=3
M  V30 24 1 24 25
M  V30 25 1 25 26
M  V30 26 1 26 27
M  V30 27 1 27 28
M  V30 28 1 28 29
M  V30 29 1 28 30
M  V30 30 1 30 31
M  V30 31 1 31 32
M  V30 32 1 32 33
M  V30 33 1 33 34
M  V30 34 1 30 35
M  V30 35 1 35 36
M  V30 36 1 35 37
M  V30 37 1 21 3
M  V30 38 1 29 24
M  V30 39 1 14 9
M  V30 40 1 37 24
M  V30 41 1 36 26
M  V30 42 1 4 38
M  V30 43 1 7 39
M  V30 44 1 8 40
M  V30 45 1 8 41
M  V30 46 1 10 42
M  V30 47 1 11 43
M  V30 48 1 12 44
M  V30 49 1 13 45
M  V30 50 1 22 46
M  V30 51 1 23 47
M  V30 52 1 23 48
M  V30 53 1 25 49
M  V30 54 1 25 50
M  V30 55 1 26 51 CFG=3
M  V30 56 1 27 52
M  V30 57 1 27 53
M  V30 58 1 28 54 CFG=1
M  V30 59 1 29 55
M  V30 60 1 29 56
M  V30 61 1 30 57 CFG=1
M  V30 62 1 31 58
M  V30 63 1 32 59
M  V30 64 1 32 60
M  V30 65 1 33 61
M  V30 66 1 33 62
M  V30 67 1 34 63
M  V30 68 1 35 64 CFG=1
M  V30 69 1 36 65
M  V30 70 1 36 66
M  V30 71 1 37 67
M  V30 72 1 37 68
M  V30 END BOND
M  V30 END CTAB
M  END
>  <Dataset>  (542) 
ChEMBL_Kinases

>  <Ligand_Instance>  (542) 
nan

>  <PDB_ID>  (542) 
nan

>  <Standardized_SMILES>  (542) 
N#Cc1cnc(NCc2ccccc2OC(F)(F)F)nc1NC[C@]12C[C@@H]3C[C@H](C1)[C@@H](NCCO)[C@@H](C3)C2

>  <Name>  (542) 
nan

>  <Pocket>  (542) 
nan

>  <ATP_Site>  (542) 
nan

>  <Peripheral>  (542) 
nan

>  <Num_H_Atoms_ProtBoundConf>  (542) 
nan

>  <Num_Resolved_Atoms>  (542) 
nan

>  <Num_Not_Resolved_Atoms>  (542) 
nan

$$$$
CHEMBL522428
     RDKit          3D

  0  0  0  0  0  0  0  0  0  0999 V3000
M  V30 BEGIN CTAB
M  V30 COUNTS 54 56 0 0 0
M  V30 BEGIN ATOM
M  V30 1 C 1.473037 -1.562244 4.923053 0
M  V30 2 C 2.094000 -1.966952 3.629464 0
M  V30 3 C 1.502378 -3.143605 2.973904 0
M  V30 4 C 3.108907 -1.256504 3.173205 0
M  V30 5 C 3.642456 -0.079160 3.904827 0
M  V30 6 C 4.723891 0.398444 2.958514 0
M  V30 7 C 5.947428 0.877357 3.683533 0
M  V30 8 O 6.488001 -0.075290 4.516927 0
M  V30 9 C 4.123079 1.468096 2.080155 0
M  V30 10 O 2.954432 1.026828 1.430039 0
M  V30 11 C 2.233185 1.845336 0.570990 0
M  V30 12 O 2.651226 3.017119 0.378015 0
M  V30 13 C 1.031332 1.290421 -0.055172 0
M  V30 14 C 0.613417 0.000269 0.187598 0
M  V30 15 C -0.516434 -0.534962 -0.395343 0
M  V30 16 C -1.274776 0.229647 -1.258289 0
M  V30 17 C -2.450930 -0.340457 -1.859658 0
M  V30 18 C -3.447633 -0.819997 -2.345853 0
M  V30 19 C -4.647774 -1.377461 -2.908654 0
M  V30 20 C -4.824580 -1.583083 -4.260406 0
M  V30 21 C -6.003679 -2.126075 -4.765146 0
M  V30 22 C -7.029129 -2.472072 -3.907116 0
M  V30 23 C -8.332892 -3.059750 -4.334453 0
M  V30 24 C -6.817289 -2.252539 -2.563209 0
M  V30 25 C -5.668040 -1.717808 -2.014889 0
M  V30 26 C -0.891505 1.546165 -1.536889 0
M  V30 27 C 0.261869 2.044791 -0.921770 0
M  V30 28 O 5.054342 -0.716595 2.173485 0
M  V30 29 C 3.882157 -1.432187 1.959114 0
M  V30 30 O 3.516612 -2.104933 0.951412 0
M  V30 31 H 1.497616 -0.459207 5.047676 0
M  V30 32 H 0.386746 -1.821206 4.928700 0
M  V30 33 H 1.999862 -2.050987 5.764419 0
M  V30 34 H 1.668021 -3.190723 1.883523 0
M  V30 35 H 1.914956 -4.046439 3.499690 0
M  V30 36 H 0.399907 -3.145152 3.127799 0
M  V30 37 H 4.097386 -0.445691 4.855359 0
M  V30 38 H 2.927730 0.729733 4.053935 0
M  V30 39 H 6.707430 1.087929 2.874990 0
M  V30 40 H 5.778731 1.855030 4.181560 0
M  V30 41 H 6.058659 -0.960200 4.385524 0
M  V30 42 H 4.883750 1.740420 1.308858 0
M  V30 43 H 3.875784 2.372152 2.639196 0
M  V30 44 H 1.195284 -0.626150 0.866404 0
M  V30 45 H -0.772391 -1.559802 -0.148163 0
M  V30 46 H -4.018744 -1.310315 -4.925705 0
M  V30 47 H -6.157752 -2.293619 -5.823509 0
M  V30 48 H -9.039066 -2.282940 -4.627914 0
M  V30 49 H -8.727834 -3.700020 -3.499430 0
M  V30 50 H -8.114910 -3.713084 -5.215613 0
M  V30 51 H -7.590426 -2.504616 -1.826051 0
M  V30 52 H -5.558308 -1.568181 -0.949794 0
M  V30 53 H -1.479685 2.167491 -2.218070 0
M  V30 54 H 0.561125 3.079325 -1.142072 0
M  V30 END ATOM
M  V30 BEGIN BOND
M  V30 1 1 1 2
M  V30 2 1 2 3
M  V30 3 2 2 4 CFG=2
M  V30 4 1 4 5
M  V30 5 1 5 6
M  V30 6 1 6 7
M  V30 7 1 7 8
M  V30 8 1 6 9
M  V30 9 1 9 10
M  V30 10 1 10 11
M  V30 11 2 11 12
M  V30 12 1 11 13
M  V30 13 2 13 14
M  V30 14 1 14 15
M  V30 15 2 15 16
M  V30 16 1 16 17
M  V30 17 3 17 18
M  V30 18 1 18 19
M  V30 19 2 19 20
M  V30 20 1 20 21
M  V30 21 2 21 22
M  V30 22 1 22 23
M  V30 23 1 22 24
M  V30 24 2 24 25
M  V30 25 1 16 26
M  V30 26 2 26 27
M  V30 27 1 6 28
M  V30 28 1 28 29
M  V30 29 2 29 30
M  V30 30 1 29 4
M  V30 31 1 27 13
M  V30 32 1 25 19
M  V30 33 1 1 31
M  V30 34 1 1 32
M  V30 35 1 1 33
M  V30 36 1 3 34
M  V30 37 1 3 35
M  V30 38 1 3 36
M  V30 39 1 5 37
M  V30 40 1 5 38
M  V30 41 1 7 39
M  V30 42 1 7 40
M  V30 43 1 8 41
M  V30 44 1 9 42
M  V30 45 1 9 43
M  V30 46 1 14 44
M  V30 47 1 15 45
M  V30 48 1 20 46
M  V30 49 1 21 47
M  V30 50 1 23 48
M  V30 51 1 23 49
M  V30 52 1 23 50
M  V30 53 1 24 51
M  V30 54 1 25 52
M  V30 55 1 26 53
M  V30 56 1 27 54
M  V30 END BOND
M  V30 END CTAB
M  END
>  <Dataset>  (543) 
ChEMBL_Kinases

>  <Ligand_Instance>  (543) 
nan

>  <PDB_ID>  (543) 
nan

>  <Standardized_SMILES>  (543) 
CC(C)=C1CC(CO)(COC(=O)c2ccc(C#Cc3ccc(C)cc3)cc2)OC1=O

>  <Name>  (543) 
nan

>  <Pocket>  (543) 
nan

>  <ATP_Site>  (543) 
nan

>  <Peripheral>  (543) 
nan

>  <Num_H_Atoms_ProtBoundConf>  (543) 
nan

>  <Num_Resolved_Atoms>  (543) 
nan

>  <Num_Not_Resolved_Atoms>  (543) 
nan

$$$$
CHEMBL304626
     RDKit          3D

  0  0  0  0  0  0  0  0  0  0999 V3000
M  V30 BEGIN CTAB
M  V30 COUNTS 63 66 0 0 0
M  V30 BEGIN ATOM
M  V30 1 C 3.312541 1.033136 5.619292 0
M  V30 2 O 4.279624 1.038425 4.596149 0
M  V30 3 C 4.045917 1.196352 3.248024 0
M  V30 4 O 2.956028 1.250420 3.800269 0
M  V30 5 C 5.055562 1.199554 2.200846 0
M  V30 6 C 6.330877 1.146401 2.699458 0
M  V30 7 C 7.307478 1.272297 1.742219 0
M  V30 8 C 7.015177 1.435831 0.414740 0
M  V30 9 C 5.700328 1.477990 -0.011358 0
M  V30 10 O 5.532616 1.650506 -1.400293 0
M  V30 11 C 4.654946 1.355194 0.896340 0
M  V30 12 C 3.331009 1.457321 0.365654 0
M  V30 13 O 3.338487 2.171506 -0.705342 0
M  V30 14 C 1.973848 1.047454 0.591568 0
M  V30 15 C 0.943416 1.799843 0.077937 0
M  V30 16 O 1.136154 3.007777 -0.611715 0
M  V30 17 C -0.386131 1.392504 0.218502 0
M  V30 18 C -0.675444 0.223702 0.878116 0
M  V30 19 C -2.081265 -0.128173 0.983130 0
M  V30 20 O -2.970618 0.597780 0.497422 0
M  V30 21 O -2.654598 -1.224401 1.580624 0
M  V30 22 C -4.024413 -1.481104 1.632764 0 CFG=2
M  V30 23 C -4.577823 -1.740550 2.996669 0
M  V30 24 N -5.819273 -2.437741 2.699433 0
M  V30 25 C -5.475618 -3.362762 1.634234 0
M  V30 26 C -4.228089 -2.848515 0.973200 0 CFG=1
M  V30 27 N -4.344177 -2.613746 -0.432010 0
M  V30 28 C -3.383112 -3.207843 -1.296541 0
M  V30 29 O -2.490307 -3.908191 -0.727487 0
M  V30 30 C -3.475111 -2.986276 -2.736430 0
M  V30 31 C -4.414283 -2.238775 -3.426651 0
M  V30 32 C -4.331571 -2.148676 -4.802871 0
M  V30 33 C -3.355237 -2.768615 -5.533610 0
M  V30 34 O -3.312093 -2.648651 -6.923410 0
M  V30 35 C -2.413460 -3.515817 -4.863488 0
M  V30 36 C -2.493907 -3.607246 -3.489864 0
M  V30 37 C 0.320139 -0.564330 1.407995 0
M  V30 38 C 1.611928 -0.114611 1.238979 0
M  V30 39 O 2.510266 -1.007870 1.809734 0
M  V30 40 H 3.905302 0.882228 6.573972 0
M  V30 41 H 2.807163 2.003878 5.779954 0
M  V30 42 H 2.634514 0.158375 5.593991 0
M  V30 43 H 6.577589 1.018572 3.739138 0
M  V30 44 H 8.350316 1.244134 2.016578 0
M  V30 45 H 7.825206 1.531449 -0.290930 0
M  V30 46 H 5.329713 0.768752 -1.889038 0
M  V30 47 H 1.430945 3.792547 -0.034614 0
M  V30 48 H -1.176735 2.007662 -0.197204 0
M  V30 49 H -4.647130 -0.717657 1.143870 0
M  V30 50 H -4.782303 -0.811616 3.568160 0
M  V30 51 H -3.960038 -2.474092 3.569087 0
M  V30 52 H -6.534901 -1.765952 2.322941 0
M  V30 53 H -5.326145 -4.366942 2.097352 0
M  V30 54 H -6.312589 -3.499762 0.910864 0
M  V30 55 H -3.381389 -3.484012 1.257768 0
M  V30 56 H -5.133445 -2.013868 -0.758276 0
M  V30 57 H -5.159306 -1.773885 -2.793379 0
M  V30 58 H -5.089216 -1.553191 -5.291250 0
M  V30 59 H -2.553742 -2.123813 -7.384278 0
M  V30 60 H -1.615494 -4.026675 -5.423288 0
M  V30 61 H -1.715214 -4.214447 -3.031878 0
M  V30 62 H 0.003937 -1.465120 1.909433 0
M  V30 63 H 2.417687 -1.249230 2.789096 0
M  V30 END ATOM
M  V30 BEGIN BOND
M  V30 1 1 1 2
M  V30 2 1 2 3
M  V30 3 2 3 4
M  V30 4 1 3 5
M  V30 5 2 5 6
M  V30 6 1 6 7
M  V30 7 2 7 8
M  V30 8 1 8 9
M  V30 9 1 9 10
M  V30 10 2 9 11
M  V30 11 1 11 12
M  V30 12 2 12 13
M  V30 13 1 12 14
M  V30 14 2 14 15
M  V30 15 1 15 16
M  V30 16 1 15 17
M  V30 17 2 17 18
M  V30 18 1 18 19
M  V30 19 2 19 20
M  V30 20 1 19 21
M  V30 21 1 21 22
M  V30 22 1 22 23
M  V30 23 1 23 24
M  V30 24 1 24 25
M  V30 25 1 25 26
M  V30 26 1 26 27
M  V30 27 1 27 28
M  V30 28 2 28 29
M  V30 29 1 28 30
M  V30 30 2 30 31
M  V30 31 1 31 32
M  V30 32 2 32 33
M  V30 33 1 33 34
M  V30 34 1 33 35
M  V30 35 2 35 36
M  V30 36 1 18 37
M  V30 37 2 37 38
M  V30 38 1 38 39
M  V30 39 1 11 5
M  V30 40 1 38 14
M  V30 41 1 26 22
M  V30 42 1 36 30
M  V30 43 1 1 40
M  V30 44 1 1 41
M  V30 45 1 1 42
M  V30 46 1 6 43
M  V30 47 1 7 44
M  V30 48 1 8 45
M  V30 49 1 10 46
M  V30 50 1 16 47
M  V30 51 1 17 48
M  V30 52 1 22 49 CFG=3
M  V30 53 1 23 50
M  V30 54 1 23 51
M  V30 55 1 24 52
M  V30 56 1 25 53
M  V30 57 1 25 54
M  V30 58 1 26 55 CFG=3
M  V30 59 1 27 56
M  V30 60 1 31 57
M  V30 61 1 32 58
M  V30 62 1 34 59
M  V30 63 1 35 60
M  V30 64 1 36 61
M  V30 65 1 37 62
M  V30 66 1 39 63
M  V30 END BOND
M  V30 END CTAB
M  END
>  <Dataset>  (544) 
ChEMBL_Kinases

>  <Ligand_Instance>  (544) 
nan

>  <PDB_ID>  (544) 
nan

>  <Standardized_SMILES>  (544) 
COC(=O)c1cccc(O)c1C(=O)c1c(O)cc(C(=O)O[C@@H]2CNC[C@H]2NC(=O)c2ccc(O)cc2)cc1O

>  <Name>  (544) 
nan

>  <Pocket>  (544) 
nan

>  <ATP_Site>  (544) 
nan

>  <Peripheral>  (544) 
nan

>  <Num_H_Atoms_ProtBoundConf>  (544) 
nan

>  <Num_Resolved_Atoms>  (544) 
nan

>  <Num_Not_Resolved_Atoms>  (544) 
nan

$$$$
CHEMBL1908392
     RDKit          3D

  0  0  0  0  0  0  0  0  0  0999 V3000
M  V30 BEGIN CTAB
M  V30 COUNTS 67 71 0 0 0
M  V30 BEGIN ATOM
M  V30 1 C 3.496430 -0.204523 3.947825 0
M  V30 2 N 4.449123 -0.847870 3.103622 0
M  V30 3 C 3.826632 -1.702528 2.145357 0
M  V30 4 C 4.348868 -1.484543 0.746450 0
M  V30 5 N 4.369850 -0.083698 0.384844 0
M  V30 6 C 3.031858 0.428372 0.144321 0
M  V30 7 C 3.136288 1.851098 -0.333769 0
M  V30 8 O 4.350309 2.244527 -0.460113 0
M  V30 9 N 1.981140 2.629735 -0.603311 0
M  V30 10 C 2.264485 3.973629 -1.061696 0
M  V30 11 C 0.678482 2.032409 -0.408858 0
M  V30 12 C 0.211037 2.182666 0.903261 0
M  V30 13 C -1.034584 1.671997 1.244921 0
M  V30 14 C -1.830224 1.012284 0.313265 0
M  V30 15 N -3.121273 0.472144 0.632920 0
M  V30 16 C -3.230917 -0.886336 0.249999 0
M  V30 17 C -3.994046 -1.185939 -0.783701 0
M  V30 18 C -4.802929 -0.344855 -1.657126 0
M  V30 19 O -4.875901 0.914496 -1.437795 0
M  V30 20 N -5.418142 -1.117918 -2.681443 0
M  V30 21 C -4.976744 -2.470781 -2.434388 0
M  V30 22 C -5.304433 -3.587959 -3.183317 0
M  V30 23 C -4.785220 -4.820698 -2.833318 0
M  V30 24 C -3.935995 -4.896637 -1.721366 0
M  V30 25 C -3.649785 -3.747612 -1.018212 0
M  V30 26 C -4.149448 -2.507660 -1.334636 0
M  V30 27 C -2.585221 -1.816077 1.122249 0
M  V30 28 C -1.255835 -2.072518 1.444068 0
M  V30 29 C -0.967066 -3.012236 2.417384 0
M  V30 30 C -1.947702 -3.711043 3.086265 0
M  V30 31 C -3.293630 -3.478667 2.788595 0
M  V30 32 C -3.585042 -2.529987 1.805702 0
M  V30 33 C -1.316445 0.897243 -0.958810 0
M  V30 34 C -0.096589 1.376861 -1.365480 0
M  V30 35 C 5.054970 0.717387 1.385497 0
M  V30 36 C 5.473396 0.002112 2.616822 0
M  V30 37 H 3.082013 -1.014766 4.619717 0
M  V30 38 H 2.592213 0.178386 3.421304 0
M  V30 39 H 3.958439 0.537793 4.625813 0
M  V30 40 H 4.047206 -2.763040 2.431832 0
M  V30 41 H 2.733890 -1.586357 2.173419 0
M  V30 42 H 5.372423 -1.902114 0.700617 0
M  V30 43 H 3.708326 -2.038962 0.047911 0
M  V30 44 H 2.586951 -0.135033 -0.674023 0
M  V30 45 H 2.426961 0.478837 1.064323 0
M  V30 46 H 3.044065 3.962698 -1.877671 0
M  V30 47 H 1.395984 4.473351 -1.540428 0
M  V30 48 H 2.647706 4.619941 -0.221195 0
M  V30 49 H 0.783615 2.685937 1.695777 0
M  V30 50 H -1.413377 1.785974 2.272141 0
M  V30 51 H -3.933502 0.967699 1.083716 0
M  V30 52 H -6.029594 -0.659771 -3.391336 0
M  V30 53 H -5.957268 -3.536365 -4.038917 0
M  V30 54 H -5.034678 -5.704060 -3.411723 0
M  V30 55 H -3.577718 -5.901647 -1.520753 0
M  V30 56 H -2.975495 -3.987749 -0.247048 0
M  V30 57 H -0.618971 -1.449222 0.836183 0
M  V30 58 H 0.099974 -3.100910 2.555570 0
M  V30 59 H -1.611103 -4.433478 3.838656 0
M  V30 60 H -3.985396 -4.070937 3.356848 0
M  V30 61 H -4.675791 -2.466074 1.694109 0
M  V30 62 H -1.877438 0.401178 -1.740722 0
M  V30 63 H 0.357338 1.325300 -2.337015 0
M  V30 64 H 5.945983 1.139912 0.832092 0
M  V30 65 H 4.343372 1.516076 1.704038 0
M  V30 66 H 5.610481 0.806294 3.410773 0
M  V30 67 H 6.448456 -0.525980 2.534737 0
M  V30 END ATOM
M  V30 BEGIN BOND
M  V30 1 1 1 2
M  V30 2 1 2 3
M  V30 3 1 3 4
M  V30 4 1 4 5
M  V30 5 1 5 6
M  V30 6 1 6 7
M  V30 7 2 7 8
M  V30 8 1 7 9
M  V30 9 1 9 10
M  V30 10 1 9 11
M  V30 11 2 11 12
M  V30 12 1 12 13
M  V30 13 2 13 14
M  V30 14 1 14 15
M  V30 15 1 15 16
M  V30 16 2 16 17
M  V30 17 1 17 18
M  V30 18 2 18 19
M  V30 19 1 18 20
M  V30 20 1 20 21
M  V30 21 2 21 22
M  V30 22 1 22 23
M  V30 23 2 23 24
M  V30 24 1 24 25
M  V30 25 2 25 26
M  V30 26 1 16 27
M  V30 27 2 27 28
M  V30 28 1 28 29
M  V30 29 2 29 30
M  V30 30 1 30 31
M  V30 31 2 31 32
M  V30 32 1 14 33
M  V30 33 2 33 34
M  V30 34 1 5 35
M  V30 35 1 35 36
M  V30 36 1 36 2
M  V30 37 1 34 11
M  V30 38 1 26 17
M  V30 39 1 32 27
M  V30 40 1 26 21
M  V30 41 1 1 37
M  V30 42 1 1 38
M  V30 43 1 1 39
M  V30 44 1 3 40
M  V30 45 1 3 41
M  V30 46 1 4 42
M  V30 47 1 4 43
M  V30 48 1 6 44
M  V30 49 1 6 45
M  V30 50 1 10 46
M  V30 51 1 10 47
M  V30 52 1 10 48
M  V30 53 1 12 49
M  V30 54 1 13 50
M  V30 55 1 15 51
M  V30 56 1 20 52
M  V30 57 1 22 53
M  V30 58 1 23 54
M  V30 59 1 24 55
M  V30 60 1 25 56
M  V30 61 1 28 57
M  V30 62 1 29 58
M  V30 63 1 30 59
M  V30 64 1 31 60
M  V30 65 1 32 61
M  V30 66 1 33 62
M  V30 67 1 34 63
M  V30 68 1 35 64
M  V30 69 1 35 65
M  V30 70 1 36 66
M  V30 71 1 36 67
M  V30 END BOND
M  V30 END CTAB
M  END
>  <Dataset>  (545) 
ChEMBL_Kinases

>  <Ligand_Instance>  (545) 
nan

>  <PDB_ID>  (545) 
nan

>  <Standardized_SMILES>  (545) 
CN1CCN(CC(=O)N(C)c2ccc(N/C(=C3\C(=O)Nc4ccccc43)c3ccccc3)cc2)CC1

>  <Name>  (545) 
nan

>  <Pocket>  (545) 
nan

>  <ATP_Site>  (545) 
nan

>  <Peripheral>  (545) 
nan

>  <Num_H_Atoms_ProtBoundConf>  (545) 
nan

>  <Num_Resolved_Atoms>  (545) 
nan

>  <Num_Not_Resolved_Atoms>  (545) 
nan

$$$$
CHEMBL1802844
     RDKit          3D

  0  0  0  0  0  0  0  0  0  0999 V3000
M  V30 BEGIN CTAB
M  V30 COUNTS 38 40 0 0 0
M  V30 BEGIN ATOM
M  V30 1 C -1.521740 -3.314862 0.965163 0
M  V30 2 C -0.038649 -3.566274 0.849215 0
M  V30 3 C 0.179173 -5.055230 0.712602 0
M  V30 4 N 0.649830 -3.089411 2.036719 0
M  V30 5 C 0.736593 -1.698707 2.406543 0
M  V30 6 N 0.464376 -0.844054 1.498588 0
M  V30 7 C 0.590670 0.476890 1.989703 0
M  V30 8 C 0.502697 1.764594 1.616847 0
M  V30 9 C 0.144351 1.877313 0.177988 0
M  V30 10 C -0.800397 1.064408 -0.401007 0
M  V30 11 C -1.010938 1.290852 -1.771097 0
M  V30 12 C -0.332579 2.242192 -2.480584 0
M  V30 13 C 0.590545 3.001716 -1.810063 0
M  V30 14 C 0.892980 2.880035 -0.455413 0
M  V30 15 O 1.168063 3.909234 -2.712044 0
M  V30 16 C 0.263956 3.995533 -3.803066 0
M  V30 17 O -0.313971 2.695104 -3.801991 0
M  V30 18 C 0.996056 0.247413 3.403771 0
M  V30 19 O 1.251505 1.063740 4.334199 0
M  V30 20 N 1.089968 -1.168220 3.672049 0
M  V30 21 C 1.432460 -1.977617 4.822580 0
M  V30 22 H -1.747179 -3.362443 2.065639 0
M  V30 23 H -1.865066 -2.397092 0.478001 0
M  V30 24 H -2.070508 -4.165238 0.460977 0
M  V30 25 H 0.372700 -3.021039 -0.057773 0
M  V30 26 H -0.780868 -5.574264 0.514855 0
M  V30 27 H 0.838778 -5.293521 -0.167880 0
M  V30 28 H 0.558477 -5.483479 1.665980 0
M  V30 29 H 1.124981 -3.789271 2.684843 0
M  V30 30 H 0.663941 2.597963 2.246077 0
M  V30 31 H -1.329287 0.319741 0.172889 0
M  V30 32 H -1.752682 0.675515 -2.282972 0
M  V30 33 H 1.627107 3.502839 0.023233 0
M  V30 34 H -0.501135 4.788811 -3.559574 0
M  V30 35 H 0.785035 4.213081 -4.746844 0
M  V30 36 H 2.062723 -1.439979 5.544754 0
M  V30 37 H 2.041442 -2.837433 4.470679 0
M  V30 38 H 0.511312 -2.349974 5.318597 0
M  V30 END ATOM
M  V30 BEGIN BOND
M  V30 1 1 1 2
M  V30 2 1 2 3
M  V30 3 1 2 4
M  V30 4 1 4 5
M  V30 5 2 5 6
M  V30 6 1 6 7
M  V30 7 2 7 8
M  V30 8 1 8 9
M  V30 9 2 9 10
M  V30 10 1 10 11
M  V30 11 2 11 12
M  V30 12 1 12 13
M  V30 13 2 13 14
M  V30 14 1 13 15
M  V30 15 1 15 16
M  V30 16 1 16 17
M  V30 17 1 7 18
M  V30 18 2 18 19
M  V30 19 1 18 20
M  V30 20 1 20 21
M  V30 21 1 20 5
M  V30 22 1 14 9
M  V30 23 1 17 12
M  V30 24 1 1 22
M  V30 25 1 1 23
M  V30 26 1 1 24
M  V30 27 1 2 25
M  V30 28 1 3 26
M  V30 29 1 3 27
M  V30 30 1 3 28
M  V30 31 1 4 29
M  V30 32 1 8 30
M  V30 33 1 10 31
M  V30 34 1 11 32
M  V30 35 1 14 33
M  V30 36 1 16 34
M  V30 37 1 16 35
M  V30 38 1 21 36
M  V30 39 1 21 37
M  V30 40 1 21 38
M  V30 END BOND
M  V30 END CTAB
M  END
>  <Dataset>  (546) 
ChEMBL_Kinases

>  <Ligand_Instance>  (546) 
nan

>  <PDB_ID>  (546) 
nan

>  <Standardized_SMILES>  (546) 
CC(C)NC1=N/C(=C\c2ccc3c(c2)OCO3)C(=O)N1C

>  <Name>  (546) 
nan

>  <Pocket>  (546) 
nan

>  <ATP_Site>  (546) 
nan

>  <Peripheral>  (546) 
nan

>  <Num_H_Atoms_ProtBoundConf>  (546) 
nan

>  <Num_Resolved_Atoms>  (546) 
nan

>  <Num_Not_Resolved_Atoms>  (546) 
nan

$$$$
CHEMBL1802845
     RDKit          3D

  0  0  0  0  0  0  0  0  0  0999 V3000
M  V30 BEGIN CTAB
M  V30 COUNTS 41 43 0 0 0
M  V30 BEGIN ATOM
M  V30 1 C -0.105308 -3.500264 0.386018 0
M  V30 2 C 1.103790 -3.558069 1.240003 0
M  V30 3 C 0.978715 -3.390849 2.696619 0
M  V30 4 C 0.500473 -2.128162 3.296747 0
M  V30 5 N -0.787076 -1.665362 2.966415 0
M  V30 6 C -1.348541 -1.093529 1.805130 0
M  V30 7 N -0.583025 -0.247495 1.165504 0
M  V30 8 C -1.278346 0.239247 0.028966 0
M  V30 9 C -0.877686 1.106080 -0.870959 0
M  V30 10 C 0.470458 1.700062 -0.752160 0
M  V30 11 C 0.505645 3.042364 -1.083140 0
M  V30 12 C 1.715017 3.712670 -1.013320 0
M  V30 13 C 2.860056 3.016671 -0.612741 0
M  V30 14 C 2.757464 1.675661 -0.295940 0
M  V30 15 C 1.550967 0.965513 -0.354907 0
M  V30 16 O 4.042132 1.281203 0.055504 0
M  V30 17 C 4.864712 2.421465 0.303678 0
M  V30 18 O 4.187515 3.415855 -0.451358 0
M  V30 19 C -2.590782 -0.438362 0.067035 0
M  V30 20 O -3.549372 -0.326163 -0.736688 0
M  V30 21 N -2.623943 -1.287350 1.206673 0
M  V30 22 C -3.646592 -2.166057 1.722434 0
M  V30 23 H -0.034299 -4.331871 -0.415660 0
M  V30 24 H -1.063121 -3.706747 0.864534 0
M  V30 25 H -0.117058 -2.593749 -0.233222 0
M  V30 26 H 1.552761 -4.599123 1.088790 0
M  V30 27 H 1.904752 -2.906773 0.785033 0
M  V30 28 H 2.047008 -3.525661 3.102029 0
M  V30 29 H 0.381729 -4.285649 3.063912 0
M  V30 30 H 0.660808 -2.200491 4.415366 0
M  V30 31 H 1.266396 -1.341868 3.008038 0
M  V30 32 H -1.514793 -1.772558 3.749565 0
M  V30 33 H -1.578779 1.336558 -1.660951 0
M  V30 34 H -0.334515 3.640167 -1.399941 0
M  V30 35 H 1.845106 4.766855 -1.251951 0
M  V30 36 H 1.466332 -0.071422 -0.113694 0
M  V30 37 H 4.880329 2.694454 1.378340 0
M  V30 38 H 5.892760 2.272188 -0.086683 0
M  V30 39 H -3.842605 -2.965823 0.957068 0
M  V30 40 H -4.621769 -1.658273 1.859240 0
M  V30 41 H -3.384479 -2.621392 2.675756 0
M  V30 END ATOM
M  V30 BEGIN BOND
M  V30 1 1 1 2
M  V30 2 1 2 3
M  V30 3 1 3 4
M  V30 4 1 4 5
M  V30 5 1 5 6
M  V30 6 2 6 7
M  V30 7 1 7 8
M  V30 8 2 8 9
M  V30 9 1 9 10
M  V30 10 2 10 11
M  V30 11 1 11 12
M  V30 12 2 12 13
M  V30 13 1 13 14
M  V30 14 2 14 15
M  V30 15 1 14 16
M  V30 16 1 16 17
M  V30 17 1 17 18
M  V30 18 1 8 19
M  V30 19 2 19 20
M  V30 20 1 19 21
M  V30 21 1 21 22
M  V30 22 1 21 6
M  V30 23 1 15 10
M  V30 24 1 18 13
M  V30 25 1 1 23
M  V30 26 1 1 24
M  V30 27 1 1 25
M  V30 28 1 2 26
M  V30 29 1 2 27
M  V30 30 1 3 28
M  V30 31 1 3 29
M  V30 32 1 4 30
M  V30 33 1 4 31
M  V30 34 1 5 32
M  V30 35 1 9 33
M  V30 36 1 11 34
M  V30 37 1 12 35
M  V30 38 1 15 36
M  V30 39 1 17 37
M  V30 40 1 17 38
M  V30 41 1 22 39
M  V30 42 1 22 40
M  V30 43 1 22 41
M  V30 END BOND
M  V30 END CTAB
M  END
>  <Dataset>  (547) 
ChEMBL_Kinases

>  <Ligand_Instance>  (547) 
nan

>  <PDB_ID>  (547) 
nan

>  <Standardized_SMILES>  (547) 
CCCCNC1=N/C(=C\c2ccc3c(c2)OCO3)C(=O)N1C

>  <Name>  (547) 
nan

>  <Pocket>  (547) 
nan

>  <ATP_Site>  (547) 
nan

>  <Peripheral>  (547) 
nan

>  <Num_H_Atoms_ProtBoundConf>  (547) 
nan

>  <Num_Resolved_Atoms>  (547) 
nan

>  <Num_Not_Resolved_Atoms>  (547) 
nan

$$$$
CHEMBL1802846
     RDKit          3D

  0  0  0  0  0  0  0  0  0  0999 V3000
M  V30 BEGIN CTAB
M  V30 COUNTS 41 43 0 0 0
M  V30 BEGIN ATOM
M  V30 1 C 0.150364 -3.095926 0.011853 0
M  V30 2 C 0.780964 -3.769624 1.193349 0
M  V30 3 C -0.201509 -4.822168 1.704244 0
M  V30 4 C 1.119518 -2.775337 2.272338 0
M  V30 5 N -0.096226 -2.122617 2.703441 0
M  V30 6 C -0.873022 -1.176861 1.994878 0
M  V30 7 N -0.262432 -0.205328 1.372364 0
M  V30 8 C -1.275150 0.606961 0.739567 0
M  V30 9 C -1.043771 1.690575 0.028170 0
M  V30 10 C 0.295057 2.211798 -0.211117 0
M  V30 11 C 0.542622 3.564943 -0.216965 0
M  V30 12 C 1.752322 4.130647 -0.435443 0
M  V30 13 C 2.859302 3.348149 -0.676717 0
M  V30 14 C 2.619624 1.967731 -0.673848 0
M  V30 15 C 1.393178 1.391664 -0.451791 0
M  V30 16 O 3.854379 1.336279 -0.937174 0
M  V30 17 C 4.874896 2.261937 -0.578416 0
M  V30 18 O 4.220681 3.488173 -0.938375 0
M  V30 19 C -2.581448 0.045279 1.030709 0
M  V30 20 O -3.727990 0.417463 0.690571 0
M  V30 21 N -2.306014 -1.107453 1.843288 0
M  V30 22 C -3.220130 -2.057865 2.443095 0
M  V30 23 H 0.183672 -3.810166 -0.871704 0
M  V30 24 H -0.915177 -2.852577 0.120321 0
M  V30 25 H 0.683805 -2.167994 -0.302809 0
M  V30 26 H 1.702336 -4.275638 0.801125 0
M  V30 27 H 0.332781 -5.630333 2.250506 0
M  V30 28 H -0.697390 -5.254137 0.829116 0
M  V30 29 H -0.942586 -4.301152 2.314914 0
M  V30 30 H 1.650874 -3.232347 3.121356 0
M  V30 31 H 1.813626 -2.042177 1.799644 0
M  V30 32 H -0.486783 -2.369001 3.651813 0
M  V30 33 H -1.899501 2.229850 -0.405439 0
M  V30 34 H -0.284395 4.264363 -0.033264 0
M  V30 35 H 1.961176 5.202140 -0.440317 0
M  V30 36 H 1.234572 0.328981 -0.455676 0
M  V30 37 H 5.810599 2.130929 -1.130696 0
M  V30 38 H 5.055759 2.266804 0.516563 0
M  V30 39 H -3.490072 -2.897994 1.778350 0
M  V30 40 H -4.196168 -1.561181 2.701523 0
M  V30 41 H -2.839506 -2.452838 3.401735 0
M  V30 END ATOM
M  V30 BEGIN BOND
M  V30 1 1 1 2
M  V30 2 1 2 3
M  V30 3 1 2 4
M  V30 4 1 4 5
M  V30 5 1 5 6
M  V30 6 2 6 7
M  V30 7 1 7 8
M  V30 8 2 8 9
M  V30 9 1 9 10
M  V30 10 2 10 11
M  V30 11 1 11 12
M  V30 12 2 12 13
M  V30 13 1 13 14
M  V30 14 2 14 15
M  V30 15 1 14 16
M  V30 16 1 16 17
M  V30 17 1 17 18
M  V30 18 1 8 19
M  V30 19 2 19 20
M  V30 20 1 19 21
M  V30 21 1 21 22
M  V30 22 1 21 6
M  V30 23 1 15 10
M  V30 24 1 18 13
M  V30 25 1 1 23
M  V30 26 1 1 24
M  V30 27 1 1 25
M  V30 28 1 2 26
M  V30 29 1 3 27
M  V30 30 1 3 28
M  V30 31 1 3 29
M  V30 32 1 4 30
M  V30 33 1 4 31
M  V30 34 1 5 32
M  V30 35 1 9 33
M  V30 36 1 11 34
M  V30 37 1 12 35
M  V30 38 1 15 36
M  V30 39 1 17 37
M  V30 40 1 17 38
M  V30 41 1 22 39
M  V30 42 1 22 40
M  V30 43 1 22 41
M  V30 END BOND
M  V30 END CTAB
M  END
>  <Dataset>  (548) 
ChEMBL_Kinases

>  <Ligand_Instance>  (548) 
nan

>  <PDB_ID>  (548) 
nan

>  <Standardized_SMILES>  (548) 
CC(C)CNC1=N/C(=C\c2ccc3c(c2)OCO3)C(=O)N1C

>  <Name>  (548) 
nan

>  <Pocket>  (548) 
nan

>  <ATP_Site>  (548) 
nan

>  <Peripheral>  (548) 
nan

>  <Num_H_Atoms_ProtBoundConf>  (548) 
nan

>  <Num_Resolved_Atoms>  (548) 
nan

>  <Num_Not_Resolved_Atoms>  (548) 
nan

$$$$
CHEMBL1802847
     RDKit          3D

  0  0  0  0  0  0  0  0  0  0999 V3000
M  V30 BEGIN CTAB
M  V30 COUNTS 44 46 0 0 0
M  V30 BEGIN ATOM
M  V30 1 C -2.265817 -3.635934 1.818900 0
M  V30 2 C -0.790159 -3.494100 1.515699 0
M  V30 3 C -0.139938 -2.749151 2.657886 0
M  V30 4 C -0.568655 -2.774954 0.186546 0
M  V30 5 C 0.899891 -2.638654 -0.100892 0
M  V30 6 N 1.114022 -1.952893 -1.350718 0
M  V30 7 C 0.847807 -0.593326 -1.653988 0
M  V30 8 N 0.817602 0.271596 -0.663608 0
M  V30 9 C 0.539513 1.573971 -1.143252 0
M  V30 10 C 0.414092 2.720998 -0.467646 0
M  V30 11 C 0.605980 2.573417 0.995869 0
M  V30 12 C -0.273129 3.147136 1.907733 0
M  V30 13 C -0.036076 3.006182 3.273598 0
M  V30 14 C 1.061857 2.303737 3.715112 0
M  V30 15 C 1.929925 1.738249 2.768390 0
M  V30 16 C 1.739872 1.847600 1.384034 0
M  V30 17 O 2.943483 1.095205 3.528764 0
M  V30 18 C 2.307510 0.740548 4.777157 0
M  V30 19 O 1.590922 1.971198 4.980009 0
M  V30 20 C 0.398243 1.408593 -2.601119 0
M  V30 21 O 0.151029 2.281987 -3.452900 0
M  V30 22 N 0.594264 0.042337 -2.914691 0
M  V30 23 C 0.560757 -0.685133 -4.190815 0
M  V30 24 H -2.360919 -4.358327 2.672533 0
M  V30 25 H -2.654848 -2.675469 2.157051 0
M  V30 26 H -2.852016 -3.975163 0.955183 0
M  V30 27 H -0.362261 -4.504735 1.393231 0
M  V30 28 H 0.751004 -3.337574 2.975460 0
M  V30 29 H -0.815390 -2.737506 3.557869 0
M  V30 30 H 0.136481 -1.708223 2.396658 0
M  V30 31 H -1.019066 -3.455022 -0.576447 0
M  V30 32 H -1.098898 -1.821432 0.196622 0
M  V30 33 H 1.442959 -2.082359 0.694418 0
M  V30 34 H 1.356149 -3.650606 -0.165194 0
M  V30 35 H 1.514756 -2.498110 -2.171552 0
M  V30 36 H 0.196311 3.590659 -1.069973 0
M  V30 37 H -1.108950 3.673586 1.497230 0
M  V30 38 H -0.717302 3.444670 3.983187 0
M  V30 39 H 2.458429 1.382466 0.736431 0
M  V30 40 H 1.549435 -0.026488 4.521066 0
M  V30 41 H 3.000912 0.498508 5.569848 0
M  V30 42 H 1.409190 -1.371582 -4.229030 0
M  V30 43 H -0.373331 -1.302478 -4.165008 0
M  V30 44 H 0.502245 0.045757 -5.022061 0
M  V30 END ATOM
M  V30 BEGIN BOND
M  V30 1 1 1 2
M  V30 2 1 2 3
M  V30 3 1 2 4
M  V30 4 1 4 5
M  V30 5 1 5 6
M  V30 6 1 6 7
M  V30 7 2 7 8
M  V30 8 1 8 9
M  V30 9 2 9 10
M  V30 10 1 10 11
M  V30 11 2 11 12
M  V30 12 1 12 13
M  V30 13 2 13 14
M  V30 14 1 14 15
M  V30 15 2 15 16
M  V30 16 1 15 17
M  V30 17 1 17 18
M  V30 18 1 18 19
M  V30 19 1 9 20
M  V30 20 2 20 21
M  V30 21 1 20 22
M  V30 22 1 22 23
M  V30 23 1 22 7
M  V30 24 1 16 11
M  V30 25 1 19 14
M  V30 26 1 1 24
M  V30 27 1 1 25
M  V30 28 1 1 26
M  V30 29 1 2 27
M  V30 30 1 3 28
M  V30 31 1 3 29
M  V30 32 1 3 30
M  V30 33 1 4 31
M  V30 34 1 4 32
M  V30 35 1 5 33
M  V30 36 1 5 34
M  V30 37 1 6 35
M  V30 38 1 10 36
M  V30 39 1 12 37
M  V30 40 1 13 38
M  V30 41 1 16 39
M  V30 42 1 18 40
M  V30 43 1 18 41
M  V30 44 1 23 42
M  V30 45 1 23 43
M  V30 46 1 23 44
M  V30 END BOND
M  V30 END CTAB
M  END
>  <Dataset>  (549) 
ChEMBL_Kinases

>  <Ligand_Instance>  (549) 
nan

>  <PDB_ID>  (549) 
nan

>  <Standardized_SMILES>  (549) 
CC(C)CCNC1=N/C(=C\c2ccc3c(c2)OCO3)C(=O)N1C

>  <Name>  (549) 
nan

>  <Pocket>  (549) 
nan

>  <ATP_Site>  (549) 
nan

>  <Peripheral>  (549) 
nan

>  <Num_H_Atoms_ProtBoundConf>  (549) 
nan

>  <Num_Resolved_Atoms>  (549) 
nan

>  <Num_Not_Resolved_Atoms>  (549) 
nan

$$$$
CHEMBL1802848
     RDKit          3D

  0  0  0  0  0  0  0  0  0  0999 V3000
M  V30 BEGIN CTAB
M  V30 COUNTS 36 38 0 0 0
M  V30 BEGIN ATOM
M  V30 1 C -1.362139 -2.680707 2.758264 0
M  V30 2 C -0.992130 -3.189655 1.568760 0
M  V30 3 C -0.756688 -3.244190 0.108126 0
M  V30 4 N 0.667346 -3.484012 -0.161325 0
M  V30 5 C 1.518096 -2.376316 0.209474 0
M  V30 6 N 1.173283 -1.152392 0.188672 0
M  V30 7 C 2.191011 -0.264745 0.599020 0
M  V30 8 C 2.018317 1.067669 0.642226 0
M  V30 9 C 0.713493 1.611030 0.241133 0
M  V30 10 C 0.170314 1.059701 -0.902278 0
M  V30 11 C -1.056386 1.443755 -1.407423 0
M  V30 12 C -1.785496 2.430549 -0.740567 0
M  V30 13 C -1.223477 2.956855 0.385599 0
M  V30 14 C -0.002176 2.588731 0.906687 0
M  V30 15 O -2.133364 3.897584 0.847947 0
M  V30 16 C -3.396978 3.731736 0.202437 0
M  V30 17 O -3.014964 3.030137 -0.972590 0
M  V30 18 C 3.342043 -1.124889 0.918777 0
M  V30 19 O 4.425656 -0.684144 1.316870 0
M  V30 20 N 2.871582 -2.456795 0.657353 0
M  V30 21 C 3.678255 -3.648546 0.830403 0
M  V30 22 H -1.446599 -2.876027 3.841359 0
M  V30 23 H -1.755047 -1.664952 2.799829 0
M  V30 24 H -0.675077 -4.162799 1.985281 0
M  V30 25 H -1.105950 -2.323759 -0.397883 0
M  V30 26 H -1.336803 -4.096367 -0.296760 0
M  V30 27 H 1.188963 -4.315476 -0.574523 0
M  V30 28 H 2.879103 1.627185 0.978021 0
M  V30 29 H 0.590206 0.287251 -1.559328 0
M  V30 30 H -1.543756 1.051415 -2.303435 0
M  V30 31 H 0.463940 2.991413 1.794637 0
M  V30 32 H -3.890052 4.704062 -0.015336 0
M  V30 33 H -3.983692 3.074892 0.856674 0
M  V30 34 H 3.092526 -4.541463 1.138950 0
M  V30 35 H 4.151926 -3.956518 -0.149592 0
M  V30 36 H 4.538378 -3.437084 1.499530 0
M  V30 END ATOM
M  V30 BEGIN BOND
M  V30 1 2 1 2
M  V30 2 1 2 3
M  V30 3 1 3 4
M  V30 4 1 4 5
M  V30 5 2 5 6
M  V30 6 1 6 7
M  V30 7 2 7 8
M  V30 8 1 8 9
M  V30 9 2 9 10
M  V30 10 1 10 11
M  V30 11 2 11 12
M  V30 12 1 12 13
M  V30 13 2 13 14
M  V30 14 1 13 15
M  V30 15 1 15 16
M  V30 16 1 16 17
M  V30 17 1 7 18
M  V30 18 2 18 19
M  V30 19 1 18 20
M  V30 20 1 20 21
M  V30 21 1 20 5
M  V30 22 1 14 9
M  V30 23 1 17 12
M  V30 24 1 1 22
M  V30 25 1 1 23
M  V30 26 1 2 24
M  V30 27 1 3 25
M  V30 28 1 3 26
M  V30 29 1 4 27
M  V30 30 1 8 28
M  V30 31 1 10 29
M  V30 32 1 11 30
M  V30 33 1 14 31
M  V30 34 1 16 32
M  V30 35 1 16 33
M  V30 36 1 21 34
M  V30 37 1 21 35
M  V30 38 1 21 36
M  V30 END BOND
M  V30 END CTAB
M  END
>  <Dataset>  (550) 
ChEMBL_Kinases

>  <Ligand_Instance>  (550) 
nan

>  <PDB_ID>  (550) 
nan

>  <Standardized_SMILES>  (550) 
C=CCNC1=N/C(=C\c2ccc3c(c2)OCO3)C(=O)N1C

>  <Name>  (550) 
nan

>  <Pocket>  (550) 
nan

>  <ATP_Site>  (550) 
nan

>  <Peripheral>  (550) 
nan

>  <Num_H_Atoms_ProtBoundConf>  (550) 
nan

>  <Num_Resolved_Atoms>  (550) 
nan

>  <Num_Not_Resolved_Atoms>  (550) 
nan

$$$$
CHEMBL1802849
     RDKit          3D

  0  0  0  0  0  0  0  0  0  0999 V3000
M  V30 BEGIN CTAB
M  V30 COUNTS 39 42 0 0 0
M  V30 BEGIN ATOM
M  V30 1 C -1.723517 -4.311121 2.087180 0
M  V30 2 N -0.753784 -3.429153 1.519152 0
M  V30 3 C 0.612597 -3.685627 1.229788 0
M  V30 4 O 1.274666 -4.745186 1.404636 0
M  V30 5 C 1.141984 -2.467051 0.673257 0
M  V30 6 C 2.368069 -2.144538 0.228570 0
M  V30 7 C 2.589374 -0.775362 -0.294131 0
M  V30 8 C 3.723294 -0.026240 -0.050806 0
M  V30 9 C 3.862033 1.245492 -0.556268 0
M  V30 10 C 2.867866 1.818335 -1.328301 0
M  V30 11 C 1.717619 1.068066 -1.579767 0
M  V30 12 C 1.569224 -0.221570 -1.070778 0
M  V30 13 O 0.921522 1.917590 -2.373898 0
M  V30 14 C 1.407095 3.245858 -2.287025 0
M  V30 15 O 2.770020 3.080298 -1.951687 0
M  V30 16 N 0.045288 -1.581340 0.676371 0
M  V30 17 C -1.028527 -2.090826 1.142699 0
M  V30 18 N -2.207891 -1.307491 1.180373 0
M  V30 19 C -2.388386 0.118405 1.186626 0
M  V30 20 C -1.997273 0.826456 2.434767 0
M  V30 21 C -0.658214 0.836168 3.022758 0
M  V30 22 C -1.798820 0.074432 3.694013 0
M  V30 23 H -2.565856 -4.486957 1.356908 0
M  V30 24 H -2.162491 -3.794286 2.988319 0
M  V30 25 H -1.298968 -5.265289 2.409627 0
M  V30 26 H 3.095527 -2.949429 0.298778 0
M  V30 27 H 4.485031 -0.526829 0.571842 0
M  V30 28 H 4.776078 1.807025 -0.342164 0
M  V30 29 H 0.633335 -0.669657 -1.363225 0
M  V30 30 H 1.275390 3.697353 -3.288793 0
M  V30 31 H 0.872108 3.840552 -1.532102 0
M  V30 32 H -3.112060 -1.875480 1.220143 0
M  V30 33 H -1.669471 0.499849 0.388064 0
M  V30 34 H -3.414371 0.401161 0.849316 0
M  V30 35 H -2.571293 1.792349 2.582209 0
M  V30 36 H -0.330595 1.736229 3.610489 0
M  V30 37 H 0.199873 0.233682 2.701645 0
M  V30 38 H -2.208805 0.496595 4.644497 0
M  V30 39 H -1.730705 -1.023268 3.663032 0
M  V30 END ATOM
M  V30 BEGIN BOND
M  V30 1 1 1 2
M  V30 2 1 2 3
M  V30 3 2 3 4
M  V30 4 1 3 5
M  V30 5 2 5 6
M  V30 6 1 6 7
M  V30 7 2 7 8
M  V30 8 1 8 9
M  V30 9 2 9 10
M  V30 10 1 10 11
M  V30 11 2 11 12
M  V30 12 1 11 13
M  V30 13 1 13 14
M  V30 14 1 14 15
M  V30 15 1 5 16
M  V30 16 2 16 17
M  V30 17 1 17 18
M  V30 18 1 18 19
M  V30 19 1 19 20
M  V30 20 1 20 21
M  V30 21 1 21 22
M  V30 22 1 17 2
M  V30 23 1 22 20
M  V30 24 1 12 7
M  V30 25 1 15 10
M  V30 26 1 1 23
M  V30 27 1 1 24
M  V30 28 1 1 25
M  V30 29 1 6 26
M  V30 30 1 8 27
M  V30 31 1 9 28
M  V30 32 1 12 29
M  V30 33 1 14 30
M  V30 34 1 14 31
M  V30 35 1 18 32
M  V30 36 1 19 33
M  V30 37 1 19 34
M  V30 38 1 20 35
M  V30 39 1 21 36
M  V30 40 1 21 37
M  V30 41 1 22 38
M  V30 42 1 22 39
M  V30 END BOND
M  V30 END CTAB
M  END
>  <Dataset>  (551) 
ChEMBL_Kinases

>  <Ligand_Instance>  (551) 
nan

>  <PDB_ID>  (551) 
nan

>  <Standardized_SMILES>  (551) 
CN1C(=O)/C(=C/c2ccc3c(c2)OCO3)N=C1NCC1CC1

>  <Name>  (551) 
nan

>  <Pocket>  (551) 
nan

>  <ATP_Site>  (551) 
nan

>  <Peripheral>  (551) 
nan

>  <Num_H_Atoms_ProtBoundConf>  (551) 
nan

>  <Num_Resolved_Atoms>  (551) 
nan

>  <Num_Not_Resolved_Atoms>  (551) 
nan

$$$$
CHEMBL67528
     RDKit          3D

  0  0  0  0  0  0  0  0  0  0999 V3000
M  V30 BEGIN CTAB
M  V30 COUNTS 69 72 0 0 0
M  V30 BEGIN ATOM
M  V30 1 C 1.310472 -0.629144 -6.888503 0
M  V30 2 C 0.483316 0.263944 -6.014026 0
M  V30 3 O 0.724113 0.165798 -4.785343 0
M  V30 4 O -0.440278 1.086367 -6.637887 0
M  V30 5 C -1.234354 1.934955 -5.864899 0
M  V30 6 O -2.057921 1.262956 -4.938841 0
M  V30 7 C -3.023934 0.341014 -5.216398 0
M  V30 8 O -2.154700 1.166736 -5.005258 0
M  V30 9 C -4.034415 -0.618421 -5.558460 0
M  V30 10 C -4.235208 -0.701204 -6.912074 0
M  V30 11 C -5.248412 -1.535911 -7.304027 0
M  V30 12 C -5.965310 -2.204040 -6.376044 0
M  V30 13 C -5.723033 -2.088454 -5.003936 0
M  V30 14 O -6.564663 -2.853639 -4.200104 0
M  V30 15 C -4.715877 -1.265428 -4.552306 0
M  V30 16 C -4.550370 -1.138735 -3.134825 0
M  V30 17 O -5.663098 -1.424328 -2.556394 0
M  V30 18 C -3.585791 -0.806340 -2.137081 0
M  V30 19 C -4.041045 -0.332156 -0.925090 0
M  V30 20 O -5.383635 -0.102124 -0.631803 0
M  V30 21 C -3.176830 -0.038858 0.125810 0
M  V30 22 C -1.825782 -0.226829 -0.045760 0
M  V30 23 C -0.943577 0.093202 1.071016 0
M  V30 24 O -1.420899 0.535173 2.146937 0
M  V30 25 O 0.414596 -0.062189 1.021984 0
M  V30 26 C 1.286044 0.248813 2.110400 0 CFG=2
M  V30 27 C 2.310726 1.215672 1.558201 0
M  V30 28 N 3.254411 0.407774 0.851459 0
M  V30 29 C 3.057980 -0.974297 1.227193 0
M  V30 30 C 2.157103 -0.940333 2.458097 0 CFG=1
M  V30 31 N 2.951127 -0.586843 3.605633 0
M  V30 32 C 3.041632 -1.279633 4.835118 0
M  V30 33 O 2.361794 -2.327204 4.970513 0
M  V30 34 C 3.889363 -0.793392 5.895481 0
M  V30 35 C 4.664634 0.335840 5.831728 0
M  V30 36 C 5.482587 0.821055 6.828995 0
M  V30 37 C 5.537084 0.113954 8.009936 0
M  V30 38 O 6.352591 0.577621 9.033750 0
M  V30 39 C 4.782363 -1.037892 8.151682 0
M  V30 40 C 3.978600 -1.468745 7.102899 0
M  V30 41 C -1.325769 -0.700503 -1.239117 0
M  V30 42 C -2.222018 -0.977301 -2.249236 0
M  V30 43 O -1.579575 -1.446866 -3.358967 0
M  V30 44 H 2.240153 -0.135198 -7.240802 0
M  V30 45 H 1.633194 -1.553817 -6.348862 0
M  V30 46 H 0.696100 -0.943427 -7.772740 0
M  V30 47 H -1.823390 2.628152 -6.513570 0
M  V30 48 H -0.608837 2.624576 -5.222850 0
M  V30 49 H -3.670336 -0.173613 -7.661259 0
M  V30 50 H -5.474985 -1.661847 -8.346292 0
M  V30 51 H -6.750769 -2.845451 -6.739556 0
M  V30 52 H -7.487779 -2.441890 -4.039004 0
M  V30 53 H -5.638517 0.847639 -0.359834 0
M  V30 54 H -3.537691 0.333564 1.075239 0
M  V30 55 H 0.737432 0.633380 2.990594 0
M  V30 56 H 2.748848 1.873794 2.336699 0
M  V30 57 H 1.788809 1.855513 0.784868 0
M  V30 58 H 3.338315 0.571520 -0.158641 0
M  V30 59 H 2.522679 -1.533427 0.421934 0
M  V30 60 H 4.023074 -1.439268 1.497844 0
M  V30 61 H 1.564656 -1.866879 2.585568 0
M  V30 62 H 3.473289 0.290509 3.391031 0
M  V30 63 H 4.654144 0.924043 4.923798 0
M  V30 64 H 6.072219 1.714088 6.728633 0
M  V30 65 H 6.565347 1.569956 9.148619 0
M  V30 66 H 4.863127 -1.552627 9.100512 0
M  V30 67 H 3.388247 -2.384258 7.234409 0
M  V30 68 H -0.253731 -0.813129 -1.274460 0
M  V30 69 H -1.910029 -2.147970 -3.988221 0
M  V30 END ATOM
M  V30 BEGIN BOND
M  V30 1 1 1 2
M  V30 2 2 2 3
M  V30 3 1 2 4
M  V30 4 1 4 5
M  V30 5 1 5 6
M  V30 6 1 6 7
M  V30 7 2 7 8
M  V30 8 1 7 9
M  V30 9 2 9 10
M  V30 10 1 10 11
M  V30 11 2 11 12
M  V30 12 1 12 13
M  V30 13 1 13 14
M  V30 14 2 13 15
M  V30 15 1 15 16
M  V30 16 2 16 17
M  V30 17 1 16 18
M  V30 18 2 18 19
M  V30 19 1 19 20
M  V30 20 1 19 21
M  V30 21 2 21 22
M  V30 22 1 22 23
M  V30 23 2 23 24
M  V30 24 1 23 25
M  V30 25 1 25 26
M  V30 26 1 26 27
M  V30 27 1 27 28
M  V30 28 1 28 29
M  V30 29 1 29 30
M  V30 30 1 30 31
M  V30 31 1 31 32
M  V30 32 2 32 33
M  V30 33 1 32 34
M  V30 34 2 34 35
M  V30 35 1 35 36
M  V30 36 2 36 37
M  V30 37 1 37 38
M  V30 38 1 37 39
M  V30 39 2 39 40
M  V30 40 1 22 41
M  V30 41 2 41 42
M  V30 42 1 42 43
M  V30 43 1 15 9
M  V30 44 1 42 18
M  V30 45 1 30 26
M  V30 46 1 40 34
M  V30 47 1 1 44
M  V30 48 1 1 45
M  V30 49 1 1 46
M  V30 50 1 5 47
M  V30 51 1 5 48
M  V30 52 1 10 49
M  V30 53 1 11 50
M  V30 54 1 12 51
M  V30 55 1 14 52
M  V30 56 1 20 53
M  V30 57 1 21 54
M  V30 58 1 26 55 CFG=1
M  V30 59 1 27 56
M  V30 60 1 27 57
M  V30 61 1 28 58
M  V30 62 1 29 59
M  V30 63 1 29 60
M  V30 64 1 30 61 CFG=1
M  V30 65 1 31 62
M  V30 66 1 35 63
M  V30 67 1 36 64
M  V30 68 1 38 65
M  V30 69 1 39 66
M  V30 70 1 40 67
M  V30 71 1 41 68
M  V30 72 1 43 69
M  V30 END BOND
M  V30 END CTAB
M  END
>  <Dataset>  (552) 
ChEMBL_Kinases

>  <Ligand_Instance>  (552) 
nan

>  <PDB_ID>  (552) 
nan

>  <Standardized_SMILES>  (552) 
CC(=O)OCOC(=O)c1cccc(O)c1C(=O)c1c(O)cc(C(=O)O[C@@H]2CNC[C@H]2NC(=O)c2ccc(O)cc2)cc1O

>  <Name>  (552) 
nan

>  <Pocket>  (552) 
nan

>  <ATP_Site>  (552) 
nan

>  <Peripheral>  (552) 
nan

>  <Num_H_Atoms_ProtBoundConf>  (552) 
nan

>  <Num_Resolved_Atoms>  (552) 
nan

>  <Num_Not_Resolved_Atoms>  (552) 
nan

$$$$
CHEMBL48082
     RDKit          3D

  0  0  0  0  0  0  0  0  0  0999 V3000
M  V30 BEGIN CTAB
M  V30 COUNTS 26 28 0 0 0
M  V30 BEGIN ATOM
M  V30 1 N 1.760614 -1.896657 4.896667 0
M  V30 2 C 1.270290 -2.190750 3.583976 0
M  V30 3 N 1.094524 -3.452377 3.147158 0
M  V30 4 C 0.624964 -3.685606 1.888697 0
M  V30 5 C 0.367056 -2.555332 1.160954 0
M  V30 6 C 0.515568 -1.251145 1.524305 0
M  V30 7 C 0.274878 -0.028183 0.806272 0
M  V30 8 C 0.622531 1.193135 1.353245 0
M  V30 9 N 0.301509 2.188800 0.518181 0
M  V30 10 C -0.262507 1.710127 -0.601707 0
M  V30 11 C -0.780283 2.228955 -1.769204 0
M  V30 12 C -1.314061 1.436294 -2.764471 0
M  V30 13 C -1.304611 0.077783 -2.531112 0
M  V30 14 C -0.790064 -0.443312 -1.370440 0
M  V30 15 C -0.263607 0.354416 -0.392722 0
M  V30 16 N 0.980401 -1.169542 2.773592 0
M  V30 17 H 2.619043 -1.542672 5.360879 0
M  V30 18 H 1.101982 -2.065675 5.709709 0
M  V30 19 H 0.467194 -4.675716 1.492064 0
M  V30 20 H 0.009898 -2.770855 0.176038 0
M  V30 21 H 1.092076 1.466224 2.305441 0
M  V30 22 H 0.436553 3.220906 0.642862 0
M  V30 23 H -0.751524 3.303345 -1.877475 0
M  V30 24 H -1.720437 1.858963 -3.683480 0
M  V30 25 H -1.730781 -0.547249 -3.326329 0
M  V30 26 H -0.845244 -1.500807 -1.304955 0
M  V30 END ATOM
M  V30 BEGIN BOND
M  V30 1 1 1 2
M  V30 2 2 2 3
M  V30 3 1 3 4
M  V30 4 2 4 5
M  V30 5 1 5 6
M  V30 6 1 6 7
M  V30 7 2 7 8
M  V30 8 1 8 9
M  V30 9 1 9 10
M  V30 10 2 10 11
M  V30 11 1 11 12
M  V30 12 2 12 13
M  V30 13 1 13 14
M  V30 14 2 14 15
M  V30 15 2 6 16
M  V30 16 1 16 2
M  V30 17 1 15 7
M  V30 18 1 15 10
M  V30 19 1 1 17
M  V30 20 1 1 18
M  V30 21 1 4 19
M  V30 22 1 5 20
M  V30 23 1 8 21
M  V30 24 1 9 22
M  V30 25 1 11 23
M  V30 26 1 12 24
M  V30 27 1 13 25
M  V30 28 1 14 26
M  V30 END BOND
M  V30 END CTAB
M  END
>  <Dataset>  (553) 
ChEMBL_Kinases

>  <Ligand_Instance>  (553) 
nan

>  <PDB_ID>  (553) 
nan

>  <Standardized_SMILES>  (553) 
Nc1nccc(-c2c[nH]c3ccccc23)n1

>  <Name>  (553) 
nan

>  <Pocket>  (553) 
nan

>  <ATP_Site>  (553) 
nan

>  <Peripheral>  (553) 
nan

>  <Num_H_Atoms_ProtBoundConf>  (553) 
nan

>  <Num_Resolved_Atoms>  (553) 
nan

>  <Num_Not_Resolved_Atoms>  (553) 
nan

$$$$
CHEMBL188343
     RDKit          3D

  0  0  0  0  0  0  0  0  0  0999 V3000
M  V30 BEGIN CTAB
M  V30 COUNTS 56 60 0 0 0
M  V30 BEGIN ATOM
M  V30 1 C 2.481932 -2.684005 5.393069 0
M  V30 2 N 3.084369 -2.226609 4.277542 0
M  V30 3 C 2.168399 -1.551165 3.525049 0
M  V30 4 C 2.369361 -0.920498 2.298858 0
M  V30 5 N 3.642377 -0.917062 1.666650 0
M  V30 6 C 3.834407 -0.253301 0.394734 0
M  V30 7 C 3.520199 1.227137 0.454952 0
M  V30 8 C 4.744390 2.088116 0.171411 0
M  V30 9 C 5.850382 1.594060 1.077210 0
M  V30 10 C 6.278458 0.196039 0.693613 0
M  V30 11 C 5.228294 -0.504542 -0.137862 0
M  V30 12 N 1.277972 -0.331025 1.786378 0
M  V30 13 C 0.070042 -0.345973 2.411954 0
M  V30 14 N -1.053889 0.291401 1.825434 0
M  V30 15 C -2.075077 -0.220297 0.983003 0
M  V30 16 C -2.149268 -1.542870 0.619281 0
M  V30 17 C -3.168382 -1.962374 -0.199623 0
M  V30 18 C -4.149844 -1.137183 -0.699157 0
M  V30 19 N -5.202338 -1.570516 -1.538211 0
M  V30 20 C -6.205714 -0.732279 -2.159703 0
M  V30 21 C -6.344160 -0.960131 -3.644682 0
M  V30 22 O -6.333266 -2.277703 -4.019599 0
M  V30 23 C -5.310581 -3.013549 -3.429467 0
M  V30 24 C -5.440937 -2.950019 -1.903367 0
M  V30 25 C -4.021279 0.171295 -0.300428 0
M  V30 26 C -3.024609 0.661148 0.519317 0
M  V30 27 N -0.038976 -0.977007 3.593470 0
M  V30 28 C 0.974081 -1.604379 4.212038 0
M  V30 29 N 1.188109 -2.297684 5.344319 0
M  V30 30 H 2.889651 -3.247538 6.197666 0
M  V30 31 H 4.424043 -1.407269 2.151981 0
M  V30 32 H 3.126645 -0.706990 -0.327187 0
M  V30 33 H 3.173496 1.473857 1.464132 0
M  V30 34 H 2.728166 1.517922 -0.272207 0
M  V30 35 H 5.040673 2.043222 -0.894561 0
M  V30 36 H 4.480675 3.118758 0.480039 0
M  V30 37 H 6.707316 2.308167 1.077283 0
M  V30 38 H 5.441474 1.614527 2.114778 0
M  V30 39 H 6.549100 -0.407794 1.586484 0
M  V30 40 H 7.190288 0.278648 0.069186 0
M  V30 41 H 5.411652 -1.595946 -0.070425 0
M  V30 42 H 5.272622 -0.223585 -1.198572 0
M  V30 43 H -1.024078 1.280149 2.126578 0
M  V30 44 H -1.402528 -2.210773 0.990451 0
M  V30 45 H -3.156753 -3.011148 -0.438812 0
M  V30 46 H -7.185221 -0.955715 -1.654664 0
M  V30 47 H -6.032376 0.350629 -2.024967 0
M  V30 48 H -5.565952 -0.345003 -4.148468 0
M  V30 49 H -7.311801 -0.512796 -3.951616 0
M  V30 50 H -4.300866 -2.700642 -3.695796 0
M  V30 51 H -5.454409 -4.072002 -3.721161 0
M  V30 52 H -6.506320 -3.188823 -1.658045 0
M  V30 53 H -4.743780 -3.671075 -1.480269 0
M  V30 54 H -4.729942 0.946159 -0.618304 0
M  V30 55 H -2.962954 1.705172 0.808410 0
M  V30 56 H 0.370232 -2.434999 5.994726 0
M  V30 END ATOM
M  V30 BEGIN BOND
M  V30 1 2 1 2
M  V30 2 1 2 3
M  V30 3 2 3 4
M  V30 4 1 4 5
M  V30 5 1 5 6
M  V30 6 1 6 7
M  V30 7 1 7 8
M  V30 8 1 8 9
M  V30 9 1 9 10
M  V30 10 1 10 11
M  V30 11 1 4 12
M  V30 12 2 12 13
M  V30 13 1 13 14
M  V30 14 1 14 15
M  V30 15 2 15 16
M  V30 16 1 16 17
M  V30 17 2 17 18
M  V30 18 1 18 19
M  V30 19 1 19 20
M  V30 20 1 20 21
M  V30 21 1 21 22
M  V30 22 1 22 23
M  V30 23 1 23 24
M  V30 24 1 18 25
M  V30 25 2 25 26
M  V30 26 1 13 27
M  V30 27 2 27 28
M  V30 28 1 28 29
M  V30 29 1 29 1
M  V30 30 1 28 3
M  V30 31 1 11 6
M  V30 32 1 26 15
M  V30 33 1 24 19
M  V30 34 1 1 30
M  V30 35 1 5 31
M  V30 36 1 6 32
M  V30 37 1 7 33
M  V30 38 1 7 34
M  V30 39 1 8 35
M  V30 40 1 8 36
M  V30 41 1 9 37
M  V30 42 1 9 38
M  V30 43 1 10 39
M  V30 44 1 10 40
M  V30 45 1 11 41
M  V30 46 1 11 42
M  V30 47 1 14 43
M  V30 48 1 16 44
M  V30 49 1 17 45
M  V30 50 1 20 46
M  V30 51 1 20 47
M  V30 52 1 21 48
M  V30 53 1 21 49
M  V30 54 1 23 50
M  V30 55 1 23 51
M  V30 56 1 24 52
M  V30 57 1 24 53
M  V30 58 1 25 54
M  V30 59 1 26 55
M  V30 60 1 29 56
M  V30 END BOND
M  V30 END CTAB
M  END
>  <Dataset>  (554) 
ChEMBL_Kinases

>  <Ligand_Instance>  (554) 
nan

>  <PDB_ID>  (554) 
nan

>  <Standardized_SMILES>  (554) 
c1nc2c(NC3CCCCC3)nc(Nc3ccc(N4CCOCC4)cc3)nc2[nH]1

>  <Name>  (554) 
REVERSINE

>  <Pocket>  (554) 
nan

>  <ATP_Site>  (554) 
nan

>  <Peripheral>  (554) 
nan

>  <Num_H_Atoms_ProtBoundConf>  (554) 
nan

>  <Num_Resolved_Atoms>  (554) 
nan

>  <Num_Not_Resolved_Atoms>  (554) 
nan

$$$$
CHEMBL4635883
     RDKit          3D

  0  0  0  0  0  0  0  0  0  0999 V3000
M  V30 BEGIN CTAB
M  V30 COUNTS 60 62 0 0 0
M  V30 BEGIN ATOM
M  V30 1 C 2.446952 -2.511914 -0.931680 0
M  V30 2 C 2.390701 -2.967802 0.523009 0
M  V30 3 C 3.125645 -2.054648 1.433833 0
M  V30 4 C 0.975250 -3.215615 0.845262 0
M  V30 5 C 0.055264 -2.205850 0.882665 0
M  V30 6 C -1.285077 -2.317148 1.169777 0
M  V30 7 N -2.256656 -1.293485 1.216361 0
M  V30 8 C -2.055401 0.080075 0.987624 0
M  V30 9 N -0.890385 0.669893 0.683583 0
M  V30 10 C -0.705434 1.972192 0.467610 0
M  V30 11 N 0.549647 2.515735 0.153406 0
M  V30 12 C 1.806764 1.806710 0.016888 0
M  V30 13 C 2.178230 1.851294 -1.458487 0
M  V30 14 C 1.272203 2.748765 -2.244991 0
M  V30 15 C 1.029040 4.087064 -1.556581 0 CFG=2
M  V30 16 N 2.142531 4.941903 -1.847828 0
M  V30 17 C 0.741855 3.933194 -0.084387 0
M  V30 18 N -1.752539 2.809011 0.551223 0
M  V30 19 C -2.978427 2.333645 0.851004 0
M  V30 20 C -3.084372 0.981556 1.058822 0
M  V30 21 C -4.443260 0.569535 1.375341 0
M  V30 22 N -5.577716 1.409644 1.475233 0
M  V30 23 O -5.177028 -0.405558 1.650719 0
M  V30 24 C -1.650313 -3.642034 1.438275 0
M  V30 25 C -0.778592 -4.682475 1.415129 0
M  V30 26 C -1.224329 -6.061017 1.707990 0
M  V30 27 C -0.869798 -6.911744 0.487346 0
M  V30 28 C -0.357001 -6.585352 2.844857 0
M  V30 29 N 0.511615 -4.470754 1.123407 0
M  V30 30 H 3.457272 -2.112243 -1.202494 0
M  V30 31 H 2.257821 -3.347375 -1.630985 0
M  V30 32 H 1.678506 -1.741127 -1.140876 0
M  V30 33 H 2.911156 -3.947576 0.562290 0
M  V30 34 H 2.569698 -1.218165 1.851732 0
M  V30 35 H 3.960615 -1.582163 0.846805 0
M  V30 36 H 3.667881 -2.635261 2.236588 0
M  V30 37 H 0.437991 -1.236125 0.662453 0
M  V30 38 H -3.224580 -1.597355 1.445601 0
M  V30 39 H 2.613451 2.322490 0.601123 0
M  V30 40 H 1.704844 0.781372 0.410453 0
M  V30 41 H 3.225691 2.248748 -1.567404 0
M  V30 42 H 2.140149 0.850800 -1.884552 0
M  V30 43 H 1.778845 2.980901 -3.204240 0
M  V30 44 H 0.314275 2.251915 -2.525098 0
M  V30 45 H 0.104344 4.497446 -2.019815 0
M  V30 46 H 1.888489 5.954332 -1.813726 0
M  V30 47 H 2.437798 4.698442 -2.839901 0
M  V30 48 H -0.137745 4.528735 0.235112 0
M  V30 49 H 1.608717 4.305137 0.498947 0
M  V30 50 H -3.783335 3.040708 0.906401 0
M  V30 51 H -6.008332 1.942578 2.284894 0
M  V30 52 H -6.299277 1.730282 0.763991 0
M  V30 53 H -2.685812 -3.878191 1.682087 0
M  V30 54 H -2.299828 -6.117072 1.934370 0
M  V30 55 H 0.229503 -6.863699 0.399564 0
M  V30 56 H -1.369111 -6.541812 -0.418112 0
M  V30 57 H -1.129547 -7.981724 0.688888 0
M  V30 58 H 0.663828 -6.148708 2.674749 0
M  V30 59 H -0.682344 -6.239604 3.826787 0
M  V30 60 H -0.213661 -7.675469 2.763827 0
M  V30 END ATOM
M  V30 BEGIN BOND
M  V30 1 1 1 2
M  V30 2 1 2 3
M  V30 3 1 2 4
M  V30 4 2 4 5
M  V30 5 1 5 6
M  V30 6 1 6 7
M  V30 7 1 7 8
M  V30 8 2 8 9
M  V30 9 1 9 10
M  V30 10 1 10 11
M  V30 11 1 11 12
M  V30 12 1 12 13
M  V30 13 1 13 14
M  V30 14 1 14 15
M  V30 15 1 15 16
M  V30 16 1 15 17
M  V30 17 2 10 18
M  V30 18 1 18 19
M  V30 19 2 19 20
M  V30 20 1 20 21
M  V30 21 1 21 22
M  V30 22 2 21 23
M  V30 23 2 6 24
M  V30 24 1 24 25
M  V30 25 1 25 26
M  V30 26 1 26 27
M  V30 27 1 26 28
M  V30 28 2 25 29
M  V30 29 1 29 4
M  V30 30 1 20 8
M  V30 31 1 17 11
M  V30 32 1 1 30
M  V30 33 1 1 31
M  V30 34 1 1 32
M  V30 35 1 2 33
M  V30 36 1 3 34
M  V30 37 1 3 35
M  V30 38 1 3 36
M  V30 39 1 5 37
M  V30 40 1 7 38
M  V30 41 1 12 39
M  V30 42 1 12 40
M  V30 43 1 13 41
M  V30 44 1 13 42
M  V30 45 1 14 43
M  V30 46 1 14 44
M  V30 47 1 15 45 CFG=3
M  V30 48 1 16 46
M  V30 49 1 16 47
M  V30 50 1 17 48
M  V30 51 1 17 49
M  V30 52 1 19 50
M  V30 53 1 22 51
M  V30 54 1 22 52
M  V30 55 1 24 53
M  V30 56 1 26 54
M  V30 57 1 27 55
M  V30 58 1 27 56
M  V30 59 1 27 57
M  V30 60 1 28 58
M  V30 61 1 28 59
M  V30 62 1 28 60
M  V30 END BOND
M  V30 END CTAB
M  END
>  <Dataset>  (555) 
ChEMBL_Kinases

>  <Ligand_Instance>  (555) 
nan

>  <PDB_ID>  (555) 
nan

>  <Standardized_SMILES>  (555) 
CC(C)c1cc(Nc2nc(N3CCC[C@H](N)C3)ncc2C(N)=O)cc(C(C)C)n1

>  <Name>  (555) 
nan

>  <Pocket>  (555) 
nan

>  <ATP_Site>  (555) 
nan

>  <Peripheral>  (555) 
nan

>  <Num_H_Atoms_ProtBoundConf>  (555) 
nan

>  <Num_Resolved_Atoms>  (555) 
nan

>  <Num_Not_Resolved_Atoms>  (555) 
nan

$$$$
CHEMBL1802853
     RDKit          3D

  0  0  0  0  0  0  0  0  0  0999 V3000
M  V30 BEGIN CTAB
M  V30 COUNTS 39 41 0 0 0
M  V30 BEGIN ATOM
M  V30 1 C -1.459997 -4.665038 1.838757 0
M  V30 2 N -0.530979 -3.651738 1.395777 0
M  V30 3 C 0.829422 -3.841437 1.038846 0
M  V30 4 O 1.522405 -4.864815 1.021541 0
M  V30 5 C 1.268573 -2.494047 0.673644 0
M  V30 6 C 2.481051 -2.074615 0.267853 0
M  V30 7 C 2.659737 -0.649316 -0.044775 0
M  V30 8 C 3.708449 0.177145 0.315080 0
M  V30 9 C 3.702111 1.500120 -0.086077 0
M  V30 10 C 2.630515 1.975953 -0.850933 0
M  V30 11 C 1.576309 1.167250 -1.221564 0
M  V30 12 C 1.606718 -0.134898 -0.812767 0
M  V30 13 O 0.682434 1.951699 -1.975992 0
M  V30 14 C 1.025704 3.309853 -1.812697 0
M  V30 15 O 2.371331 3.258508 -1.383954 0
M  V30 16 N 0.143411 -1.650844 0.846904 0
M  V30 17 C -0.896095 -2.288307 1.258206 0
M  V30 18 N -2.120197 -1.566144 1.479388 0
M  V30 19 C -2.315867 -0.228270 0.913608 0
M  V30 20 C -1.440054 0.810264 1.521521 0
M  V30 21 C -1.635670 1.002019 3.011326 0
M  V30 22 O -1.371861 -0.187529 3.666107 0
M  V30 23 H -2.281890 -4.783658 1.096999 0
M  V30 24 H -1.970954 -4.382858 2.785189 0
M  V30 25 H -0.927708 -5.614669 2.000509 0
M  V30 26 H 3.240763 -2.837484 0.201959 0
M  V30 27 H 4.467736 -0.299015 0.897285 0
M  V30 28 H 4.535564 2.127566 0.208036 0
M  V30 29 H 0.730139 -0.699378 -1.163997 0
M  V30 30 H 0.951088 3.823649 -2.786787 0
M  V30 31 H 0.350433 3.827445 -1.105423 0
M  V30 32 H -2.830966 -2.092340 2.073493 0
M  V30 33 H -2.112711 -0.262822 -0.159683 0
M  V30 34 H -3.364610 0.059474 1.122245 0
M  V30 35 H -1.695176 1.779633 1.023540 0
M  V30 36 H -0.372182 0.632378 1.327494 0
M  V30 37 H -0.947527 1.798385 3.382467 0
M  V30 38 H -2.656823 1.377911 3.223854 0
M  V30 39 H -0.965662 0.049167 4.559132 0
M  V30 END ATOM
M  V30 BEGIN BOND
M  V30 1 1 1 2
M  V30 2 1 2 3
M  V30 3 2 3 4
M  V30 4 1 3 5
M  V30 5 2 5 6
M  V30 6 1 6 7
M  V30 7 2 7 8
M  V30 8 1 8 9
M  V30 9 2 9 10
M  V30 10 1 10 11
M  V30 11 2 11 12
M  V30 12 1 11 13
M  V30 13 1 13 14
M  V30 14 1 14 15
M  V30 15 1 5 16
M  V30 16 2 16 17
M  V30 17 1 17 18
M  V30 18 1 18 19
M  V30 19 1 19 20
M  V30 20 1 20 21
M  V30 21 1 21 22
M  V30 22 1 17 2
M  V30 23 1 12 7
M  V30 24 1 15 10
M  V30 25 1 1 23
M  V30 26 1 1 24
M  V30 27 1 1 25
M  V30 28 1 6 26
M  V30 29 1 8 27
M  V30 30 1 9 28
M  V30 31 1 12 29
M  V30 32 1 14 30
M  V30 33 1 14 31
M  V30 34 1 18 32
M  V30 35 1 19 33
M  V30 36 1 19 34
M  V30 37 1 20 35
M  V30 38 1 20 36
M  V30 39 1 21 37
M  V30 40 1 21 38
M  V30 41 1 22 39
M  V30 END BOND
M  V30 END CTAB
M  END
>  <Dataset>  (556) 
ChEMBL_Kinases

>  <Ligand_Instance>  (556) 
nan

>  <PDB_ID>  (556) 
nan

>  <Standardized_SMILES>  (556) 
CN1C(=O)/C(=C/c2ccc3c(c2)OCO3)N=C1NCCCO

>  <Name>  (556) 
nan

>  <Pocket>  (556) 
nan

>  <ATP_Site>  (556) 
nan

>  <Peripheral>  (556) 
nan

>  <Num_H_Atoms_ProtBoundConf>  (556) 
nan

>  <Num_Resolved_Atoms>  (556) 
nan

>  <Num_Not_Resolved_Atoms>  (556) 
nan

$$$$
CHEMBL1802854
     RDKit          3D

  0  0  0  0  0  0  0  0  0  0999 V3000
M  V30 BEGIN CTAB
M  V30 COUNTS 45 47 0 0 0
M  V30 BEGIN ATOM
M  V30 1 C 1.224323 -4.082966 3.080895 0
M  V30 2 N 1.516000 -3.142743 2.011258 0
M  V30 3 C 2.202949 -3.466523 0.798085 0
M  V30 4 O 2.683953 -4.537789 0.381611 0
M  V30 5 C 2.234994 -2.189750 0.078274 0
M  V30 6 C 2.702499 -1.891819 -1.120369 0
M  V30 7 C 2.635101 -0.514514 -1.660574 0
M  V30 8 C 3.034892 0.616625 -0.976331 0
M  V30 9 C 2.917698 1.881616 -1.525465 0
M  V30 10 C 2.384180 1.887289 -2.769118 0
M  V30 11 C 1.983534 0.797668 -3.459965 0
M  V30 12 C 2.086368 -0.481298 -2.945310 0
M  V30 13 O 1.489330 1.235360 -4.702892 0
M  V30 14 C 1.147885 2.605848 -4.549364 0
M  V30 15 O 2.138896 3.009021 -3.612564 0
M  V30 16 N 1.578102 -1.191837 0.888751 0
M  V30 17 C 1.168958 -1.737741 1.986341 0
M  V30 18 N 0.432378 -1.106690 3.056010 0
M  V30 19 C -0.262450 0.096140 2.633217 0
M  V30 20 C -1.154694 0.663887 3.693995 0
M  V30 21 C -2.225923 -0.302210 4.125384 0
M  V30 22 C -3.110098 -0.731456 2.984857 0
M  V30 23 C -3.840787 0.377455 2.303132 0
M  V30 24 O -4.592356 -0.244307 1.276807 0
M  V30 25 H 1.149870 -3.451587 4.009536 0
M  V30 26 H 0.207431 -4.515640 2.972813 0
M  V30 27 H 2.023863 -4.818018 3.199412 0
M  V30 28 H 3.133281 -2.720779 -1.672024 0
M  V30 29 H 3.446545 0.401238 0.023169 0
M  V30 30 H 3.249067 2.718665 -0.937149 0
M  V30 31 H 1.760633 -1.306368 -3.530218 0
M  V30 32 H 1.193410 3.150512 -5.497820 0
M  V30 33 H 0.132802 2.676978 -4.143310 0
M  V30 34 H 0.450649 -1.537811 4.008371 0
M  V30 35 H 0.512203 0.832008 2.341305 0
M  V30 36 H -0.851531 -0.123171 1.719304 0
M  V30 37 H -1.567723 1.626225 3.348108 0
M  V30 38 H -0.530601 0.883269 4.582609 0
M  V30 39 H -2.874247 0.220698 4.852766 0
M  V30 40 H -1.757258 -1.147456 4.648332 0
M  V30 41 H -3.852822 -1.486240 3.314919 0
M  V30 42 H -2.507015 -1.237088 2.188640 0
M  V30 43 H -4.612431 0.874610 2.945718 0
M  V30 44 H -3.186818 1.085321 1.776719 0
M  V30 45 H -5.066205 -1.047638 1.592278 0
M  V30 END ATOM
M  V30 BEGIN BOND
M  V30 1 1 1 2
M  V30 2 1 2 3
M  V30 3 2 3 4
M  V30 4 1 3 5
M  V30 5 2 5 6
M  V30 6 1 6 7
M  V30 7 2 7 8
M  V30 8 1 8 9
M  V30 9 2 9 10
M  V30 10 1 10 11
M  V30 11 2 11 12
M  V30 12 1 11 13
M  V30 13 1 13 14
M  V30 14 1 14 15
M  V30 15 1 5 16
M  V30 16 2 16 17
M  V30 17 1 17 18
M  V30 18 1 18 19
M  V30 19 1 19 20
M  V30 20 1 20 21
M  V30 21 1 21 22
M  V30 22 1 22 23
M  V30 23 1 23 24
M  V30 24 1 17 2
M  V30 25 1 12 7
M  V30 26 1 15 10
M  V30 27 1 1 25
M  V30 28 1 1 26
M  V30 29 1 1 27
M  V30 30 1 6 28
M  V30 31 1 8 29
M  V30 32 1 9 30
M  V30 33 1 12 31
M  V30 34 1 14 32
M  V30 35 1 14 33
M  V30 36 1 18 34
M  V30 37 1 19 35
M  V30 38 1 19 36
M  V30 39 1 20 37
M  V30 40 1 20 38
M  V30 41 1 21 39
M  V30 42 1 21 40
M  V30 43 1 22 41
M  V30 44 1 22 42
M  V30 45 1 23 43
M  V30 46 1 23 44
M  V30 47 1 24 45
M  V30 END BOND
M  V30 END CTAB
M  END
>  <Dataset>  (557) 
ChEMBL_Kinases

>  <Ligand_Instance>  (557) 
nan

>  <PDB_ID>  (557) 
nan

>  <Standardized_SMILES>  (557) 
CN1C(=O)/C(=C/c2ccc3c(c2)OCO3)N=C1NCCCCCO

>  <Name>  (557) 
nan

>  <Pocket>  (557) 
nan

>  <ATP_Site>  (557) 
nan

>  <Peripheral>  (557) 
nan

>  <Num_H_Atoms_ProtBoundConf>  (557) 
nan

>  <Num_Resolved_Atoms>  (557) 
nan

>  <Num_Not_Resolved_Atoms>  (557) 
nan

$$$$
CHEMBL1802855
     RDKit          3D

  0  0  0  0  0  0  0  0  0  0999 V3000
M  V30 BEGIN CTAB
M  V30 COUNTS 48 51 0 0 0
M  V30 BEGIN ATOM
M  V30 1 C 3.152264 -4.362802 2.336258 0
M  V30 2 N 2.908213 -3.062765 1.773657 0
M  V30 3 C 3.867803 -2.122445 1.267054 0
M  V30 4 O 5.098321 -2.254934 1.220681 0
M  V30 5 C 3.134199 -0.947751 0.802017 0
M  V30 6 C 3.579531 0.198241 0.270372 0
M  V30 7 C 2.592800 1.200051 -0.104524 0
M  V30 8 C 1.440961 0.785883 -0.748584 0
M  V30 9 C 0.441989 1.687714 -1.128957 0
M  V30 10 C 0.609756 3.028183 -0.853529 0
M  V30 11 C 1.762478 3.476968 -0.204485 0
M  V30 12 C 2.741035 2.561240 0.162868 0
M  V30 13 O 1.638015 4.871581 -0.069686 0
M  V30 14 C 0.229642 5.163177 -0.108656 0
M  V30 15 O -0.158691 4.177365 -1.081021 0
M  V30 16 N 1.744060 -1.241014 1.054937 0
M  V30 17 C 1.649811 -2.424305 1.596316 0
M  V30 18 N 0.400507 -3.004629 1.979899 0
M  V30 19 C -0.764628 -2.239605 2.319224 0
M  V30 20 C -1.326077 -1.537017 1.121862 0
M  V30 21 N -2.504418 -0.766834 1.431523 0
M  V30 22 C -2.922396 -0.126973 0.177623 0
M  V30 23 C -3.415616 -1.078267 -0.851428 0
M  V30 24 O -3.618827 -2.366332 -0.483929 0
M  V30 25 C -3.854379 -2.665704 0.817533 0
M  V30 26 C -3.630464 -1.591007 1.819270 0
M  V30 27 H 3.047298 -5.130329 1.532939 0
M  V30 28 H 4.160614 -4.425900 2.794067 0
M  V30 29 H 2.354335 -4.541586 3.110608 0
M  V30 30 H 4.660820 0.197193 0.200995 0
M  V30 31 H 1.201068 -0.228406 -1.014854 0
M  V30 32 H -0.461361 1.401279 -1.634302 0
M  V30 33 H 3.637122 2.892055 0.665948 0
M  V30 34 H 0.003455 6.182211 -0.406703 0
M  V30 35 H -0.166226 4.848256 0.882825 0
M  V30 36 H 0.385370 -4.068691 1.998870 0
M  V30 37 H -1.533665 -2.935488 2.707775 0
M  V30 38 H -0.553707 -1.541245 3.161825 0
M  V30 39 H -1.426165 -2.255104 0.306677 0
M  V30 40 H -0.580611 -0.773141 0.746789 0
M  V30 41 H -3.688442 0.629789 0.449855 0
M  V30 42 H -2.034852 0.465603 -0.133926 0
M  V30 43 H -4.292553 -0.627721 -1.402086 0
M  V30 44 H -2.619673 -1.103041 -1.659320 0
M  V30 45 H -3.166167 -3.525680 1.084021 0
M  V30 46 H -4.876142 -3.121818 0.986958 0
M  V30 47 H -4.521431 -0.899577 1.762809 0
M  V30 48 H -3.580954 -1.963889 2.836664 0
M  V30 END ATOM
M  V30 BEGIN BOND
M  V30 1 1 1 2
M  V30 2 1 2 3
M  V30 3 2 3 4
M  V30 4 1 3 5
M  V30 5 2 5 6
M  V30 6 1 6 7
M  V30 7 2 7 8
M  V30 8 1 8 9
M  V30 9 2 9 10
M  V30 10 1 10 11
M  V30 11 2 11 12
M  V30 12 1 11 13
M  V30 13 1 13 14
M  V30 14 1 14 15
M  V30 15 1 5 16
M  V30 16 2 16 17
M  V30 17 1 17 18
M  V30 18 1 18 19
M  V30 19 1 19 20
M  V30 20 1 20 21
M  V30 21 1 21 22
M  V30 22 1 22 23
M  V30 23 1 23 24
M  V30 24 1 24 25
M  V30 25 1 25 26
M  V30 26 1 17 2
M  V30 27 1 26 21
M  V30 28 1 12 7
M  V30 29 1 15 10
M  V30 30 1 1 27
M  V30 31 1 1 28
M  V30 32 1 1 29
M  V30 33 1 6 30
M  V30 34 1 8 31
M  V30 35 1 9 32
M  V30 36 1 12 33
M  V30 37 1 14 34
M  V30 38 1 14 35
M  V30 39 1 18 36
M  V30 40 1 19 37
M  V30 41 1 19 38
M  V30 42 1 20 39
M  V30 43 1 20 40
M  V30 44 1 22 41
M  V30 45 1 22 42
M  V30 46 1 23 43
M  V30 47 1 23 44
M  V30 48 1 25 45
M  V30 49 1 25 46
M  V30 50 1 26 47
M  V30 51 1 26 48
M  V30 END BOND
M  V30 END CTAB
M  END
>  <Dataset>  (558) 
ChEMBL_Kinases

>  <Ligand_Instance>  (558) 
nan

>  <PDB_ID>  (558) 
nan

>  <Standardized_SMILES>  (558) 
CN1C(=O)/C(=C/c2ccc3c(c2)OCO3)N=C1NCCN1CCOCC1

>  <Name>  (558) 
nan

>  <Pocket>  (558) 
nan

>  <ATP_Site>  (558) 
nan

>  <Peripheral>  (558) 
nan

>  <Num_H_Atoms_ProtBoundConf>  (558) 
nan

>  <Num_Resolved_Atoms>  (558) 
nan

>  <Num_Not_Resolved_Atoms>  (558) 
nan

$$$$
CHEMBL44541
     RDKit          3D

  0  0  0  0  0  0  0  0  0  0999 V3000
M  V30 BEGIN CTAB
M  V30 COUNTS 26 28 0 0 0
M  V30 BEGIN ATOM
M  V30 1 N -1.091768 -4.221719 3.264931 0
M  V30 2 C -0.663625 -2.854303 3.196801 0
M  V30 3 N -0.432853 -2.103974 4.296194 0
M  V30 4 C -0.029040 -0.815190 4.167677 0
M  V30 5 C 0.110481 -0.384677 2.881715 0
M  V30 6 C -0.096286 -1.059882 1.728072 0
M  V30 7 C 0.025201 -0.662636 0.350674 0
M  V30 8 C -0.333472 -1.544966 -0.675793 0
M  V30 9 N -0.130661 -0.959111 -1.865657 0
M  V30 10 C 0.348161 0.278481 -1.727284 0
M  V30 11 C 0.730812 1.306468 -2.562187 0
M  V30 12 C 1.205743 2.508054 -2.082043 0
M  V30 13 C 1.281077 2.634699 -0.706539 0
M  V30 14 Br 1.937680 4.295345 -0.048110 0
M  V30 15 C 0.902185 1.616882 0.125192 0
M  V30 16 C 0.432164 0.429501 -0.364303 0
M  V30 17 N -0.490707 -2.316407 1.989839 0
M  V30 18 H -0.712203 -5.080522 2.819140 0
M  V30 19 H -1.919486 -4.566769 3.824365 0
M  V30 20 H 0.159760 -0.201606 5.018985 0
M  V30 21 H 0.422925 0.635018 2.819608 0
M  V30 22 H -0.724283 -2.561291 -0.668768 0
M  V30 23 H -0.302941 -1.358980 -2.825990 0
M  V30 24 H 0.641627 1.128618 -3.627715 0
M  V30 25 H 1.498660 3.297120 -2.760849 0
M  V30 26 H 1.006808 1.824919 1.150191 0
M  V30 END ATOM
M  V30 BEGIN BOND
M  V30 1 1 1 2
M  V30 2 2 2 3
M  V30 3 1 3 4
M  V30 4 2 4 5
M  V30 5 1 5 6
M  V30 6 1 6 7
M  V30 7 2 7 8
M  V30 8 1 8 9
M  V30 9 1 9 10
M  V30 10 2 10 11
M  V30 11 1 11 12
M  V30 12 2 12 13
M  V30 13 1 13 14
M  V30 14 1 13 15
M  V30 15 2 15 16
M  V30 16 2 6 17
M  V30 17 1 17 2
M  V30 18 1 16 7
M  V30 19 1 16 10
M  V30 20 1 1 18
M  V30 21 1 1 19
M  V30 22 1 4 20
M  V30 23 1 5 21
M  V30 24 1 8 22
M  V30 25 1 9 23
M  V30 26 1 11 24
M  V30 27 1 12 25
M  V30 28 1 15 26
M  V30 END BOND
M  V30 END CTAB
M  END
>  <Dataset>  (559) 
ChEMBL_Kinases

>  <Ligand_Instance>  (559) 
nan

>  <PDB_ID>  (559) 
nan

>  <Standardized_SMILES>  (559) 
Nc1nccc(-c2c[nH]c3ccc(Br)cc23)n1

>  <Name>  (559) 
MERIDIANIN C

>  <Pocket>  (559) 
nan

>  <ATP_Site>  (559) 
nan

>  <Peripheral>  (559) 
nan

>  <Num_H_Atoms_ProtBoundConf>  (559) 
nan

>  <Num_Resolved_Atoms>  (559) 
nan

>  <Num_Not_Resolved_Atoms>  (559) 
nan

$$$$
CHEMBL4869634
     RDKit          3D

  0  0  0  0  0  0  0  0  0  0999 V3000
M  V30 BEGIN CTAB
M  V30 COUNTS 63 67 0 0 0
M  V30 BEGIN ATOM
M  V30 1 C 5.246087 3.050412 4.413017 0
M  V30 2 C 4.985951 2.936485 2.917659 0
M  V30 3 C 6.135145 2.201870 2.245746 0
M  V30 4 O 3.776292 2.267890 2.745483 0
M  V30 5 C 2.669569 2.736350 2.071208 0
M  V30 6 C 2.459183 3.926431 1.410793 0
M  V30 7 C 1.284956 4.253165 0.777345 0
M  V30 8 F 1.251418 5.471205 0.175831 0
M  V30 9 C 0.245837 3.323254 0.806154 0
M  V30 10 C 0.435284 2.126760 1.461816 0
M  V30 11 C 1.632161 1.799413 2.104567 0
M  V30 12 N 1.698181 0.514058 2.754276 0
M  V30 13 C 2.717762 -0.382194 2.262799 0
M  V30 14 N 3.963566 -0.400103 2.744547 0
M  V30 15 C 4.932877 -1.221718 2.307194 0
M  V30 16 N 4.629328 -2.082046 1.319486 0
M  V30 17 C 3.405908 -2.125414 0.785079 0
M  V30 18 C 3.123010 -3.024245 -0.231091 0
M  V30 19 C 1.845799 -3.044619 -0.761768 0
M  V30 20 C 0.859484 -2.196894 -0.303542 0
M  V30 21 C -0.501149 -2.182549 -0.824569 0
M  V30 22 C -1.396459 -1.288740 -0.276119 0
M  V30 23 C -2.723245 -1.200047 -0.707813 0
M  V30 24 C -3.126295 -2.062627 -1.734102 0
M  V30 25 C -4.533948 -1.880291 -2.105346 0
M  V30 26 O -4.836452 -0.680349 -2.413914 0
M  V30 27 N -5.483460 -2.939885 -2.123295 0
M  V30 28 C -5.435273 -4.344904 -1.834565 0
M  V30 29 C -6.221128 -4.589676 -0.569928 0
M  V30 30 N -7.385998 -3.791875 -0.422478 0
M  V30 31 C -7.889347 -3.172302 -1.621795 0
M  V30 32 C -6.840409 -2.616110 -2.513882 0
M  V30 33 C -2.238293 -2.959513 -2.288350 0
M  V30 34 C -0.933640 -3.010968 -1.828234 0
M  V30 35 N 1.186666 -1.343977 0.683814 0
M  V30 36 C 2.407395 -1.270694 1.244692 0
M  V30 37 H 6.288935 3.312156 4.629217 0
M  V30 38 H 5.029570 2.042272 4.843093 0
M  V30 39 H 4.575814 3.797867 4.863545 0
M  V30 40 H 4.929350 3.923998 2.428716 0
M  V30 41 H 7.013786 2.870972 2.128975 0
M  V30 42 H 6.493495 1.345190 2.861998 0
M  V30 43 H 5.831436 1.841180 1.249305 0
M  V30 44 H 3.294765 4.580507 1.434206 0
M  V30 45 H -0.643431 3.625923 0.299921 0
M  V30 46 H -0.431441 1.501315 1.412814 0
M  V30 47 H 1.146160 0.102472 3.518383 0
M  V30 48 H 5.919773 -1.167472 2.758225 0
M  V30 49 H 3.875760 -3.697965 -0.606640 0
M  V30 50 H 1.630420 -3.735848 -1.542226 0
M  V30 51 H -1.087257 -0.622952 0.515734 0
M  V30 52 H -3.377670 -0.470077 -0.230759 0
M  V30 53 H -4.383558 -4.688866 -1.620572 0
M  V30 54 H -5.789530 -4.966093 -2.665571 0
M  V30 55 H -5.550249 -4.478012 0.303538 0
M  V30 56 H -6.538508 -5.661040 -0.594375 0
M  V30 57 H -7.257229 -3.125284 0.372225 0
M  V30 58 H -8.526912 -2.314454 -1.259232 0
M  V30 59 H -8.605711 -3.813961 -2.176790 0
M  V30 60 H -6.973347 -1.538779 -2.692490 0
M  V30 61 H -6.959936 -3.089226 -3.528596 0
M  V30 62 H -2.639981 -3.584451 -3.074362 0
M  V30 63 H -0.266732 -3.717492 -2.278700 0
M  V30 END ATOM
M  V30 BEGIN BOND
M  V30 1 1 1 2
M  V30 2 1 2 3
M  V30 3 1 2 4
M  V30 4 1 4 5
M  V30 5 2 5 6
M  V30 6 1 6 7
M  V30 7 1 7 8
M  V30 8 2 7 9
M  V30 9 1 9 10
M  V30 10 2 10 11
M  V30 11 1 11 12
M  V30 12 1 12 13
M  V30 13 2 13 14
M  V30 14 1 14 15
M  V30 15 2 15 16
M  V30 16 1 16 17
M  V30 17 2 17 18
M  V30 18 1 18 19
M  V30 19 2 19 20
M  V30 20 1 20 21
M  V30 21 2 21 22
M  V30 22 1 22 23
M  V30 23 2 23 24
M  V30 24 1 24 25
M  V30 25 2 25 26
M  V30 26 1 25 27
M  V30 27 1 27 28
M  V30 28 1 28 29
M  V30 29 1 29 30
M  V30 30 1 30 31
M  V30 31 1 31 32
M  V30 32 1 24 33
M  V30 33 2 33 34
M  V30 34 1 20 35
M  V30 35 2 35 36
M  V30 36 1 11 5
M  V30 37 1 36 13
M  V30 38 1 36 17
M  V30 39 1 34 21
M  V30 40 1 32 27
M  V30 41 1 1 37
M  V30 42 1 1 38
M  V30 43 1 1 39
M  V30 44 1 2 40
M  V30 45 1 3 41
M  V30 46 1 3 42
M  V30 47 1 3 43
M  V30 48 1 6 44
M  V30 49 1 9 45
M  V30 50 1 10 46
M  V30 51 1 12 47
M  V30 52 1 15 48
M  V30 53 1 18 49
M  V30 54 1 19 50
M  V30 55 1 22 51
M  V30 56 1 23 52
M  V30 57 1 28 53
M  V30 58 1 28 54
M  V30 59 1 29 55
M  V30 60 1 29 56
M  V30 61 1 30 57
M  V30 62 1 31 58
M  V30 63 1 31 59
M  V30 64 1 32 60
M  V30 65 1 32 61
M  V30 66 1 33 62
M  V30 67 1 34 63
M  V30 END BOND
M  V30 END CTAB
M  END
>  <Dataset>  (560) 
ChEMBL_Kinases

>  <Ligand_Instance>  (560) 
nan

>  <PDB_ID>  (560) 
nan

>  <Standardized_SMILES>  (560) 
CC(C)Oc1cc(F)ccc1Nc1ncnc2ccc(-c3ccc(C(=O)N4CCNCC4)cc3)nc12

>  <Name>  (560) 
nan

>  <Pocket>  (560) 
nan

>  <ATP_Site>  (560) 
nan

>  <Peripheral>  (560) 
nan

>  <Num_H_Atoms_ProtBoundConf>  (560) 
nan

>  <Num_Resolved_Atoms>  (560) 
nan

>  <Num_Not_Resolved_Atoms>  (560) 
nan

$$$$
CHEMBL210032
     RDKit          3D

  0  0  0  0  0  0  0  0  0  0999 V3000
M  V30 BEGIN CTAB
M  V30 COUNTS 31 32 0 0 0
M  V30 BEGIN ATOM
M  V30 1 C -1.551156 -4.003653 3.967505 0
M  V30 2 C -1.191025 -3.288505 2.734451 0
M  V30 3 O -2.115013 -2.678730 2.097321 0
M  V30 4 N 0.126354 -3.231153 2.201997 0
M  V30 5 C 0.167067 -2.463044 0.994098 0
M  V30 6 C -0.008743 -2.941162 -0.293936 0
M  V30 7 C 0.065834 -2.043371 -1.340192 0
M  V30 8 N -0.120691 -2.580604 -2.638142 0
M  V30 9 C 0.310139 -0.698768 -1.109131 0
M  V30 10 C 0.380356 0.205126 -2.228498 0
M  V30 11 N 0.453334 0.926893 -3.136464 0
M  V30 12 C 0.482751 -0.244871 0.191047 0
M  V30 13 C 0.743198 1.176777 0.464478 0
M  V30 14 C 1.759275 1.386563 1.381937 0
M  V30 15 C 2.089281 2.687772 1.714402 0
M  V30 16 C 1.407773 3.759442 1.132949 0
M  V30 17 C 0.394129 3.531321 0.217161 0
M  V30 18 C 0.059947 2.216804 -0.119424 0
M  V30 19 N 0.402852 -1.158022 1.200328 0
M  V30 20 H -1.385227 -3.310074 4.838260 0
M  V30 21 H -2.627708 -4.254213 3.975937 0
M  V30 22 H -0.910445 -4.891823 4.171378 0
M  V30 23 H 0.894604 -3.721917 2.706487 0
M  V30 24 H -0.192755 -4.005042 -0.350848 0
M  V30 25 H -0.772044 -2.185533 -3.378689 0
M  V30 26 H 0.343519 -3.425909 -3.051658 0
M  V30 27 H 2.327814 0.606033 1.870184 0
M  V30 28 H 2.865693 3.003818 2.419823 0
M  V30 29 H 1.635608 4.783569 1.365990 0
M  V30 30 H -0.161870 4.332717 -0.259249 0
M  V30 31 H -0.718215 1.985247 -0.824038 0
M  V30 END ATOM
M  V30 BEGIN BOND
M  V30 1 1 1 2
M  V30 2 2 2 3
M  V30 3 1 2 4
M  V30 4 1 4 5
M  V30 5 2 5 6
M  V30 6 1 6 7
M  V30 7 1 7 8
M  V30 8 2 7 9
M  V30 9 1 9 10
M  V30 10 3 10 11
M  V30 11 1 9 12
M  V30 12 1 12 13
M  V30 13 2 13 14
M  V30 14 1 14 15
M  V30 15 2 15 16
M  V30 16 1 16 17
M  V30 17 2 17 18
M  V30 18 2 12 19
M  V30 19 1 19 5
M  V30 20 1 18 13
M  V30 21 1 1 20
M  V30 22 1 1 21
M  V30 23 1 1 22
M  V30 24 1 4 23
M  V30 25 1 6 24
M  V30 26 1 8 25
M  V30 27 1 8 26
M  V30 28 1 14 27
M  V30 29 1 15 28
M  V30 30 1 16 29
M  V30 31 1 17 30
M  V30 32 1 18 31
M  V30 END BOND
M  V30 END CTAB
M  END
>  <Dataset>  (561) 
ChEMBL_Kinases

>  <Ligand_Instance>  (561) 
nan

>  <PDB_ID>  (561) 
nan

>  <Standardized_SMILES>  (561) 
CC(=O)Nc1cc(N)c(C#N)c(-c2ccccc2)n1

>  <Name>  (561) 
nan

>  <Pocket>  (561) 
nan

>  <ATP_Site>  (561) 
nan

>  <Peripheral>  (561) 
nan

>  <Num_H_Atoms_ProtBoundConf>  (561) 
nan

>  <Num_Resolved_Atoms>  (561) 
nan

>  <Num_Not_Resolved_Atoms>  (561) 
nan

$$$$
CHEMBL1980297
     RDKit          3D

  0  0  0  0  0  0  0  0  0  0999 V3000
M  V30 BEGIN CTAB
M  V30 COUNTS 56 60 0 0 0
M  V30 BEGIN ATOM
M  V30 1 N 1.739541 -1.892141 2.344540 0
M  V30 2 C 2.017572 -0.514115 2.328878 0
M  V30 3 N 3.002760 -0.231983 3.177475 0
M  V30 4 C 3.540570 0.967242 3.420342 0
M  V30 5 C 2.956221 1.965414 2.670971 0
M  V30 6 C 3.404924 3.349486 2.792323 0
M  V30 7 C 2.656555 4.520337 2.900137 0
M  V30 8 N 3.572891 5.525988 2.985565 0
M  V30 9 N 4.788264 5.021930 2.935040 0
M  V30 10 C 6.021260 5.785058 2.997364 0
M  V30 11 C 6.403912 6.155502 1.564068 0
M  V30 12 O 5.440294 6.913550 0.935827 0
M  V30 13 C 4.763978 3.662197 2.813946 0
M  V30 14 C 1.932135 1.727155 1.777335 0
M  V30 15 S 1.055488 2.794580 0.729574 0
M  V30 16 C -0.039347 1.423434 0.005134 0
M  V30 17 C 0.417985 0.280196 0.679054 0
M  V30 18 C -0.317839 -0.913624 0.296847 0
M  V30 19 C -0.966766 -1.761226 1.168366 0
M  V30 20 C -1.639266 -2.895680 0.771224 0
M  V30 21 C -1.662611 -3.195435 -0.570130 0
M  V30 22 N -2.347302 -4.359243 -1.018835 0
M  V30 23 C -3.697331 -4.421489 -1.396615 0
M  V30 24 O -4.477361 -3.436216 -1.382988 0
M  V30 25 N -4.097840 -5.721626 -1.799736 0
M  V30 26 C -5.402217 -6.079790 -2.232418 0
M  V30 27 C -6.388680 -6.521598 -1.343801 0
M  V30 28 C -7.655892 -6.869188 -1.766826 0
M  V30 29 C -7.960594 -6.775511 -3.129347 0
M  V30 30 C -6.986929 -6.336783 -4.025299 0
M  V30 31 F -7.329843 -6.263502 -5.330008 0
M  V30 32 C -5.725907 -5.994910 -3.575758 0
M  V30 33 C -1.046200 -2.413990 -1.523899 0
M  V30 34 C -0.395315 -1.298362 -1.047235 0
M  V30 35 C 1.429264 0.476380 1.578364 0
M  V30 36 H 1.876079 -2.823262 1.889836 0
M  V30 37 H 1.169110 -2.512909 2.990132 0
M  V30 38 H 4.328845 1.222849 4.093224 0
M  V30 39 H 1.573698 4.537286 2.906636 0
M  V30 40 H 6.861526 5.170079 3.391026 0
M  V30 41 H 5.920872 6.678132 3.631028 0
M  V30 42 H 6.535763 5.175174 1.019410 0
M  V30 43 H 7.411923 6.621185 1.524834 0
M  V30 44 H 4.746273 6.354279 0.467551 0
M  V30 45 H 5.615785 2.993015 2.750377 0
M  V30 46 H -0.772587 1.651705 -0.728214 0
M  V30 47 H -0.972269 -1.544338 2.205771 0
M  V30 48 H -2.126775 -3.522322 1.481390 0
M  V30 49 H -1.667177 -5.151960 -1.015650 0
M  V30 50 H -3.489183 -6.568551 -1.828108 0
M  V30 51 H -6.132854 -6.587288 -0.292028 0
M  V30 52 H -8.386885 -7.207180 -1.032951 0
M  V30 53 H -8.979474 -7.059752 -3.435573 0
M  V30 54 H -4.965340 -5.649892 -4.292094 0
M  V30 55 H -1.047120 -2.623117 -2.584726 0
M  V30 56 H 0.116920 -0.631039 -1.748503 0
M  V30 END ATOM
M  V30 BEGIN BOND
M  V30 1 1 1 2
M  V30 2 2 2 3
M  V30 3 1 3 4
M  V30 4 2 4 5
M  V30 5 1 5 6
M  V30 6 1 6 7
M  V30 7 2 7 8
M  V30 8 1 8 9
M  V30 9 1 9 10
M  V30 10 1 10 11
M  V30 11 1 11 12
M  V30 12 1 9 13
M  V30 13 1 5 14
M  V30 14 1 14 15
M  V30 15 1 15 16
M  V30 16 2 16 17
M  V30 17 1 17 18
M  V30 18 2 18 19
M  V30 19 1 19 20
M  V30 20 2 20 21
M  V30 21 1 21 22
M  V30 22 1 22 23
M  V30 23 2 23 24
M  V30 24 1 23 25
M  V30 25 1 25 26
M  V30 26 2 26 27
M  V30 27 1 27 28
M  V30 28 2 28 29
M  V30 29 1 29 30
M  V30 30 1 30 31
M  V30 31 2 30 32
M  V30 32 1 21 33
M  V30 33 2 33 34
M  V30 34 1 17 35
M  V30 35 1 35 2
M  V30 36 2 13 6
M  V30 37 2 35 14
M  V30 38 1 34 18
M  V30 39 1 32 26
M  V30 40 1 1 36
M  V30 41 1 1 37
M  V30 42 1 4 38
M  V30 43 1 7 39
M  V30 44 1 10 40
M  V30 45 1 10 41
M  V30 46 1 11 42
M  V30 47 1 11 43
M  V30 48 1 12 44
M  V30 49 1 13 45
M  V30 50 1 16 46
M  V30 51 1 19 47
M  V30 52 1 20 48
M  V30 53 1 22 49
M  V30 54 1 25 50
M  V30 55 1 27 51
M  V30 56 1 28 52
M  V30 57 1 29 53
M  V30 58 1 32 54
M  V30 59 1 33 55
M  V30 60 1 34 56
M  V30 END BOND
M  V30 END CTAB
M  END
>  <Dataset>  (562) 
ChEMBL_Kinases

>  <Ligand_Instance>  (562) 
nan

>  <PDB_ID>  (562) 
nan

>  <Standardized_SMILES>  (562) 
Nc1ncc(-c2cnn(CCO)c2)c2scc(-c3ccc(NC(=O)Nc4cccc(F)c4)cc3)c12

>  <Name>  (562) 
ILORASERTIB

>  <Pocket>  (562) 
nan

>  <ATP_Site>  (562) 
nan

>  <Peripheral>  (562) 
nan

>  <Num_H_Atoms_ProtBoundConf>  (562) 
nan

>  <Num_Resolved_Atoms>  (562) 
nan

>  <Num_Not_Resolved_Atoms>  (562) 
nan

$$$$
CHEMBL2442291
     RDKit          3D

  0  0  0  0  0  0  0  0  0  0999 V3000
M  V30 BEGIN CTAB
M  V30 COUNTS 42 45 0 0 0
M  V30 BEGIN ATOM
M  V30 1 C 1.469635 -6.578834 2.071861 0
M  V30 2 C 1.460577 -5.170334 1.553910 0
M  V30 3 N 2.170631 -4.131893 2.028762 0
M  V30 4 N 1.887801 -3.057556 1.303892 0
M  V30 5 C 0.993328 -3.436985 0.371330 0
M  V30 6 C 0.369836 -2.624028 -0.666634 0
M  V30 7 C -0.528304 -3.236718 -1.519631 0
M  V30 8 C -1.185805 -2.569276 -2.545830 0
M  V30 9 C -0.910232 -1.219278 -2.702430 0
M  V30 10 C -0.013757 -0.601880 -1.853124 0
M  V30 11 C 0.349397 0.820083 -1.930919 0
M  V30 12 C 0.658901 1.541138 -3.085030 0
M  V30 13 N 0.931223 2.803817 -2.708127 0
M  V30 14 N 0.819125 2.946521 -1.395087 0
M  V30 15 C 0.984427 3.993553 -0.544487 0
M  V30 16 C 0.767280 3.725106 0.791428 0
M  V30 17 C 0.402615 2.494115 1.305872 0
M  V30 18 N 0.193268 2.281632 2.696485 0
M  V30 19 C -0.186135 0.953782 3.127496 0
M  V30 20 C -0.379254 0.846705 4.606936 0
M  V30 21 N 0.800788 1.169790 5.360055 0
M  V30 22 N 0.259809 1.511564 0.398166 0
M  V30 23 C 0.463976 1.740801 -0.909235 0
M  V30 24 C 0.644480 -1.280729 -0.821938 0
M  V30 25 O 0.758832 -4.704188 0.547276 0
M  V30 26 H 0.833158 -6.664461 2.978352 0
M  V30 27 H 1.005725 -7.239617 1.314046 0
M  V30 28 H 2.506241 -6.922296 2.269516 0
M  V30 29 H -0.786241 -4.297360 -1.446132 0
M  V30 30 H -1.886486 -3.067502 -3.204015 0
M  V30 31 H -1.376821 -0.614694 -3.477795 0
M  V30 32 H 0.670205 1.135228 -4.085111 0
M  V30 33 H 1.265314 4.951207 -0.919672 0
M  V30 34 H 0.895703 4.548853 1.475103 0
M  V30 35 H 0.326407 3.101252 3.329003 0
M  V30 36 H 0.558094 0.178350 2.792720 0
M  V30 37 H -1.136188 0.706056 2.626945 0
M  V30 38 H -0.668214 -0.208595 4.814747 0
M  V30 39 H -1.185129 1.543827 4.913980 0
M  V30 40 H 1.668377 0.747485 4.964654 0
M  V30 41 H 0.646117 0.901537 6.357485 0
M  V30 42 H 1.346184 -0.808725 -0.153112 0
M  V30 END ATOM
M  V30 BEGIN BOND
M  V30 1 1 1 2
M  V30 2 2 2 3
M  V30 3 1 3 4
M  V30 4 2 4 5
M  V30 5 1 5 6
M  V30 6 2 6 7
M  V30 7 1 7 8
M  V30 8 2 8 9
M  V30 9 1 9 10
M  V30 10 1 10 11
M  V30 11 1 11 12
M  V30 12 2 12 13
M  V30 13 1 13 14
M  V30 14 1 14 15
M  V30 15 2 15 16
M  V30 16 1 16 17
M  V30 17 1 17 18
M  V30 18 1 18 19
M  V30 19 1 19 20
M  V30 20 1 20 21
M  V30 21 2 17 22
M  V30 22 1 22 23
M  V30 23 2 10 24
M  V30 24 1 5 25
M  V30 25 1 25 2
M  V30 26 1 24 6
M  V30 27 2 23 11
M  V30 28 1 23 14
M  V30 29 1 1 26
M  V30 30 1 1 27
M  V30 31 1 1 28
M  V30 32 1 7 29
M  V30 33 1 8 30
M  V30 34 1 9 31
M  V30 35 1 12 32
M  V30 36 1 15 33
M  V30 37 1 16 34
M  V30 38 1 18 35
M  V30 39 1 19 36
M  V30 40 1 19 37
M  V30 41 1 20 38
M  V30 42 1 20 39
M  V30 43 1 21 40
M  V30 44 1 21 41
M  V30 45 1 24 42
M  V30 END BOND
M  V30 END CTAB
M  END
>  <Dataset>  (563) 
ChEMBL_Kinases

>  <Ligand_Instance>  (563) 
nan

>  <PDB_ID>  (563) 
nan

>  <Standardized_SMILES>  (563) 
Cc1nnc(-c2cccc(-c3cnn4ccc(NCCN)nc34)c2)o1

>  <Name>  (563) 
nan

>  <Pocket>  (563) 
nan

>  <ATP_Site>  (563) 
nan

>  <Peripheral>  (563) 
nan

>  <Num_H_Atoms_ProtBoundConf>  (563) 
nan

>  <Num_Resolved_Atoms>  (563) 
nan

>  <Num_Not_Resolved_Atoms>  (563) 
nan

$$$$
CHEMBL70078
     RDKit          3D

  0  0  0  0  0  0  0  0  0  0999 V3000
M  V30 BEGIN CTAB
M  V30 COUNTS 65 68 0 0 0
M  V30 BEGIN ATOM
M  V30 1 O 2.419464 2.610865 5.305869 0
M  V30 2 C 1.633620 1.796228 4.764494 0
M  V30 3 N 2.120597 1.702134 3.449683 0
M  V30 4 C 2.941868 1.957635 2.333053 0 CFG=1
M  V30 5 C 4.446547 1.976490 2.784259 0
M  V30 6 O 5.137353 1.759423 1.603709 0
M  V30 7 C 5.672952 0.516520 1.497176 0
M  V30 8 C 4.839325 -0.632229 1.908798 0
M  V30 9 C 3.384754 -0.435751 2.001171 0
M  V30 10 C 2.924683 0.892669 1.283003 0 CFG=1
M  V30 11 O 1.663796 0.553826 0.773556 0
M  V30 12 C 1.454265 0.192369 -0.544205 0
M  V30 13 O 2.518722 0.190449 -1.255642 0
M  V30 14 C 0.195229 -0.177014 -1.154681 0
M  V30 15 C -1.004243 -0.049960 -0.514774 0
M  V30 16 C -2.203726 -0.462193 -1.061276 0
M  V30 17 O -3.367006 -0.276561 -0.306130 0
M  V30 18 C -2.237568 -1.033857 -2.308606 0
M  V30 19 C -3.469402 -1.405320 -2.969347 0
M  V30 20 O -4.323642 -0.624599 -2.433698 0
M  V30 21 C -4.004717 -2.268694 -3.936379 0
M  V30 22 C -5.106683 -1.748171 -4.613366 0
M  V30 23 O -5.572966 -0.429872 -4.365090 0
M  V30 24 C -5.872661 -2.403696 -5.582363 0
M  V30 25 C -5.458835 -3.683228 -5.856830 0
M  V30 26 C -4.392372 -4.273259 -5.242335 0
M  V30 27 C -3.700635 -3.555064 -4.304761 0
M  V30 28 C -2.650910 -4.255457 -3.575253 0
M  V30 29 O -1.855085 -4.109243 -2.626289 0
M  V30 30 O -2.166818 -5.526650 -3.786937 0
M  V30 31 C -1.012042 -1.158535 -2.963993 0
M  V30 32 O -0.870486 -1.702349 -4.221487 0
M  V30 33 C 0.163684 -0.737749 -2.391764 0
M  V30 34 C 0.518026 1.130547 5.376994 0
M  V30 35 C 0.380010 1.424615 6.708083 0
M  V30 36 C -0.660003 0.871814 7.412516 0
M  V30 37 C -1.560613 0.031314 6.798406 0
M  V30 38 O -2.668089 -0.606140 7.378079 0
M  V30 39 C -1.458228 -0.298865 5.433070 0
M  V30 40 C -0.373680 0.296090 4.771113 0
M  V30 41 H 1.416947 0.983648 3.009861 0
M  V30 42 H 2.831824 2.965825 1.952295 0
M  V30 43 H 4.671435 1.150829 3.454243 0
M  V30 44 H 4.696050 2.987219 3.144543 0
M  V30 45 H 6.656758 0.522082 2.047759 0
M  V30 46 H 5.957339 0.353705 0.424130 0
M  V30 47 H 5.040787 -1.557886 1.278328 0
M  V30 48 H 5.190069 -0.940082 2.936804 0
M  V30 49 H 2.959993 -0.417712 3.012022 0
M  V30 50 H 2.875961 -1.246610 1.465987 0
M  V30 51 H 3.733020 1.007699 0.560613 0
M  V30 52 H -1.037842 0.391010 0.456049 0
M  V30 53 H -3.863701 0.581239 -0.521546 0
M  V30 54 H -4.909538 0.323268 -4.563970 0
M  V30 55 H -6.702123 -1.930109 -6.048990 0
M  V30 56 H -5.988282 -4.245966 -6.581026 0
M  V30 57 H -4.111692 -5.301041 -5.501406 0
M  V30 58 H -1.242135 -5.702971 -4.177818 0
M  V30 59 H -1.490797 -1.412736 -4.968930 0
M  V30 60 H 1.126001 -0.828510 -2.909215 0
M  V30 61 H 1.066481 2.077150 7.264566 0
M  V30 62 H -0.814920 1.050558 8.464110 0
M  V30 63 H -2.810128 -1.600278 7.218285 0
M  V30 64 H -2.122812 -0.941161 4.889268 0
M  V30 65 H -0.234246 0.074493 3.731005 0
M  V30 END ATOM
M  V30 BEGIN BOND
M  V30 1 2 1 2
M  V30 2 1 2 3
M  V30 3 1 3 4
M  V30 4 1 4 5
M  V30 5 1 5 6
M  V30 6 1 6 7
M  V30 7 1 7 8
M  V30 8 1 8 9
M  V30 9 1 9 10
M  V30 10 1 10 11
M  V30 11 1 11 12
M  V30 12 2 12 13
M  V30 13 1 12 14
M  V30 14 2 14 15
M  V30 15 1 15 16
M  V30 16 1 16 17
M  V30 17 2 16 18
M  V30 18 1 18 19
M  V30 19 2 19 20
M  V30 20 1 19 21
M  V30 21 2 21 22
M  V30 22 1 22 23
M  V30 23 1 22 24
M  V30 24 2 24 25
M  V30 25 1 25 26
M  V30 26 2 26 27
M  V30 27 1 27 28
M  V30 28 2 28 29
M  V30 29 1 28 30
M  V30 30 1 18 31
M  V30 31 1 31 32
M  V30 32 2 31 33
M  V30 33 1 2 34
M  V30 34 2 34 35
M  V30 35 1 35 36
M  V30 36 2 36 37
M  V30 37 1 37 38
M  V30 38 1 37 39
M  V30 39 2 39 40
M  V30 40 1 10 4
M  V30 41 1 33 14
M  V30 42 1 40 34
M  V30 43 1 27 21
M  V30 44 1 3 41
M  V30 45 1 4 42 CFG=3
M  V30 46 1 5 43
M  V30 47 1 5 44
M  V30 48 1 7 45
M  V30 49 1 7 46
M  V30 50 1 8 47
M  V30 51 1 8 48
M  V30 52 1 9 49
M  V30 53 1 9 50
M  V30 54 1 10 51 CFG=3
M  V30 55 1 15 52
M  V30 56 1 17 53
M  V30 57 1 23 54
M  V30 58 1 24 55
M  V30 59 1 25 56
M  V30 60 1 26 57
M  V30 61 1 30 58
M  V30 62 1 32 59
M  V30 63 1 33 60
M  V30 64 1 35 61
M  V30 65 1 36 62
M  V30 66 1 38 63
M  V30 67 1 39 64
M  V30 68 1 40 65
M  V30 END BOND
M  V30 END CTAB
M  END
>  <Dataset>  (564) 
ChEMBL_Kinases

>  <Ligand_Instance>  (564) 
nan

>  <PDB_ID>  (564) 
nan

>  <Standardized_SMILES>  (564) 
O=C(N[C@H]1COCCC[C@H]1OC(=O)c1cc(O)c(C(=O)c2c(O)cccc2C(=O)O)c(O)c1)c1ccc(O)cc1

>  <Name>  (564) 
nan

>  <Pocket>  (564) 
nan

>  <ATP_Site>  (564) 
nan

>  <Peripheral>  (564) 
nan

>  <Num_H_Atoms_ProtBoundConf>  (564) 
nan

>  <Num_Resolved_Atoms>  (564) 
nan

>  <Num_Not_Resolved_Atoms>  (564) 
nan

$$$$
CHEMBL4633766
     RDKit          3D

  0  0  0  0  0  0  0  0  0  0999 V3000
M  V30 BEGIN CTAB
M  V30 COUNTS 47 51 0 0 0
M  V30 BEGIN ATOM
M  V30 1 O -0.679745 -0.877117 3.671536 0
M  V30 2 C -0.879727 -0.396005 2.528905 0
M  V30 3 C 0.180635 0.457224 1.993375 0
M  V30 4 C 1.261812 0.671268 2.717884 0
M  V30 5 C 2.306692 1.531922 2.151664 0
M  V30 6 N 2.282819 2.138839 0.950970 0
M  V30 7 C 3.397414 2.858532 0.731237 0
M  V30 8 C 3.792187 3.628772 -0.344735 0
M  V30 9 C 5.025373 4.277821 -0.302693 0
M  V30 10 F 5.439204 5.038112 -1.339320 0
M  V30 11 C 5.777538 4.098153 0.837723 0
M  V30 12 F 6.985116 4.731743 0.882732 0
M  V30 13 C 5.404983 3.334493 1.924358 0
M  V30 14 C 4.168343 2.686251 1.877114 0
M  V30 15 N 3.476781 1.876292 2.717358 0
M  V30 16 C -2.076388 -0.613300 1.689010 0
M  V30 17 C -1.972020 -1.716812 0.844913 0
M  V30 18 C -0.778084 -2.573888 0.805264 0
M  V30 19 C -0.884536 -3.622882 1.718382 0
M  V30 20 C 0.117834 -4.557313 1.858757 0
M  V30 21 C 1.250294 -4.428789 1.060232 0
M  V30 22 F 2.288816 -5.319858 1.143387 0
M  V30 23 C 1.352552 -3.385368 0.154191 0
M  V30 24 C 0.347868 -2.460624 0.023064 0
M  V30 25 C -3.014080 -2.042726 0.001810 0
M  V30 26 C -2.983293 -3.118895 -0.860658 0
M  V30 27 C -4.011614 -3.463056 -1.711062 0
M  V30 28 Cl -3.903048 -4.832416 -2.770096 0
M  V30 29 C -5.129747 -2.644779 -1.661164 0
M  V30 30 C -5.248088 -1.536691 -0.821067 0
M  V30 31 C -4.163470 -1.248179 0.015016 0
M  V30 32 N -4.224014 -0.188676 0.847401 0
M  V30 33 C -3.219267 0.148640 1.679172 0
M  V30 34 O -3.225472 1.108281 2.460017 0
M  V30 35 H 0.102511 0.923225 1.008413 0
M  V30 36 H 1.428770 0.252686 3.704579 0
M  V30 37 H 3.139420 3.717470 -1.204236 0
M  V30 38 H 6.024511 3.218314 2.802064 0
M  V30 39 H 3.820159 1.581606 3.649890 0
M  V30 40 H -1.731976 -3.809673 2.389168 0
M  V30 41 H 0.066841 -5.391815 2.564501 0
M  V30 42 H 2.218700 -3.244752 -0.490751 0
M  V30 43 H 0.308298 -1.607427 -0.642236 0
M  V30 44 H -2.075631 -3.730021 -0.857750 0
M  V30 45 H -5.947283 -2.905306 -2.326557 0
M  V30 46 H -6.147714 -0.939675 -0.831061 0
M  V30 47 H -5.080189 0.432124 0.880894 0
M  V30 END ATOM
M  V30 BEGIN BOND
M  V30 1 2 1 2
M  V30 2 1 2 3
M  V30 3 2 3 4
M  V30 4 1 4 5
M  V30 5 2 5 6
M  V30 6 1 6 7
M  V30 7 2 7 8
M  V30 8 1 8 9
M  V30 9 1 9 10
M  V30 10 2 9 11
M  V30 11 1 11 12
M  V30 12 1 11 13
M  V30 13 2 13 14
M  V30 14 1 14 15
M  V30 15 1 2 16
M  V30 16 2 16 17
M  V30 17 1 17 18
M  V30 18 2 18 19
M  V30 19 1 19 20
M  V30 20 2 20 21
M  V30 21 1 21 22
M  V30 22 1 21 23
M  V30 23 2 23 24
M  V30 24 1 17 25
M  V30 25 2 25 26
M  V30 26 1 26 27
M  V30 27 1 27 28
M  V30 28 2 27 29
M  V30 29 1 29 30
M  V30 30 2 30 31
M  V30 31 1 31 32
M  V30 32 1 32 33
M  V30 33 2 33 34
M  V30 34 1 15 5
M  V30 35 1 33 16
M  V30 36 1 14 7
M  V30 37 1 24 18
M  V30 38 1 31 25
M  V30 39 1 3 35
M  V30 40 1 4 36
M  V30 41 1 8 37
M  V30 42 1 13 38
M  V30 43 1 15 39
M  V30 44 1 19 40
M  V30 45 1 20 41
M  V30 46 1 23 42
M  V30 47 1 24 43
M  V30 48 1 26 44
M  V30 49 1 29 45
M  V30 50 1 30 46
M  V30 51 1 32 47
M  V30 END BOND
M  V30 END CTAB
M  END
>  <Dataset>  (565) 
ChEMBL_Kinases

>  <Ligand_Instance>  (565) 
nan

>  <PDB_ID>  (565) 
nan

>  <Standardized_SMILES>  (565) 
O=C(/C=C/c1nc2cc(F)c(F)cc2[nH]1)c1c(-c2ccc(F)cc2)c2cc(Cl)ccc2[nH]c1=O

>  <Name>  (565) 
nan

>  <Pocket>  (565) 
nan

>  <ATP_Site>  (565) 
nan

>  <Peripheral>  (565) 
nan

>  <Num_H_Atoms_ProtBoundConf>  (565) 
nan

>  <Num_Resolved_Atoms>  (565) 
nan

>  <Num_Not_Resolved_Atoms>  (565) 
nan

$$$$
CHEMBL1884711
     RDKit          3D

  0  0  0  0  0  0  0  0  0  0999 V3000
M  V30 BEGIN CTAB
M  V30 COUNTS 37 40 0 0 0
M  V30 BEGIN ATOM
M  V30 1 C 0.503455 -3.413361 2.859150 0
M  V30 2 C -0.603798 -3.836412 2.166226 0
M  V30 3 N -0.521698 -3.995539 0.839589 0
M  V30 4 C 0.583244 -3.765007 0.139737 0
M  V30 5 C 1.725408 -3.336578 0.797067 0
M  V30 6 C 3.024062 -3.039469 0.086687 0
M  V30 7 N 3.111148 -1.657521 -0.269798 0
M  V30 8 C 2.532665 -0.598628 -1.015162 0
M  V30 9 C 2.863479 -0.015027 -2.215933 0
M  V30 10 C 2.080073 1.009208 -2.692398 0
M  V30 11 N 1.021230 1.403372 -1.971217 0
M  V30 12 C 0.663194 0.862483 -0.798264 0
M  V30 13 C -0.508905 1.317044 -0.028933 0
M  V30 14 C -1.305285 2.358086 -0.429568 0
M  V30 15 C -2.396314 2.755278 0.309786 0
M  V30 16 C -2.665606 2.057313 1.490332 0
M  V30 17 N -3.626082 2.180230 2.418940 0
M  V30 18 N -3.459671 1.262765 3.377256 0
M  V30 19 C -2.374495 0.497401 3.109538 0
M  V30 20 C -1.880822 1.004698 1.921001 0
M  V30 21 C -0.810872 0.647584 1.154199 0
M  V30 22 N 1.436962 -0.142950 -0.335006 0
M  V30 23 C 1.703788 -3.151332 2.185556 0
M  V30 24 H 0.370132 -3.304450 3.932952 0
M  V30 25 H -1.562116 -4.057243 2.620570 0
M  V30 26 H 0.694491 -3.883841 -0.949488 0
M  V30 27 H 3.121584 -3.697991 -0.802701 0
M  V30 28 H 3.882469 -3.286736 0.733189 0
M  V30 29 H 3.903946 -1.053737 0.110415 0
M  V30 30 H 3.746522 -0.479264 -2.632844 0
M  V30 31 H 2.397801 1.414548 -3.629790 0
M  V30 32 H -1.035140 2.846196 -1.349385 0
M  V30 33 H -3.031145 3.576726 -0.001119 0
M  V30 34 H -4.375241 2.898006 2.368170 0
M  V30 35 H -1.989135 -0.320802 3.695347 0
M  V30 36 H -0.162519 -0.188531 1.467379 0
M  V30 37 H 2.540838 -2.822941 2.781489 0
M  V30 END ATOM
M  V30 BEGIN BOND
M  V30 1 2 1 2
M  V30 2 1 2 3
M  V30 3 2 3 4
M  V30 4 1 4 5
M  V30 5 1 5 6
M  V30 6 1 6 7
M  V30 7 1 7 8
M  V30 8 2 8 9
M  V30 9 1 9 10
M  V30 10 2 10 11
M  V30 11 1 11 12
M  V30 12 1 12 13
M  V30 13 2 13 14
M  V30 14 1 14 15
M  V30 15 2 15 16
M  V30 16 1 16 17
M  V30 17 1 17 18
M  V30 18 2 18 19
M  V30 19 1 19 20
M  V30 20 2 20 21
M  V30 21 2 12 22
M  V30 22 2 5 23
M  V30 23 1 23 1
M  V30 24 1 22 8
M  V30 25 1 21 13
M  V30 26 1 20 16
M  V30 27 1 1 24
M  V30 28 1 2 25
M  V30 29 1 4 26
M  V30 30 1 6 27
M  V30 31 1 6 28
M  V30 32 1 7 29
M  V30 33 1 9 30
M  V30 34 1 10 31
M  V30 35 1 14 32
M  V30 36 1 15 33
M  V30 37 1 17 34
M  V30 38 1 19 35
M  V30 39 1 21 36
M  V30 40 1 23 37
M  V30 END BOND
M  V30 END CTAB
M  END
>  <Dataset>  (566) 
ChEMBL_Kinases

>  <Ligand_Instance>  (566) 
nan

>  <PDB_ID>  (566) 
nan

>  <Standardized_SMILES>  (566) 
c1cncc(CNc2ccnc(-c3ccc4[nH]ncc4c3)n2)c1

>  <Name>  (566) 
nan

>  <Pocket>  (566) 
nan

>  <ATP_Site>  (566) 
nan

>  <Peripheral>  (566) 
nan

>  <Num_H_Atoms_ProtBoundConf>  (566) 
nan

>  <Num_Resolved_Atoms>  (566) 
nan

>  <Num_Not_Resolved_Atoms>  (566) 
nan

$$$$
CHEMBL4453941
     RDKit          3D

  0  0  0  0  0  0  0  0  0  0999 V3000
M  V30 BEGIN CTAB
M  V30 COUNTS 34 36 0 0 0
M  V30 BEGIN ATOM
M  V30 1 C -0.941021 -2.184474 2.734077 0
M  V30 2 C 0.410197 -2.729521 2.318935 0
M  V30 3 C 0.205395 -4.168029 1.924160 0
M  V30 4 C 1.255450 -2.670579 3.516161 0
M  V30 5 N 1.936613 -2.630969 4.448981 0
M  V30 6 C 0.987680 -1.916208 1.220676 0
M  V30 7 C 2.223129 -2.336636 0.773555 0
M  V30 8 C 2.797985 -1.598690 -0.256674 0
M  V30 9 C 2.088907 -0.518594 -0.738764 0
M  V30 10 C 0.854479 -0.098540 -0.291993 0
M  V30 11 C 0.170835 1.058932 -0.859157 0
M  V30 12 C 0.693707 1.823581 -1.878003 0
M  V30 13 C 0.036913 2.915473 -2.405222 0
M  V30 14 N -1.166748 3.273855 -1.925155 0
M  V30 15 C -1.696199 2.540980 -0.929939 0
M  V30 16 N -2.878075 2.728025 -0.313445 0
M  V30 17 C -3.053596 1.792763 0.625996 0
M  V30 18 C -1.920525 0.992166 0.581949 0
M  V30 19 C -1.064617 1.435666 -0.374236 0
M  V30 20 N 0.359869 -0.857321 0.703491 0
M  V30 21 H -0.774477 -1.104534 3.019704 0
M  V30 22 H -1.377666 -2.735607 3.571223 0
M  V30 23 H -1.604595 -2.164991 1.857377 0
M  V30 24 H -0.651055 -4.639231 2.450858 0
M  V30 25 H 1.104730 -4.734608 2.295614 0
M  V30 26 H 0.044361 -4.301138 0.848870 0
M  V30 27 H 2.733783 -3.183881 1.181857 0
M  V30 28 H 3.757269 -1.900062 -0.625933 0
M  V30 29 H 2.606767 -0.003010 -1.535444 0
M  V30 30 H 1.637571 1.597393 -2.302738 0
M  V30 31 H 0.474272 3.496797 -3.206136 0
M  V30 32 H -3.607061 3.467546 -0.482710 0
M  V30 33 H -3.907420 1.668040 1.300146 0
M  V30 34 H -1.738463 0.141922 1.210162 0
M  V30 END ATOM
M  V30 BEGIN BOND
M  V30 1 1 1 2
M  V30 2 1 2 3
M  V30 3 1 2 4
M  V30 4 3 4 5
M  V30 5 1 2 6
M  V30 6 2 6 7
M  V30 7 1 7 8
M  V30 8 2 8 9
M  V30 9 1 9 10
M  V30 10 1 10 11
M  V30 11 2 11 12
M  V30 12 1 12 13
M  V30 13 2 13 14
M  V30 14 1 14 15
M  V30 15 1 15 16
M  V30 16 1 16 17
M  V30 17 2 17 18
M  V30 18 1 18 19
M  V30 19 2 10 20
M  V30 20 1 20 6
M  V30 21 1 19 11
M  V30 22 2 19 15
M  V30 23 1 1 21
M  V30 24 1 1 22
M  V30 25 1 1 23
M  V30 26 1 3 24
M  V30 27 1 3 25
M  V30 28 1 3 26
M  V30 29 1 7 27
M  V30 30 1 8 28
M  V30 31 1 9 29
M  V30 32 1 12 30
M  V30 33 1 13 31
M  V30 34 1 16 32
M  V30 35 1 17 33
M  V30 36 1 18 34
M  V30 END BOND
M  V30 END CTAB
M  END
>  <Dataset>  (567) 
ChEMBL_Kinases

>  <Ligand_Instance>  (567) 
nan

>  <PDB_ID>  (567) 
nan

>  <Standardized_SMILES>  (567) 
CC(C)(C#N)c1cccc(-c2ccnc3[nH]ccc23)n1

>  <Name>  (567) 
nan

>  <Pocket>  (567) 
nan

>  <ATP_Site>  (567) 
nan

>  <Peripheral>  (567) 
nan

>  <Num_H_Atoms_ProtBoundConf>  (567) 
nan

>  <Num_Resolved_Atoms>  (567) 
nan

>  <Num_Not_Resolved_Atoms>  (567) 
nan

$$$$
CHEMBL3330409
     RDKit          3D

  0  0  0  0  0  0  0  0  0  0999 V3000
M  V30 BEGIN CTAB
M  V30 COUNTS 61 64 0 0 0
M  V30 BEGIN ATOM
M  V30 1 C 3.018036 -1.233781 2.673799 0
M  V30 2 C 2.425904 0.177371 2.742341 0
M  V30 3 C 3.351488 1.117322 2.115022 0
M  V30 4 C 4.138131 1.937921 2.936682 0
M  V30 5 C 5.050663 2.844524 2.442831 0
M  V30 6 C 5.197829 2.950755 1.077185 0
M  V30 7 C 4.402919 2.124098 0.313890 0
M  V30 8 C 3.459117 1.184552 0.758318 0
M  V30 9 C 2.718735 0.420519 -0.233208 0
M  V30 10 C 1.269028 0.317695 -0.069673 0
M  V30 11 O 0.896374 -0.881375 -0.130719 0
M  V30 12 N 0.341312 1.343220 0.129674 0
M  V30 13 C -1.060583 1.254400 0.285997 0
M  V30 14 C -1.777440 2.406426 0.476554 0
M  V30 15 C -3.146426 2.411475 0.634973 0
M  V30 16 C -3.878136 1.252415 0.610899 0
M  V30 17 N -5.185168 0.959115 0.732592 0
M  V30 18 N -5.317687 -0.369854 0.622626 0
M  V30 19 C -4.117063 -0.949136 0.431071 0
M  V30 20 C -3.878867 -2.375196 0.266222 0
M  V30 21 C -2.857507 -2.985689 0.958682 0
M  V30 22 C -2.566651 -4.330556 0.853903 0
M  V30 23 C -3.305405 -5.139366 0.030622 0
M  V30 24 C -4.333164 -4.548618 -0.672242 0
M  V30 25 S -5.287327 -5.564307 -1.729629 0
M  V30 26 N -6.650182 -6.235752 -0.900411 0
M  V30 27 O -5.733420 -4.716440 -2.893450 0
M  V30 28 O -4.400311 -6.696159 -2.217591 0
M  V30 29 C -4.629186 -3.199800 -0.570631 0
M  V30 30 C -3.190269 0.081623 0.422104 0
M  V30 31 C -1.824406 0.111922 0.267253 0
M  V30 32 N 3.269339 -0.910384 -0.454241 0
M  V30 33 C 2.688226 -1.486679 -1.665657 0
M  V30 34 C 4.696127 -0.886170 -0.620115 0
M  V30 35 H 4.034397 -1.195637 2.209893 0
M  V30 36 H 2.402421 -1.883155 2.013290 0
M  V30 37 H 3.087433 -1.710358 3.680513 0
M  V30 38 H 1.417865 0.117223 2.346807 0
M  V30 39 H 2.404194 0.390943 3.858225 0
M  V30 40 H 4.042587 1.875519 4.033466 0
M  V30 41 H 5.628953 3.450102 3.123879 0
M  V30 42 H 5.893948 3.639694 0.623634 0
M  V30 43 H 4.553067 2.241566 -0.772764 0
M  V30 44 H 2.860523 0.933010 -1.236634 0
M  V30 45 H 0.809975 2.260024 0.155663 0
M  V30 46 H -1.234522 3.358154 0.502912 0
M  V30 47 H -3.614465 3.374595 0.779368 0
M  V30 48 H -5.919463 1.689281 0.885099 0
M  V30 49 H -2.197349 -2.472758 1.642276 0
M  V30 50 H -1.760970 -4.820180 1.398499 0
M  V30 51 H -3.091684 -6.191985 -0.063211 0
M  V30 52 H -7.552575 -5.983649 -1.369735 0
M  V30 53 H -6.681822 -5.905384 0.103106 0
M  V30 54 H -5.433956 -2.749286 -1.123853 0
M  V30 55 H -1.354439 -0.832595 0.123414 0
M  V30 56 H 3.480266 -1.786255 -2.389984 0
M  V30 57 H 2.073257 -2.372859 -1.482788 0
M  V30 58 H 2.037710 -0.723035 -2.167555 0
M  V30 59 H 5.011710 -0.433267 -1.583911 0
M  V30 60 H 5.046980 -1.938111 -0.652228 0
M  V30 61 H 5.244112 -0.378306 0.172376 0
M  V30 END ATOM
M  V30 BEGIN BOND
M  V30 1 1 1 2
M  V30 2 1 2 3
M  V30 3 2 3 4
M  V30 4 1 4 5
M  V30 5 2 5 6
M  V30 6 1 6 7
M  V30 7 2 7 8
M  V30 8 1 8 9
M  V30 9 1 9 10
M  V30 10 2 10 11
M  V30 11 1 10 12
M  V30 12 1 12 13
M  V30 13 2 13 14
M  V30 14 1 14 15
M  V30 15 2 15 16
M  V30 16 1 16 17
M  V30 17 1 17 18
M  V30 18 2 18 19
M  V30 19 1 19 20
M  V30 20 2 20 21
M  V30 21 1 21 22
M  V30 22 2 22 23
M  V30 23 1 23 24
M  V30 24 1 24 25
M  V30 25 1 25 26
M  V30 26 2 25 27
M  V30 27 2 25 28
M  V30 28 2 24 29
M  V30 29 1 19 30
M  V30 30 2 30 31
M  V30 31 1 9 32
M  V30 32 1 32 33
M  V30 33 1 32 34
M  V30 34 1 8 3
M  V30 35 1 31 13
M  V30 36 1 30 16
M  V30 37 1 29 20
M  V30 38 1 1 35
M  V30 39 1 1 36
M  V30 40 1 1 37
M  V30 41 1 2 38
M  V30 42 1 2 39
M  V30 43 1 4 40
M  V30 44 1 5 41
M  V30 45 1 6 42
M  V30 46 1 7 43
M  V30 47 1 9 44
M  V30 48 1 12 45
M  V30 49 1 14 46
M  V30 50 1 15 47
M  V30 51 1 17 48
M  V30 52 1 21 49
M  V30 53 1 22 50
M  V30 54 1 23 51
M  V30 55 1 26 52
M  V30 56 1 26 53
M  V30 57 1 29 54
M  V30 58 1 31 55
M  V30 59 1 33 56
M  V30 60 1 33 57
M  V30 61 1 33 58
M  V30 62 1 34 59
M  V30 63 1 34 60
M  V30 64 1 34 61
M  V30 END BOND
M  V30 END CTAB
M  END
>  <Dataset>  (568) 
ChEMBL_Kinases

>  <Ligand_Instance>  (568) 
nan

>  <PDB_ID>  (568) 
nan

>  <Standardized_SMILES>  (568) 
CCc1ccccc1C(C(=O)Nc1ccc2[nH]nc(-c3cccc(S(N)(=O)=O)c3)c2c1)N(C)C

>  <Name>  (568) 
nan

>  <Pocket>  (568) 
nan

>  <ATP_Site>  (568) 
nan

>  <Peripheral>  (568) 
nan

>  <Num_H_Atoms_ProtBoundConf>  (568) 
nan

>  <Num_Resolved_Atoms>  (568) 
nan

>  <Num_Not_Resolved_Atoms>  (568) 
nan

$$$$
CHEMBL523155
     RDKit          3D

  0  0  0  0  0  0  0  0  0  0999 V3000
M  V30 BEGIN CTAB
M  V30 COUNTS 58 60 0 0 0
M  V30 BEGIN ATOM
M  V30 1 C 3.004927 -0.497045 4.768206 0
M  V30 2 C 2.623732 -1.125816 3.479695 0
M  V30 3 C 1.750740 -2.314469 3.406081 0
M  V30 4 C 3.134799 -0.526289 2.427911 0
M  V30 5 C 4.015200 0.669274 2.474651 0
M  V30 6 C 4.020807 1.215777 1.081807 0
M  V30 7 C 5.441017 1.466943 0.551494 0
M  V30 8 O 6.188644 0.319638 0.584357 0
M  V30 9 C 3.319439 2.531151 0.963203 0
M  V30 10 O 1.943064 2.409394 1.282374 0
M  V30 11 C 1.072564 3.439101 1.252479 0
M  V30 12 O 1.967250 4.274798 0.886859 0
M  V30 13 C -0.223660 4.059697 1.399398 0
M  V30 14 O -1.266866 3.163711 1.804445 0
M  V30 15 C -1.592189 2.072301 1.013364 0
M  V30 16 C -2.634031 1.338854 1.596205 0
M  V30 17 C -3.097610 0.194993 0.933094 0
M  V30 18 C -2.491582 -0.153574 -0.280615 0
M  V30 19 C -3.027604 -1.347457 -0.905695 0
M  V30 20 C -3.474492 -2.339875 -1.441502 0
M  V30 21 C -4.007904 -3.506555 -2.099954 0
M  V30 22 C -4.791829 -3.388070 -3.252250 0
M  V30 23 C -5.305916 -4.525901 -3.881894 0
M  V30 24 C -5.047873 -5.799365 -3.373916 0
M  V30 25 C -5.605306 -7.007734 -4.058489 0
M  V30 26 C -4.273435 -5.923145 -2.234778 0
M  V30 27 C -3.767705 -4.782737 -1.617821 0
M  V30 28 C -1.465961 0.571639 -0.850430 0
M  V30 29 C -1.023072 1.694568 -0.182938 0
M  V30 30 O 3.481546 0.229000 0.219570 0
M  V30 31 C 3.013024 -0.813440 1.008031 0
M  V30 32 O 2.530163 -1.900610 0.544426 0
M  V30 33 H 2.538716 -1.038759 5.639053 0
M  V30 34 H 2.635155 0.544578 4.849403 0
M  V30 35 H 4.091949 -0.514669 4.972139 0
M  V30 36 H 1.859728 -2.910465 4.356884 0
M  V30 37 H 1.957627 -2.962936 2.545270 0
M  V30 38 H 0.675198 -1.986216 3.421462 0
M  V30 39 H 5.039657 0.296329 2.681455 0
M  V30 40 H 3.668918 1.407386 3.201114 0
M  V30 41 H 5.308553 1.778924 -0.504387 0
M  V30 42 H 5.847583 2.301613 1.148188 0
M  V30 43 H 7.063072 0.551452 0.995157 0
M  V30 44 H 3.790745 3.229205 1.669223 0
M  V30 45 H 3.391493 2.932089 -0.055511 0
M  V30 46 H -0.165625 4.903519 2.135562 0
M  V30 47 H -0.587684 4.562998 0.457641 0
M  V30 48 H -3.133705 1.557811 2.520214 0
M  V30 49 H -3.899464 -0.395561 1.351876 0
M  V30 50 H -5.012736 -2.416101 -3.674271 0
M  V30 51 H -5.913850 -4.422667 -4.776300 0
M  V30 52 H -6.278676 -6.696609 -4.856949 0
M  V30 53 H -6.227664 -7.601465 -3.329848 0
M  V30 54 H -4.819580 -7.667585 -4.471309 0
M  V30 55 H -4.066016 -6.908319 -1.829957 0
M  V30 56 H -3.162564 -4.867453 -0.729553 0
M  V30 57 H -1.025559 0.267784 -1.788674 0
M  V30 58 H -0.240546 2.318509 -0.537987 0
M  V30 END ATOM
M  V30 BEGIN BOND
M  V30 1 1 1 2
M  V30 2 1 2 3
M  V30 3 2 2 4 CFG=2
M  V30 4 1 4 5
M  V30 5 1 5 6
M  V30 6 1 6 7
M  V30 7 1 7 8
M  V30 8 1 6 9
M  V30 9 1 9 10
M  V30 10 1 10 11
M  V30 11 2 11 12
M  V30 12 1 11 13
M  V30 13 1 13 14
M  V30 14 1 14 15
M  V30 15 2 15 16
M  V30 16 1 16 17
M  V30 17 2 17 18
M  V30 18 1 18 19
M  V30 19 3 19 20
M  V30 20 1 20 21
M  V30 21 2 21 22
M  V30 22 1 22 23
M  V30 23 2 23 24
M  V30 24 1 24 25
M  V30 25 1 24 26
M  V30 26 2 26 27
M  V30 27 1 18 28
M  V30 28 2 28 29
M  V30 29 1 6 30
M  V30 30 1 30 31
M  V30 31 2 31 32
M  V30 32 1 31 4
M  V30 33 1 29 15
M  V30 34 1 27 21
M  V30 35 1 1 33
M  V30 36 1 1 34
M  V30 37 1 1 35
M  V30 38 1 3 36
M  V30 39 1 3 37
M  V30 40 1 3 38
M  V30 41 1 5 39
M  V30 42 1 5 40
M  V30 43 1 7 41
M  V30 44 1 7 42
M  V30 45 1 8 43
M  V30 46 1 9 44
M  V30 47 1 9 45
M  V30 48 1 13 46
M  V30 49 1 13 47
M  V30 50 1 16 48
M  V30 51 1 17 49
M  V30 52 1 22 50
M  V30 53 1 23 51
M  V30 54 1 25 52
M  V30 55 1 25 53
M  V30 56 1 25 54
M  V30 57 1 26 55
M  V30 58 1 27 56
M  V30 59 1 28 57
M  V30 60 1 29 58
M  V30 END BOND
M  V30 END CTAB
M  END
>  <Dataset>  (569) 
ChEMBL_Kinases

>  <Ligand_Instance>  (569) 
nan

>  <PDB_ID>  (569) 
nan

>  <Standardized_SMILES>  (569) 
CC(C)=C1CC(CO)(COC(=O)COc2ccc(C#Cc3ccc(C)cc3)cc2)OC1=O

>  <Name>  (569) 
nan

>  <Pocket>  (569) 
nan

>  <ATP_Site>  (569) 
nan

>  <Peripheral>  (569) 
nan

>  <Num_H_Atoms_ProtBoundConf>  (569) 
nan

>  <Num_Resolved_Atoms>  (569) 
nan

>  <Num_Not_Resolved_Atoms>  (569) 
nan

$$$$
CHEMBL3799389
     RDKit          3D

  0  0  0  0  0  0  0  0  0  0999 V3000
M  V30 BEGIN CTAB
M  V30 COUNTS 43 47 0 0 0
M  V30 BEGIN ATOM
M  V30 1 O -0.687577 -1.814684 5.314977 0
M  V30 2 C 0.056973 -1.316659 4.464655 0
M  V30 3 N 1.327511 -0.765320 4.782193 0
M  V30 4 C 1.853637 -0.302360 3.523516 0
M  V30 5 C 3.104938 0.313028 3.407376 0
M  V30 6 C 3.513960 0.718829 2.156995 0
M  V30 7 C 2.655328 0.493019 1.072741 0
M  V30 8 N 3.194237 0.959022 -0.168006 0
M  V30 9 C 4.002367 0.364343 -1.178900 0
M  V30 10 O 4.402021 -0.825988 -1.090095 0
M  V30 11 C 4.295917 1.283688 -2.291904 0
M  V30 12 C 3.180667 2.206930 -2.809747 0
M  V30 13 C 4.396544 2.737927 -2.101927 0
M  V30 14 C 1.447320 -0.120667 1.300950 0
M  V30 15 C 0.988650 -0.539471 2.488320 0
M  V30 16 C -0.165452 -1.181319 3.035436 0
M  V30 17 C -1.201223 -1.560578 2.360871 0
M  V30 18 N -2.332112 -2.194871 2.929008 0
M  V30 19 C -3.328777 -2.506156 1.962500 0
M  V30 20 C -4.563300 -3.121114 2.124051 0
M  V30 21 C -5.297667 -3.277438 0.979444 0
M  V30 22 C -4.863941 -2.864515 -0.243274 0
M  V30 23 C -3.634473 -2.264269 -0.331954 0
M  V30 24 C -2.802462 -2.053659 0.766434 0
M  V30 25 C -1.497338 -1.465813 0.964657 0
M  V30 26 N -0.879060 -1.008717 0.000647 0
M  V30 27 O -1.285210 -0.985077 -1.284541 0
M  V30 28 H 1.748651 -0.727199 5.744328 0
M  V30 29 H 3.768765 0.488826 4.238423 0
M  V30 30 H 4.475038 1.192264 2.063190 0
M  V30 31 H 2.828444 1.942774 -0.179819 0
M  V30 32 H 4.920594 0.848000 -3.089024 0
M  V30 33 H 3.053207 2.316756 -3.902842 0
M  V30 34 H 2.241545 2.239996 -2.225674 0
M  V30 35 H 4.252986 3.233531 -1.127685 0
M  V30 36 H 5.075355 3.309124 -2.769232 0
M  V30 37 H 0.972729 -0.190899 0.378244 0
M  V30 38 H -2.435356 -2.414975 3.941504 0
M  V30 39 H -4.905484 -3.447095 3.089921 0
M  V30 40 H -6.260699 -3.754581 1.090229 0
M  V30 41 H -5.510296 -3.028223 -1.095988 0
M  V30 42 H -3.358982 -1.964468 -1.330853 0
M  V30 43 H -0.773010 -1.331321 -2.070357 0
M  V30 END ATOM
M  V30 BEGIN BOND
M  V30 1 2 1 2
M  V30 2 1 2 3
M  V30 3 1 3 4
M  V30 4 2 4 5
M  V30 5 1 5 6
M  V30 6 2 6 7
M  V30 7 1 7 8
M  V30 8 1 8 9
M  V30 9 2 9 10
M  V30 10 1 9 11
M  V30 11 1 11 12
M  V30 12 1 12 13
M  V30 13 1 7 14
M  V30 14 2 14 15
M  V30 15 1 15 16
M  V30 16 2 16 17
M  V30 17 1 17 18
M  V30 18 1 18 19
M  V30 19 2 19 20
M  V30 20 1 20 21
M  V30 21 2 21 22
M  V30 22 1 22 23
M  V30 23 2 23 24
M  V30 24 1 24 25
M  V30 25 2 25 26
M  V30 26 1 26 27
M  V30 27 1 16 2
M  V30 28 1 25 17
M  V30 29 1 15 4
M  V30 30 1 24 19
M  V30 31 1 13 11
M  V30 32 1 3 28
M  V30 33 1 5 29
M  V30 34 1 6 30
M  V30 35 1 8 31
M  V30 36 1 11 32
M  V30 37 1 12 33
M  V30 38 1 12 34
M  V30 39 1 13 35
M  V30 40 1 13 36
M  V30 41 1 14 37
M  V30 42 1 18 38
M  V30 43 1 20 39
M  V30 44 1 21 40
M  V30 45 1 22 41
M  V30 46 1 23 42
M  V30 47 1 27 43
M  V30 END BOND
M  V30 END CTAB
M  END
>  <Dataset>  (570) 
ChEMBL_Kinases

>  <Ligand_Instance>  (570) 
nan

>  <PDB_ID>  (570) 
nan

>  <Standardized_SMILES>  (570) 
O=C1Nc2ccc(NC(=O)C3CC3)cc2/C1=C1/Nc2ccccc2/C1=N\O

>  <Name>  (570) 
nan

>  <Pocket>  (570) 
nan

>  <ATP_Site>  (570) 
nan

>  <Peripheral>  (570) 
nan

>  <Num_H_Atoms_ProtBoundConf>  (570) 
nan

>  <Num_Resolved_Atoms>  (570) 
nan

>  <Num_Not_Resolved_Atoms>  (570) 
nan

$$$$
CHEMBL1885748
     RDKit          3D

  0  0  0  0  0  0  0  0  0  0999 V3000
M  V30 BEGIN CTAB
M  V30 COUNTS 38 41 0 0 0
M  V30 BEGIN ATOM
M  V30 1 Cl -0.955796 -0.781612 4.782333 0
M  V30 2 C 0.087594 -1.440035 3.548225 0
M  V30 3 C -0.091706 -2.736469 3.056356 0
M  V30 4 C 0.746355 -3.231148 2.082080 0
M  V30 5 Cl 0.565747 -4.850263 1.430220 0
M  V30 6 C 1.772903 -2.468296 1.572272 0
M  V30 7 C 1.975498 -1.178156 2.040964 0
M  V30 8 C 3.095533 -0.311706 1.506973 0
M  V30 9 N 2.582687 0.527920 0.490596 0
M  V30 10 C 2.157177 1.396198 -0.534457 0
M  V30 11 N 2.838683 2.281997 -1.278177 0
M  V30 12 C 2.358036 3.088979 -2.213247 0
M  V30 13 N 1.046052 2.964963 -2.393504 0
M  V30 14 C 0.244643 2.126542 -1.726865 0
M  V30 15 C 0.802491 1.293053 -0.747676 0
M  V30 16 C -0.300122 0.493058 -0.251149 0
M  V30 17 C -1.399134 1.121347 0.326135 0
M  V30 18 C -2.530231 0.494306 0.811886 0
M  V30 19 C -2.536523 -0.859152 0.699417 0
M  V30 20 C -1.508179 -1.583074 0.147345 0
M  V30 21 C -0.424369 -0.873858 -0.308626 0
M  V30 22 O -1.882208 -2.915206 0.211416 0
M  V30 23 C -3.290430 -2.991705 0.484841 0
M  V30 24 O -3.536931 -1.748234 1.100627 0
M  V30 25 C 1.117554 -0.708636 3.019841 0
M  V30 26 H -0.893517 -3.344637 3.448395 0
M  V30 27 H 2.432246 -2.856122 0.806308 0
M  V30 28 H 3.553627 0.204210 2.394146 0
M  V30 29 H 3.856369 -1.084972 1.160957 0
M  V30 30 H 3.607265 0.838575 0.414314 0
M  V30 31 H 3.036838 3.747812 -2.726235 0
M  V30 32 H -0.771311 2.260668 -2.100792 0
M  V30 33 H -1.360768 2.214687 0.400891 0
M  V30 34 H -3.315150 1.099739 1.237750 0
M  V30 35 H 0.420049 -1.413861 -0.758586 0
M  V30 36 H -3.754684 -3.030227 -0.536354 0
M  V30 37 H -3.548796 -3.860225 1.102338 0
M  V30 38 H 1.277230 0.292406 3.381222 0
M  V30 END ATOM
M  V30 BEGIN BOND
M  V30 1 1 1 2
M  V30 2 2 2 3
M  V30 3 1 3 4
M  V30 4 1 4 5
M  V30 5 2 4 6
M  V30 6 1 6 7
M  V30 7 1 7 8
M  V30 8 1 8 9
M  V30 9 1 9 10
M  V30 10 2 10 11
M  V30 11 1 11 12
M  V30 12 2 12 13
M  V30 13 1 13 14
M  V30 14 2 14 15
M  V30 15 1 15 16
M  V30 16 2 16 17
M  V30 17 1 17 18
M  V30 18 2 18 19
M  V30 19 1 19 20
M  V30 20 2 20 21
M  V30 21 1 20 22
M  V30 22 1 22 23
M  V30 23 1 23 24
M  V30 24 2 7 25
M  V30 25 1 25 2
M  V30 26 1 15 10
M  V30 27 1 21 16
M  V30 28 1 24 19
M  V30 29 1 3 26
M  V30 30 1 6 27
M  V30 31 1 8 28
M  V30 32 1 8 29
M  V30 33 1 9 30
M  V30 34 1 12 31
M  V30 35 1 14 32
M  V30 36 1 17 33
M  V30 37 1 18 34
M  V30 38 1 21 35
M  V30 39 1 23 36
M  V30 40 1 23 37
M  V30 41 1 25 38
M  V30 END BOND
M  V30 END CTAB
M  END
>  <Dataset>  (571) 
ChEMBL_Kinases

>  <Ligand_Instance>  (571) 
nan

>  <PDB_ID>  (571) 
nan

>  <Standardized_SMILES>  (571) 
Clc1cc(Cl)cc(CNc2ncncc2-c2ccc3c(c2)OCO3)c1

>  <Name>  (571) 
nan

>  <Pocket>  (571) 
nan

>  <ATP_Site>  (571) 
nan

>  <Peripheral>  (571) 
nan

>  <Num_H_Atoms_ProtBoundConf>  (571) 
nan

>  <Num_Resolved_Atoms>  (571) 
nan

>  <Num_Not_Resolved_Atoms>  (571) 
nan

$$$$
CHEMBL1885536
     RDKit          3D

  0  0  0  0  0  0  0  0  0  0999 V3000
M  V30 BEGIN CTAB
M  V30 COUNTS 38 42 0 0 0
M  V30 BEGIN ATOM
M  V30 1 C -3.193458 0.110031 -1.486667 0
M  V30 2 C -1.952145 -0.254417 -1.945821 0
M  V30 3 C -0.919482 -0.396248 -1.076047 0
M  V30 4 C 0.407026 -0.780928 -1.531363 0
M  V30 5 C 1.487247 -0.938405 -0.690882 0
M  V30 6 C 2.758395 -1.301478 -1.083376 0
M  V30 7 C 2.989473 -1.530757 -2.423124 0
M  V30 8 C 1.934430 -1.387105 -3.322659 0
M  V30 9 C 0.688547 -1.020438 -2.854280 0
M  V30 10 O 2.466181 -1.680895 -4.588949 0
M  V30 11 C 3.869858 -1.751795 -4.526792 0
M  V30 12 O 4.132543 -1.902487 -3.127267 0
M  V30 13 N -1.177822 -0.166802 0.211116 0
M  V30 14 C -2.361435 0.190642 0.726130 0
M  V30 15 N -2.652662 0.437384 2.087927 0
M  V30 16 C -1.783571 0.366580 3.202917 0
M  V30 17 C -2.256340 0.647781 4.487284 0
M  V30 18 C -1.466513 0.597037 5.607441 0
M  V30 19 C -0.137375 0.255751 5.498483 0
M  V30 20 C 0.401012 -0.035248 4.264100 0
M  V30 21 C -0.447688 0.035579 3.187165 0
M  V30 22 O 1.745498 -0.348050 4.406280 0
M  V30 23 C 1.936293 -0.662880 5.769776 0
M  V30 24 O 0.933020 0.107923 6.400627 0
M  V30 25 N -3.345408 0.316171 -0.177239 0
M  V30 26 H -4.041406 0.230703 -2.167348 0
M  V30 27 H -1.881938 -0.408185 -3.005650 0
M  V30 28 H 1.373399 -0.773647 0.370171 0
M  V30 29 H 3.567736 -1.408840 -0.370174 0
M  V30 30 H -0.041118 -0.939841 -3.622058 0
M  V30 31 H 4.251872 -2.666174 -5.049219 0
M  V30 32 H 4.392665 -0.860626 -4.881002 0
M  V30 33 H -3.651894 0.713985 2.324467 0
M  V30 34 H -3.302775 0.924971 4.640692 0
M  V30 35 H -1.880459 0.822829 6.572229 0
M  V30 36 H -0.008104 -0.194956 2.229894 0
M  V30 37 H 2.948759 -0.423435 6.136084 0
M  V30 38 H 1.692355 -1.744863 5.889314 0
M  V30 END ATOM
M  V30 BEGIN BOND
M  V30 1 2 1 2
M  V30 2 1 2 3
M  V30 3 1 3 4
M  V30 4 2 4 5
M  V30 5 1 5 6
M  V30 6 2 6 7
M  V30 7 1 7 8
M  V30 8 2 8 9
M  V30 9 1 8 10
M  V30 10 1 10 11
M  V30 11 1 11 12
M  V30 12 2 3 13
M  V30 13 1 13 14
M  V30 14 1 14 15
M  V30 15 1 15 16
M  V30 16 2 16 17
M  V30 17 1 17 18
M  V30 18 2 18 19
M  V30 19 1 19 20
M  V30 20 2 20 21
M  V30 21 1 20 22
M  V30 22 1 22 23
M  V30 23 1 23 24
M  V30 24 2 14 25
M  V30 25 1 25 1
M  V30 26 1 9 4
M  V30 27 1 21 16
M  V30 28 1 12 7
M  V30 29 1 24 19
M  V30 30 1 1 26
M  V30 31 1 2 27
M  V30 32 1 5 28
M  V30 33 1 6 29
M  V30 34 1 9 30
M  V30 35 1 11 31
M  V30 36 1 11 32
M  V30 37 1 15 33
M  V30 38 1 17 34
M  V30 39 1 18 35
M  V30 40 1 21 36
M  V30 41 1 23 37
M  V30 42 1 23 38
M  V30 END BOND
M  V30 END CTAB
M  END
>  <Dataset>  (572) 
ChEMBL_Kinases

>  <Ligand_Instance>  (572) 
nan

>  <PDB_ID>  (572) 
nan

>  <Standardized_SMILES>  (572) 
c1cc(-c2ccc3c(c2)OCO3)nc(Nc2ccc3c(c2)OCO3)n1

>  <Name>  (572) 
nan

>  <Pocket>  (572) 
nan

>  <ATP_Site>  (572) 
nan

>  <Peripheral>  (572) 
nan

>  <Num_H_Atoms_ProtBoundConf>  (572) 
nan

>  <Num_Resolved_Atoms>  (572) 
nan

>  <Num_Not_Resolved_Atoms>  (572) 
nan

$$$$
CHEMBL5089164
     RDKit          3D

  0  0  0  0  0  0  0  0  0  0999 V3000
M  V30 BEGIN CTAB
M  V30 COUNTS 54 57 0 0 0
M  V30 BEGIN ATOM
M  V30 1 C 5.223700 -3.838647 5.201294 0
M  V30 2 N 4.456871 -2.906985 4.378897 0
M  V30 3 C 4.997455 -2.308211 3.295881 0
M  V30 4 C 4.209233 -1.431009 2.564231 0
M  V30 5 C 2.884854 -1.177268 2.945765 0
M  V30 6 C 2.095393 -0.289294 2.214305 0
M  V30 7 C 0.801382 -0.084121 2.657862 0
M  V30 8 N -0.018394 0.821755 1.934727 0
M  V30 9 C 0.273738 1.455148 0.682550 0
M  V30 10 N 1.077714 2.468946 0.350972 0
M  V30 11 C 1.120615 2.850233 -0.933043 0
M  V30 12 C 0.389664 2.270069 -1.952995 0
M  V30 13 C 0.489562 2.733989 -3.337045 0
M  V30 14 F -0.704744 3.172568 -3.859101 0
M  V30 15 F 1.098704 1.816251 -4.186663 0
M  V30 16 F 1.341607 3.847768 -3.345410 0
M  V30 17 C -0.438577 1.218824 -1.583500 0
M  V30 18 N -1.262438 0.553306 -2.571348 0
M  V30 19 C -2.082516 -0.543017 -2.032758 0 CFG=1
M  V30 20 C -2.943033 -0.058674 -0.899306 0
M  V30 21 C -4.312460 -0.667861 -0.860721 0
M  V30 22 C -4.153275 -2.127688 -1.243074 0 CFG=1
M  V30 23 N -5.404494 -2.783918 -0.934289 0
M  V30 24 C -3.831549 -2.189637 -2.697707 0
M  V30 25 C -2.849461 -1.165989 -3.158626 0
M  V30 26 N -0.448488 0.871455 -0.286587 0
M  V30 27 C 0.253072 -0.694288 3.759367 0
M  V30 28 C 1.042538 -1.575658 4.481555 0
M  V30 29 C 2.358476 -1.817722 4.076345 0
M  V30 30 C 3.172276 -2.692865 4.790877 0
M  V30 31 O 2.656431 -3.233794 5.783112 0
M  V30 32 H 5.118655 -4.887634 4.848872 0
M  V30 33 H 4.858796 -3.808329 6.255788 0
M  V30 34 H 6.269449 -3.468126 5.207214 0
M  V30 35 H 6.042106 -2.522948 3.016502 0
M  V30 36 H 4.646625 -0.943249 1.680387 0
M  V30 37 H 2.523893 0.201666 1.334826 0
M  V30 38 H -0.977440 1.124759 2.279167 0
M  V30 39 H 1.804624 3.688164 -1.118441 0
M  V30 40 H -1.206976 0.901930 -3.551813 0
M  V30 41 H -1.359351 -1.291847 -1.661428 0
M  V30 42 H -2.959323 1.046640 -0.881007 0
M  V30 43 H -2.448113 -0.374579 0.067542 0
M  V30 44 H -5.004763 -0.213120 -1.595744 0
M  V30 45 H -4.730746 -0.598261 0.177793 0
M  V30 46 H -3.360773 -2.631330 -0.620083 0
M  V30 47 H -5.627831 -2.509102 0.070909 0
M  V30 48 H -5.309399 -3.825986 -0.891838 0
M  V30 49 H -4.791524 -1.976927 -3.254603 0
M  V30 50 H -3.567487 -3.229957 -2.960335 0
M  V30 51 H -3.276909 -0.416050 -3.860699 0
M  V30 52 H -2.090470 -1.715299 -3.791364 0
M  V30 53 H -0.786329 -0.485333 4.053235 0
M  V30 54 H 0.630391 -2.082203 5.368251 0
M  V30 END ATOM
M  V30 BEGIN BOND
M  V30 1 1 1 2
M  V30 2 1 2 3
M  V30 3 2 3 4
M  V30 4 1 4 5
M  V30 5 2 5 6
M  V30 6 1 6 7
M  V30 7 1 7 8
M  V30 8 1 8 9
M  V30 9 2 9 10
M  V30 10 1 10 11
M  V30 11 2 11 12
M  V30 12 1 12 13
M  V30 13 1 13 14
M  V30 14 1 13 15
M  V30 15 1 13 16
M  V30 16 1 12 17
M  V30 17 1 17 18
M  V30 18 1 18 19
M  V30 19 1 19 20
M  V30 20 1 20 21
M  V30 21 1 21 22
M  V30 22 1 22 23
M  V30 23 1 22 24
M  V30 24 1 24 25
M  V30 25 2 17 26
M  V30 26 2 7 27
M  V30 27 1 27 28
M  V30 28 2 28 29
M  V30 29 1 29 30
M  V30 30 2 30 31
M  V30 31 1 30 2
M  V30 32 1 29 5
M  V30 33 1 26 9
M  V30 34 1 25 19
M  V30 35 1 1 32
M  V30 36 1 1 33
M  V30 37 1 1 34
M  V30 38 1 3 35
M  V30 39 1 4 36
M  V30 40 1 6 37
M  V30 41 1 8 38
M  V30 42 1 11 39
M  V30 43 1 18 40
M  V30 44 1 19 41 CFG=1
M  V30 45 1 20 42
M  V30 46 1 20 43
M  V30 47 1 21 44
M  V30 48 1 21 45
M  V30 49 1 22 46 CFG=1
M  V30 50 1 23 47
M  V30 51 1 23 48
M  V30 52 1 24 49
M  V30 53 1 24 50
M  V30 54 1 25 51
M  V30 55 1 25 52
M  V30 56 1 27 53
M  V30 57 1 28 54
M  V30 END BOND
M  V30 END CTAB
M  END
>  <Dataset>  (573) 
ChEMBL_Kinases

>  <Ligand_Instance>  (573) 
nan

>  <PDB_ID>  (573) 
nan

>  <Standardized_SMILES>  (573) 
Cn1ccc2cc(Nc3ncc(C(F)(F)F)c(N[C@H]4CC[C@@H](N)CC4)n3)ccc2c1=O

>  <Name>  (573) 
nan

>  <Pocket>  (573) 
nan

>  <ATP_Site>  (573) 
nan

>  <Peripheral>  (573) 
nan

>  <Num_H_Atoms_ProtBoundConf>  (573) 
nan

>  <Num_Resolved_Atoms>  (573) 
nan

>  <Num_Not_Resolved_Atoms>  (573) 
nan

$$$$
CHEMBL5081210
     RDKit          3D

  0  0  0  0  0  0  0  0  0  0999 V3000
M  V30 BEGIN CTAB
M  V30 COUNTS 60 64 0 0 0
M  V30 BEGIN ATOM
M  V30 1 C 0.566810 -0.366952 6.280069 0
M  V30 2 O 1.557292 -0.885320 5.447009 0
M  V30 3 C 1.911362 -0.458090 4.198087 0
M  V30 4 C 2.945650 -1.139164 3.544786 0
M  V30 5 C 3.349546 -0.746221 2.267170 0
M  V30 6 C 2.736058 0.316072 1.632760 0
M  V30 7 C 1.700750 1.016419 2.257418 0
M  V30 8 C 1.099346 2.127997 1.544578 0
M  V30 9 N 1.852228 3.215787 1.481780 0
M  V30 10 C 1.138579 4.147434 0.793720 0
M  V30 11 S 1.099414 5.893120 0.110972 0
M  V30 12 C -0.535436 5.725371 -0.588631 0
M  V30 13 C -0.903850 4.435681 -0.269875 0
M  V30 14 N -0.054459 3.669563 0.418472 0
M  V30 15 C -0.078370 2.409615 0.886890 0
M  V30 16 C -1.102438 1.375723 0.799815 0
M  V30 17 C -1.757323 0.857175 1.895543 0
M  V30 18 C -2.724672 -0.119643 1.820702 0
M  V30 19 N -3.077066 -0.620293 0.625730 0
M  V30 20 C -2.453087 -0.130962 -0.459043 0
M  V30 21 N -2.842557 -0.671647 -1.740730 0
M  V30 22 C -3.860584 -1.725130 -1.748025 0
M  V30 23 C -3.388934 -2.973149 -1.051483 0
M  V30 24 C -2.182205 -3.577046 -1.694592 0
M  V30 25 N -1.738183 -4.760155 -0.994133 0
M  V30 26 S -0.353096 -5.360611 -1.837298 0
M  V30 27 O 0.148682 -6.634206 -1.173652 0
M  V30 28 O -0.748609 -5.708620 -3.241014 0
M  V30 29 C 0.960259 -4.211499 -1.856107 0
M  V30 30 C 0.941735 -3.328397 -2.938431 0
M  V30 31 C 1.888130 -2.339965 -3.152884 0
M  V30 32 C 2.908984 -2.228048 -2.235263 0
M  V30 33 C 2.941638 -3.084556 -1.170276 0
M  V30 34 F 3.934446 -2.991149 -0.261157 0
M  V30 35 C 2.003756 -4.058625 -0.964286 0
M  V30 36 N -1.511206 0.820537 -0.379862 0
M  V30 37 C 1.344565 0.589978 3.508372 0
M  V30 38 H 0.229380 0.627274 5.965133 0
M  V30 39 H 1.008524 -0.319354 7.305069 0
M  V30 40 H -0.263347 -1.113067 6.298328 0
M  V30 41 H 3.422973 -1.978171 4.058754 0
M  V30 42 H 4.152056 -1.339269 1.862354 0
M  V30 43 H 3.128673 0.521383 0.665882 0
M  V30 44 H -0.944611 6.544706 -1.091235 0
M  V30 45 H -1.888899 4.202365 -0.640859 0
M  V30 46 H -1.531350 1.208870 2.873144 0
M  V30 47 H -3.241043 -0.528612 2.686493 0
M  V30 48 H -2.420292 -0.330902 -2.631983 0
M  V30 49 H -4.093423 -1.968318 -2.798679 0
M  V30 50 H -4.729559 -1.318063 -1.199152 0
M  V30 51 H -3.302103 -2.886511 0.038292 0
M  V30 52 H -4.222557 -3.723254 -1.207313 0
M  V30 53 H -1.325134 -2.880246 -1.698790 0
M  V30 54 H -2.435662 -3.873024 -2.744430 0
M  V30 55 H -1.459958 -4.505598 -0.006212 0
M  V30 56 H 0.157345 -3.358077 -3.711556 0
M  V30 57 H 1.847317 -1.678143 -3.990761 0
M  V30 58 H 3.645185 -1.464471 -2.395739 0
M  V30 59 H 1.955766 -4.777732 -0.148411 0
M  V30 60 H 0.550241 1.112225 4.019409 0
M  V30 END ATOM
M  V30 BEGIN BOND
M  V30 1 1 1 2
M  V30 2 1 2 3
M  V30 3 2 3 4
M  V30 4 1 4 5
M  V30 5 2 5 6
M  V30 6 1 6 7
M  V30 7 1 7 8
M  V30 8 1 8 9
M  V30 9 2 9 10
M  V30 10 1 10 11
M  V30 11 1 11 12
M  V30 12 2 12 13
M  V30 13 1 13 14
M  V30 14 1 14 15
M  V30 15 1 15 16
M  V30 16 2 16 17
M  V30 17 1 17 18
M  V30 18 2 18 19
M  V30 19 1 19 20
M  V30 20 1 20 21
M  V30 21 1 21 22
M  V30 22 1 22 23
M  V30 23 1 23 24
M  V30 24 1 24 25
M  V30 25 1 25 26
M  V30 26 2 26 27
M  V30 27 2 26 28
M  V30 28 1 26 29
M  V30 29 2 29 30
M  V30 30 1 30 31
M  V30 31 2 31 32
M  V30 32 1 32 33
M  V30 33 1 33 34
M  V30 34 2 33 35
M  V30 35 2 20 36
M  V30 36 2 7 37
M  V30 37 1 37 3
M  V30 38 2 15 8
M  V30 39 1 36 16
M  V30 40 1 14 10
M  V30 41 1 35 29
M  V30 42 1 1 38
M  V30 43 1 1 39
M  V30 44 1 1 40
M  V30 45 1 4 41
M  V30 46 1 5 42
M  V30 47 1 6 43
M  V30 48 1 12 44
M  V30 49 1 13 45
M  V30 50 1 17 46
M  V30 51 1 18 47
M  V30 52 1 21 48
M  V30 53 1 22 49
M  V30 54 1 22 50
M  V30 55 1 23 51
M  V30 56 1 23 52
M  V30 57 1 24 53
M  V30 58 1 24 54
M  V30 59 1 25 55
M  V30 60 1 30 56
M  V30 61 1 31 57
M  V30 62 1 32 58
M  V30 63 1 35 59
M  V30 64 1 37 60
M  V30 END BOND
M  V30 END CTAB
M  END
>  <Dataset>  (574) 
ChEMBL_Kinases

>  <Ligand_Instance>  (574) 
nan

>  <PDB_ID>  (574) 
nan

>  <Standardized_SMILES>  (574) 
COc1cccc(-c2nc3sccn3c2-c2ccnc(NCCCNS(=O)(=O)c3cccc(F)c3)n2)c1

>  <Name>  (574) 
nan

>  <Pocket>  (574) 
nan

>  <ATP_Site>  (574) 
nan

>  <Peripheral>  (574) 
nan

>  <Num_H_Atoms_ProtBoundConf>  (574) 
nan

>  <Num_Resolved_Atoms>  (574) 
nan

>  <Num_Not_Resolved_Atoms>  (574) 
nan

$$$$
CHEMBL1904905
     RDKit          3D

  0  0  0  0  0  0  0  0  0  0999 V3000
M  V30 BEGIN CTAB
M  V30 COUNTS 41 44 0 0 0
M  V30 BEGIN ATOM
M  V30 1 Cl -1.789380 -5.898273 1.449028 0
M  V30 2 C -0.289788 -5.045601 1.132192 0
M  V30 3 C 0.727628 -5.617169 0.397875 0
M  V30 4 C 1.875015 -4.851168 0.206223 0
M  V30 5 C 1.990678 -3.562731 0.733408 0
M  V30 6 C 3.316762 -2.956145 0.389822 0
M  V30 7 N 3.306375 -2.260698 -0.863217 0
M  V30 8 C 2.573002 -1.118567 -1.280514 0
M  V30 9 N 2.715861 -0.669756 -2.548517 0
M  V30 10 C 2.036563 0.409322 -2.958346 0
M  V30 11 C 1.185470 1.081627 -2.109393 0
M  V30 12 C 1.029818 0.637534 -0.817381 0
M  V30 13 C 0.130615 1.368842 0.058754 0
M  V30 14 C -0.573811 2.475644 -0.352396 0
M  V30 15 C -1.427302 3.182365 0.462891 0
M  V30 16 C -1.625039 2.807749 1.766697 0
M  V30 17 C -0.948527 1.712694 2.228523 0
M  V30 18 C -0.103484 1.035076 1.375436 0
M  V30 19 O -1.113594 1.283903 3.557746 0
M  V30 20 C -1.755213 2.134592 4.480719 0
M  V30 21 C -2.946423 2.733933 3.761363 0
M  V30 22 O -2.466326 3.466966 2.648204 0
M  V30 23 N 1.734855 -0.446747 -0.464032 0
M  V30 24 C 0.951177 -3.028539 1.461421 0
M  V30 25 C -0.187169 -3.776939 1.656658 0
M  V30 26 Cl -1.418906 -2.958299 2.602440 0
M  V30 27 H 0.604878 -6.609277 0.007819 0
M  V30 28 H 2.634645 -5.371357 -0.384109 0
M  V30 29 H 3.506796 -2.238030 1.246748 0
M  V30 30 H 4.128573 -3.692323 0.468762 0
M  V30 31 H 3.956458 -2.686166 -1.573380 0
M  V30 32 H 2.232289 0.676548 -3.999184 0
M  V30 33 H 0.722481 1.912057 -2.579300 0
M  V30 34 H -0.507657 2.867300 -1.340661 0
M  V30 35 H -1.977389 4.051823 0.130883 0
M  V30 36 H 0.400810 0.181079 1.803827 0
M  V30 37 H -1.074336 2.937508 4.836561 0
M  V30 38 H -2.131229 1.525196 5.348242 0
M  V30 39 H -3.550491 3.382283 4.439669 0
M  V30 40 H -3.549452 1.864423 3.389916 0
M  V30 41 H 1.227602 -2.036727 1.783683 0
M  V30 END ATOM
M  V30 BEGIN BOND
M  V30 1 1 1 2
M  V30 2 2 2 3
M  V30 3 1 3 4
M  V30 4 2 4 5
M  V30 5 1 5 6
M  V30 6 1 6 7
M  V30 7 1 7 8
M  V30 8 2 8 9
M  V30 9 1 9 10
M  V30 10 2 10 11
M  V30 11 1 11 12
M  V30 12 1 12 13
M  V30 13 2 13 14
M  V30 14 1 14 15
M  V30 15 2 15 16
M  V30 16 1 16 17
M  V30 17 2 17 18
M  V30 18 1 17 19
M  V30 19 1 19 20
M  V30 20 1 20 21
M  V30 21 1 21 22
M  V30 22 2 12 23
M  V30 23 1 5 24
M  V30 24 2 24 25
M  V30 25 1 25 26
M  V30 26 1 25 2
M  V30 27 1 23 8
M  V30 28 1 18 13
M  V30 29 1 22 16
M  V30 30 1 3 27
M  V30 31 1 4 28
M  V30 32 1 6 29
M  V30 33 1 6 30
M  V30 34 1 7 31
M  V30 35 1 10 32
M  V30 36 1 11 33
M  V30 37 1 14 34
M  V30 38 1 15 35
M  V30 39 1 18 36
M  V30 40 1 20 37
M  V30 41 1 20 38
M  V30 42 1 21 39
M  V30 43 1 21 40
M  V30 44 1 24 41
M  V30 END BOND
M  V30 END CTAB
M  END
>  <Dataset>  (575) 
ChEMBL_Kinases

>  <Ligand_Instance>  (575) 
nan

>  <PDB_ID>  (575) 
nan

>  <Standardized_SMILES>  (575) 
Clc1ccc(CNc2nccc(-c3ccc4c(c3)OCCO4)n2)cc1Cl

>  <Name>  (575) 
nan

>  <Pocket>  (575) 
nan

>  <ATP_Site>  (575) 
nan

>  <Peripheral>  (575) 
nan

>  <Num_H_Atoms_ProtBoundConf>  (575) 
nan

>  <Num_Resolved_Atoms>  (575) 
nan

>  <Num_Not_Resolved_Atoms>  (575) 
nan

$$$$
CHEMBL4283751
     RDKit          3D

  0  0  0  0  0  0  0  0  0  0999 V3000
M  V30 BEGIN CTAB
M  V30 COUNTS 27 29 0 0 0
M  V30 BEGIN ATOM
M  V30 1 N 1.915825 -2.575829 4.793170 0
M  V30 2 C 2.529683 -1.898270 3.936255 0
M  V30 3 N 3.792207 -1.761263 3.284132 0
M  V30 4 C 3.793760 -1.124593 2.035930 0
M  V30 5 O 4.893032 -0.967797 1.397042 0
M  V30 6 C 2.456819 -0.686848 1.583734 0
M  V30 7 C 2.081991 -0.462550 0.334521 0
M  V30 8 C 0.706551 -0.033757 0.110199 0
M  V30 9 C 0.090408 0.866687 0.942175 0
M  V30 10 C -1.227515 1.277440 0.742717 0
M  V30 11 C -1.973155 0.790931 -0.308417 0
M  V30 12 C -1.363629 -0.114683 -1.150481 0
M  V30 13 C -0.055907 -0.524950 -0.956918 0
M  V30 14 C -2.362437 -0.501541 -2.210758 0
M  V30 15 C -3.653302 -0.256723 -1.419163 0
M  V30 16 O -3.284018 0.982110 -0.790387 0
M  V30 17 S 1.554401 -0.577922 3.153103 0
M  V30 18 H 2.193522 -3.367105 5.376666 0
M  V30 19 H 4.611880 -2.165774 3.823134 0
M  V30 20 H 2.829600 -0.614131 -0.450910 0
M  V30 21 H 0.574868 1.311510 1.788221 0
M  V30 22 H -1.699888 1.994716 1.414221 0
M  V30 23 H 0.396473 -1.239258 -1.636882 0
M  V30 24 H -2.403449 0.226631 -3.039862 0
M  V30 25 H -2.259149 -1.540887 -2.500823 0
M  V30 26 H -4.518085 -0.118470 -2.082447 0
M  V30 27 H -3.774828 -1.062037 -0.689940 0
M  V30 END ATOM
M  V30 BEGIN BOND
M  V30 1 2 1 2 CFG=2
M  V30 2 1 2 3
M  V30 3 1 3 4
M  V30 4 2 4 5
M  V30 5 1 4 6
M  V30 6 2 6 7
M  V30 7 1 7 8
M  V30 8 2 8 9
M  V30 9 1 9 10
M  V30 10 2 10 11
M  V30 11 1 11 12
M  V30 12 2 12 13
M  V30 13 1 12 14
M  V30 14 1 14 15
M  V30 15 1 15 16
M  V30 16 1 6 17
M  V30 17 1 17 2
M  V30 18 1 13 8
M  V30 19 1 16 11
M  V30 20 1 1 18
M  V30 21 1 3 19
M  V30 22 1 7 20
M  V30 23 1 9 21
M  V30 24 1 10 22
M  V30 25 1 13 23
M  V30 26 1 14 24
M  V30 27 1 14 25
M  V30 28 1 15 26
M  V30 29 1 15 27
M  V30 END BOND
M  V30 END CTAB
M  END
>  <Dataset>  (576) 
ChEMBL_Kinases

>  <Ligand_Instance>  (576) 
nan

>  <PDB_ID>  (576) 
nan

>  <Standardized_SMILES>  (576) 
N=C1NC(=O)/C(=C/c2ccc3c(c2)CCO3)S1

>  <Name>  (576) 
nan

>  <Pocket>  (576) 
nan

>  <ATP_Site>  (576) 
nan

>  <Peripheral>  (576) 
nan

>  <Num_H_Atoms_ProtBoundConf>  (576) 
nan

>  <Num_Resolved_Atoms>  (576) 
nan

>  <Num_Not_Resolved_Atoms>  (576) 
nan

$$$$
CHEMBL226403
     RDKit          3D

  0  0  0  0  0  0  0  0  0  0999 V3000
M  V30 BEGIN CTAB
M  V30 COUNTS 42 46 0 0 0
M  V30 BEGIN ATOM
M  V30 1 O 2.757572 -6.318073 -2.174738 0
M  V30 2 C 2.954054 -5.788225 -1.028720 0
M  V30 3 N 3.799088 -6.432089 -0.080225 0
M  V30 4 C 3.665292 -6.120537 1.341754 0
M  V30 5 C 3.456003 -4.652405 1.602533 0
M  V30 6 C 2.587588 -4.036346 0.565536 0
M  V30 7 N 1.915012 -2.879834 0.687725 0
M  V30 8 C 1.235963 -2.638139 -0.449934 0
M  V30 9 C 0.362484 -1.483903 -0.764728 0
M  V30 10 C -0.284374 -1.356629 -1.988583 0
M  V30 11 C -1.069321 -0.233900 -2.155003 0
M  V30 12 N -1.232606 0.713293 -1.217715 0
M  V30 13 C -0.612894 0.617288 -0.009913 0
M  V30 14 C -0.799297 1.654783 1.000439 0
M  V30 15 C -0.216869 1.650110 2.252059 0
M  V30 16 N -0.422643 2.634014 3.147586 0
M  V30 17 C -1.210811 3.695347 2.890657 0
M  V30 18 C -1.420367 4.698990 3.804885 0
M  V30 19 C -2.244630 5.762969 3.473582 0
M  V30 20 C -2.841523 5.798189 2.232326 0
M  V30 21 C -2.637733 4.795945 1.307549 0
M  V30 22 C -1.807418 3.728111 1.646672 0
M  V30 23 C -1.612124 2.732616 0.712723 0
M  V30 24 C 0.162299 -0.480929 0.168819 0
M  V30 25 C 1.462118 -3.658623 -1.351195 0
M  V30 26 C 2.309718 -4.521876 -0.695935 0
M  V30 27 H 4.487783 -7.114838 -0.492349 0
M  V30 28 H 4.567397 -6.521983 1.814632 0
M  V30 29 H 2.781902 -6.676421 1.704890 0
M  V30 30 H 4.474725 -4.186549 1.613454 0
M  V30 31 H 3.027214 -4.547229 2.618228 0
M  V30 32 H 1.874432 -2.210276 1.511919 0
M  V30 33 H -0.142678 -2.126060 -2.730410 0
M  V30 34 H -1.587035 -0.097226 -3.087095 0
M  V30 35 H 0.417045 0.833400 2.508969 0
M  V30 36 H -0.938664 4.642035 4.767743 0
M  V30 37 H -2.436515 6.574318 4.164095 0
M  V30 38 H -3.507631 6.599254 1.884552 0
M  V30 39 H -3.091586 4.801910 0.335398 0
M  V30 40 H -2.082840 2.779777 -0.239733 0
M  V30 41 H 0.675018 -0.613563 1.095633 0
M  V30 42 H 1.091744 -3.809241 -2.356368 0
M  V30 END ATOM
M  V30 BEGIN BOND
M  V30 1 2 1 2
M  V30 2 1 2 3
M  V30 3 1 3 4
M  V30 4 1 4 5
M  V30 5 1 5 6
M  V30 6 1 6 7
M  V30 7 1 7 8
M  V30 8 1 8 9
M  V30 9 2 9 10
M  V30 10 1 10 11
M  V30 11 2 11 12
M  V30 12 1 12 13
M  V30 13 1 13 14
M  V30 14 2 14 15
M  V30 15 1 15 16
M  V30 16 2 16 17
M  V30 17 1 17 18
M  V30 18 2 18 19
M  V30 19 1 19 20
M  V30 20 2 20 21
M  V30 21 1 21 22
M  V30 22 2 22 23
M  V30 23 2 13 24
M  V30 24 2 8 25
M  V30 25 1 25 26
M  V30 26 1 26 2
M  V30 27 2 26 6
M  V30 28 1 24 9
M  V30 29 1 23 14
M  V30 30 1 22 17
M  V30 31 1 3 27
M  V30 32 1 4 28
M  V30 33 1 4 29
M  V30 34 1 5 30
M  V30 35 1 5 31
M  V30 36 1 7 32
M  V30 37 1 10 33
M  V30 38 1 11 34
M  V30 39 1 15 35
M  V30 40 1 18 36
M  V30 41 1 19 37
M  V30 42 1 20 38
M  V30 43 1 21 39
M  V30 44 1 23 40
M  V30 45 1 24 41
M  V30 46 1 25 42
M  V30 END BOND
M  V30 END CTAB
M  END
>  <Dataset>  (577) 
ChEMBL_Kinases

>  <Ligand_Instance>  (577) 
nan

>  <PDB_ID>  (577) 
nan

>  <Standardized_SMILES>  (577) 
O=C1NCCc2[nH]c(-c3ccnc(-c4cnc5ccccc5c4)c3)cc21

>  <Name>  (577) 
nan

>  <Pocket>  (577) 
nan

>  <ATP_Site>  (577) 
nan

>  <Peripheral>  (577) 
nan

>  <Num_H_Atoms_ProtBoundConf>  (577) 
nan

>  <Num_Resolved_Atoms>  (577) 
nan

>  <Num_Not_Resolved_Atoms>  (577) 
nan

$$$$
CHEMBL3921246
     RDKit          3D

  0  0  0  0  0  0  0  0  0  0999 V3000
M  V30 BEGIN CTAB
M  V30 COUNTS 54 57 0 0 0
M  V30 BEGIN ATOM
M  V30 1 C 0.972157 -1.331851 5.502995 0
M  V30 2 C 0.035720 -2.469428 5.138741 0
M  V30 3 C 0.219330 -2.735239 3.695347 0
M  V30 4 C -0.548924 -2.128065 2.727081 0
M  V30 5 C -0.363407 -2.368924 1.385807 0
M  V30 6 C 0.613558 -3.239176 0.974425 0
M  V30 7 N 1.015094 -3.649868 -0.326206 0
M  V30 8 C 0.913544 -2.765927 -1.258438 0
M  V30 9 S 0.378280 -1.040209 -1.434827 0
M  V30 10 C 1.592556 -0.672195 -2.740618 0
M  V30 11 C 2.242675 0.445455 -3.040329 0
M  V30 12 C 1.945046 1.608409 -2.182344 0
M  V30 13 C 2.890431 2.477357 -1.626197 0
M  V30 14 C 2.441573 3.522089 -0.852796 0
M  V30 15 N 1.145795 3.772286 -0.589746 0
M  V30 16 C 0.185629 2.973857 -1.096096 0
M  V30 17 N -1.227062 3.107361 -0.897073 0
M  V30 18 C -2.015149 2.301336 0.005583 0
M  V30 19 C -2.286965 2.399528 1.352429 0
M  V30 20 C -3.095640 1.452678 1.900121 0
M  V30 21 C -3.633092 0.426368 1.158074 0
M  V30 22 C -4.486576 -0.554246 1.789658 0
M  V30 23 O -4.708507 -0.437260 3.024535 0
M  V30 24 O -5.059980 -1.595954 1.108680 0
M  V30 25 C -3.332084 0.366807 -0.195166 0
M  V30 26 N -2.529359 1.303064 -0.749355 0
M  V30 27 C 0.627930 1.919329 -1.875519 0
M  V30 28 C 1.683682 -1.977069 -3.413411 0
M  V30 29 O 2.071982 -2.022879 -4.632389 0
M  V30 30 N 1.313822 -3.093834 -2.599424 0
M  V30 31 C 1.365083 -4.455947 -3.157449 0
M  V30 32 C 1.410607 -3.872345 1.934472 0
M  V30 33 C 1.209990 -3.617248 3.296947 0
M  V30 34 H 0.388753 -0.394632 5.438114 0
M  V30 35 H 1.417277 -1.514507 6.513382 0
M  V30 36 H 1.832688 -1.320315 4.800563 0
M  V30 37 H 0.277967 -3.348293 5.761005 0
M  V30 38 H -1.033333 -2.226246 5.288485 0
M  V30 39 H -1.315678 -1.446600 2.995657 0
M  V30 40 H -0.911885 -1.947358 0.558004 0
M  V30 41 H 2.923309 0.405155 -3.876265 0
M  V30 42 H 3.915917 2.251627 -1.853537 0
M  V30 43 H 3.205306 4.180758 -0.432973 0
M  V30 44 H -1.889721 3.782015 -1.352336 0
M  V30 45 H -1.782949 3.259010 1.766753 0
M  V30 46 H -3.267255 1.593751 2.970538 0
M  V30 47 H -5.154544 -2.514580 1.569243 0
M  V30 48 H -3.793469 -0.472563 -0.718683 0
M  V30 49 H -0.126332 1.265253 -2.301698 0
M  V30 50 H 0.832168 -5.143603 -2.503680 0
M  V30 51 H 0.952081 -4.495407 -4.172856 0
M  V30 52 H 2.412420 -4.818320 -3.203348 0
M  V30 53 H 2.217933 -4.581264 1.762765 0
M  V30 54 H 1.802570 -4.085596 4.072051 0
M  V30 END ATOM
M  V30 BEGIN BOND
M  V30 1 1 1 2
M  V30 2 1 2 3
M  V30 3 2 3 4
M  V30 4 1 4 5
M  V30 5 2 5 6
M  V30 6 1 6 7
M  V30 7 2 7 8
M  V30 8 1 8 9
M  V30 9 1 9 10
M  V30 10 2 10 11
M  V30 11 1 11 12
M  V30 12 2 12 13
M  V30 13 1 13 14
M  V30 14 2 14 15
M  V30 15 1 15 16
M  V30 16 1 16 17
M  V30 17 1 17 18
M  V30 18 2 18 19
M  V30 19 1 19 20
M  V30 20 2 20 21
M  V30 21 1 21 22
M  V30 22 2 22 23
M  V30 23 1 22 24
M  V30 24 1 21 25
M  V30 25 2 25 26
M  V30 26 2 16 27
M  V30 27 1 10 28
M  V30 28 2 28 29
M  V30 29 1 28 30
M  V30 30 1 30 31
M  V30 31 1 6 32
M  V30 32 2 32 33
M  V30 33 1 33 3
M  V30 34 1 30 8
M  V30 35 1 27 12
M  V30 36 1 26 18
M  V30 37 1 1 34
M  V30 38 1 1 35
M  V30 39 1 1 36
M  V30 40 1 2 37
M  V30 41 1 2 38
M  V30 42 1 4 39
M  V30 43 1 5 40
M  V30 44 1 11 41
M  V30 45 1 13 42
M  V30 46 1 14 43
M  V30 47 1 17 44
M  V30 48 1 19 45
M  V30 49 1 20 46
M  V30 50 1 24 47
M  V30 51 1 25 48
M  V30 52 1 27 49
M  V30 53 1 31 50
M  V30 54 1 31 51
M  V30 55 1 31 52
M  V30 56 1 32 53
M  V30 57 1 33 54
M  V30 END BOND
M  V30 END CTAB
M  END
>  <Dataset>  (578) 
ChEMBL_Kinases

>  <Ligand_Instance>  (578) 
nan

>  <PDB_ID>  (578) 
nan

>  <Standardized_SMILES>  (578) 
CCc1ccc(/N=C2\S/C(=C\c3ccnc(Nc4ccc(C(=O)O)cn4)c3)C(=O)N2C)cc1

>  <Name>  (578) 
nan

>  <Pocket>  (578) 
nan

>  <ATP_Site>  (578) 
nan

>  <Peripheral>  (578) 
nan

>  <Num_H_Atoms_ProtBoundConf>  (578) 
nan

>  <Num_Resolved_Atoms>  (578) 
nan

>  <Num_Not_Resolved_Atoms>  (578) 
nan

$$$$
CHEMBL4868568
     RDKit          3D

  0  0  0  0  0  0  0  0  0  0999 V3000
M  V30 BEGIN CTAB
M  V30 COUNTS 55 58 0 0 0
M  V30 BEGIN ATOM
M  V30 1 C 1.879358 1.898735 4.859091 0
M  V30 2 C 1.154192 0.719299 5.402821 0
M  V30 3 O 0.301190 0.054270 4.522087 0
M  V30 4 C 0.717121 -0.520833 3.356297 0
M  V30 5 O 1.926698 -0.275135 3.367475 0
M  V30 6 C -0.106805 -1.215863 2.412251 0
M  V30 7 C 0.275793 -1.777761 1.278880 0
M  V30 8 N 1.625863 -1.758733 0.835173 0
M  V30 9 N 2.192833 -1.150343 -0.255516 0
M  V30 10 C 3.208583 -0.177050 0.019623 0
M  V30 11 C 3.007062 1.104668 -0.804499 0
M  V30 12 N 1.697135 1.571998 -0.801951 0
M  V30 13 C 1.365101 2.877690 -0.466682 0
M  V30 14 C 1.587867 3.157034 0.989060 0
M  V30 15 F 0.766531 2.256356 1.683047 0
M  V30 16 F 2.886990 2.912158 1.362618 0
M  V30 17 F 1.212012 4.461848 1.289970 0
M  V30 18 C 0.649912 0.620415 -0.920742 0
M  V30 19 C 1.247103 -0.721702 -1.252954 0
M  V30 20 O -0.781933 -2.364768 0.609955 0
M  V30 21 C -1.925851 -2.178543 1.345448 0
M  V30 22 C -3.103827 -2.612925 0.989684 0
M  V30 23 C -3.512019 -3.356262 -0.191571 0
M  V30 24 C -4.381315 -4.452165 -0.088445 0
M  V30 25 N -4.607173 -4.952834 -1.315521 0
M  V30 26 C -3.935016 -4.248294 -2.231950 0
M  V30 27 N -3.833081 -4.339043 -3.570312 0
M  V30 28 C -3.066304 -3.466815 -4.275115 0
M  V30 29 C -2.387957 -2.474307 -3.569710 0
M  V30 30 C -2.482261 -2.366493 -2.187824 0
M  V30 31 C -3.265276 -3.268768 -1.530466 0
M  V30 32 C -1.541297 -1.432150 2.535563 0
M  V30 33 O -2.331508 -1.084897 3.432360 0
M  V30 34 H 1.264606 2.623610 4.308380 0
M  V30 35 H 2.242038 2.477346 5.760785 0
M  V30 36 H 2.842959 1.633329 4.341027 0
M  V30 37 H 0.594832 1.048413 6.319179 0
M  V30 38 H 1.921444 -0.000906 5.780271 0
M  V30 39 H 2.266545 -2.310258 1.468441 0
M  V30 40 H 3.393164 0.048019 1.067803 0
M  V30 41 H 4.165814 -0.611494 -0.393566 0
M  V30 42 H 3.313900 0.886661 -1.864894 0
M  V30 43 H 3.714056 1.872256 -0.449513 0
M  V30 44 H 0.277640 3.094603 -0.675991 0
M  V30 45 H 1.924824 3.578542 -1.127817 0
M  V30 46 H -0.143494 0.881019 -1.622959 0
M  V30 47 H 0.188387 0.520460 0.090698 0
M  V30 48 H 1.790581 -0.609171 -2.213693 0
M  V30 49 H 0.479914 -1.511554 -1.358885 0
M  V30 50 H -3.901535 -2.365342 1.711862 0
M  V30 51 H -4.824531 -4.861687 0.830967 0
M  V30 52 H -5.232720 -5.786920 -1.497375 0
M  V30 53 H -3.028196 -3.597165 -5.347284 0
M  V30 54 H -1.793042 -1.805605 -4.175447 0
M  V30 55 H -1.951825 -1.583876 -1.672888 0
M  V30 END ATOM
M  V30 BEGIN BOND
M  V30 1 1 1 2
M  V30 2 1 2 3
M  V30 3 1 3 4
M  V30 4 2 4 5
M  V30 5 1 4 6
M  V30 6 2 6 7
M  V30 7 1 7 8
M  V30 8 1 8 9
M  V30 9 1 9 10
M  V30 10 1 10 11
M  V30 11 1 11 12
M  V30 12 1 12 13
M  V30 13 1 13 14
M  V30 14 1 14 15
M  V30 15 1 14 16
M  V30 16 1 14 17
M  V30 17 1 12 18
M  V30 18 1 18 19
M  V30 19 1 7 20
M  V30 20 1 20 21
M  V30 21 2 21 22
M  V30 22 1 22 23
M  V30 23 2 23 24
M  V30 24 1 24 25
M  V30 25 1 25 26
M  V30 26 2 26 27
M  V30 27 1 27 28
M  V30 28 2 28 29
M  V30 29 1 29 30
M  V30 30 2 30 31
M  V30 31 1 21 32
M  V30 32 2 32 33
M  V30 33 1 32 6
M  V30 34 1 19 9
M  V30 35 1 31 23
M  V30 36 1 31 26
M  V30 37 1 1 34
M  V30 38 1 1 35
M  V30 39 1 1 36
M  V30 40 1 2 37
M  V30 41 1 2 38
M  V30 42 1 8 39
M  V30 43 1 10 40
M  V30 44 1 10 41
M  V30 45 1 11 42
M  V30 46 1 11 43
M  V30 47 1 13 44
M  V30 48 1 13 45
M  V30 49 1 18 46
M  V30 50 1 18 47
M  V30 51 1 19 48
M  V30 52 1 19 49
M  V30 53 1 22 50
M  V30 54 1 24 51
M  V30 55 1 25 52
M  V30 56 1 28 53
M  V30 57 1 29 54
M  V30 58 1 30 55
M  V30 END BOND
M  V30 END CTAB
M  END
>  <Dataset>  (579) 
ChEMBL_Kinases

>  <Ligand_Instance>  (579) 
nan

>  <PDB_ID>  (579) 
nan

>  <Standardized_SMILES>  (579) 
CCOC(=O)C1=C(NN2CCN(CC(F)(F)F)CC2)O/C(=C\c2c[nH]c3ncccc23)C1=O

>  <Name>  (579) 
MONZOSERTIB

>  <Pocket>  (579) 
nan

>  <ATP_Site>  (579) 
nan

>  <Peripheral>  (579) 
nan

>  <Num_H_Atoms_ProtBoundConf>  (579) 
nan

>  <Num_Resolved_Atoms>  (579) 
nan

>  <Num_Not_Resolved_Atoms>  (579) 
nan

$$$$
CHEMBL4278882
     RDKit          3D

  0  0  0  0  0  0  0  0  0  0999 V3000
M  V30 BEGIN CTAB
M  V30 COUNTS 60 63 0 0 0
M  V30 BEGIN ATOM
M  V30 1 C 0.217524 -5.379120 1.344240 0
M  V30 2 C 0.981611 -5.260105 0.079179 0
M  V30 3 O 0.784442 -6.154427 -0.798865 0
M  V30 4 N 1.902253 -4.189328 -0.152395 0
M  V30 5 C 2.170574 -3.152965 0.789331 0
M  V30 6 C 3.281904 -2.288825 0.257497 0
M  V30 7 N 2.977217 -1.653071 -0.996765 0
M  V30 8 C 1.938485 -0.673356 -0.925684 0 CFG=1
M  V30 9 C 2.205462 0.435276 0.043283 0
M  V30 10 C 1.499905 1.719270 -0.333570 0
M  V30 11 C 0.180231 1.468512 -1.023881 0 CFG=2
M  V30 12 N -0.855554 1.035942 -0.109537 0
M  V30 13 C -1.254152 2.012580 0.809355 0
M  V30 14 N -0.711650 3.247885 0.718124 0
M  V30 15 C -1.086473 4.189792 1.590588 0
M  V30 16 N -1.982144 3.951043 2.552628 0
M  V30 17 N -2.564729 2.792326 2.725479 0
M  V30 18 C -3.462510 2.282883 3.580641 0
M  V30 19 C -3.639812 0.976661 3.212463 0
M  V30 20 C -2.829805 0.676202 2.103995 0
M  V30 21 C -2.912222 -0.703414 1.586297 0
M  V30 22 C -4.175362 -0.724004 0.708005 0
M  V30 23 C -3.180816 -1.699374 2.712775 0
M  V30 24 C -2.166156 1.852089 1.825876 0
M  V30 25 C 0.357161 0.627677 -2.241176 0
M  V30 26 C 1.744490 -0.001636 -2.263592 0
M  V30 27 C 2.676428 -2.689710 -1.937643 0
M  V30 28 C 2.628591 -4.078034 -1.365911 0
M  V30 29 H 0.254067 -4.436586 1.945114 0
M  V30 30 H 0.639825 -6.178515 1.970536 0
M  V30 31 H -0.839557 -5.682199 1.146407 0
M  V30 32 H 1.274902 -2.572660 1.083973 0
M  V30 33 H 2.564706 -3.607200 1.743902 0
M  V30 34 H 3.647384 -1.561791 1.029676 0
M  V30 35 H 4.144186 -2.961279 0.068739 0
M  V30 36 H 0.999145 -1.196949 -0.672035 0
M  V30 37 H 3.278286 0.687265 0.135016 0
M  V30 38 H 1.851815 0.120250 1.023381 0
M  V30 39 H 1.403308 2.303523 0.570350 0
M  V30 40 H 2.169867 2.258738 -1.035672 0
M  V30 41 H -0.096746 2.499110 -1.426427 0
M  V30 42 H -0.986570 0.080710 -0.445901 0
M  V30 43 H -0.657709 5.175872 1.521567 0
M  V30 44 H -3.867992 2.921700 4.351919 0
M  V30 45 H -4.366832 0.442244 3.845437 0
M  V30 46 H -2.123563 -1.043735 0.935878 0
M  V30 47 H -4.246950 0.272706 0.229568 0
M  V30 48 H -5.028874 -0.829454 1.403693 0
M  V30 49 H -4.119165 -1.524305 -0.061759 0
M  V30 50 H -2.453307 -2.530144 2.702966 0
M  V30 51 H -4.190881 -2.130614 2.610615 0
M  V30 52 H -3.160101 -1.146767 3.674738 0
M  V30 53 H 0.265688 1.177186 -3.204845 0
M  V30 54 H -0.362036 -0.217253 -2.276591 0
M  V30 55 H 2.506426 0.803777 -2.427927 0
M  V30 56 H 1.795105 -0.655505 -3.131080 0
M  V30 57 H 1.679767 -2.558403 -2.452665 0
M  V30 58 H 3.422613 -2.647005 -2.753417 0
M  V30 59 H 3.665926 -4.447889 -1.222840 0
M  V30 60 H 2.169048 -4.780562 -2.108186 0
M  V30 END ATOM
M  V30 BEGIN BOND
M  V30 1 1 1 2
M  V30 2 2 2 3
M  V30 3 1 2 4
M  V30 4 1 4 5
M  V30 5 1 5 6
M  V30 6 1 6 7
M  V30 7 1 7 8
M  V30 8 1 8 9
M  V30 9 1 9 10
M  V30 10 1 10 11
M  V30 11 1 11 12
M  V30 12 1 12 13
M  V30 13 2 13 14
M  V30 14 1 14 15
M  V30 15 2 15 16
M  V30 16 1 16 17
M  V30 17 1 17 18
M  V30 18 2 18 19
M  V30 19 1 19 20
M  V30 20 1 20 21
M  V30 21 1 21 22
M  V30 22 1 21 23
M  V30 23 2 20 24
M  V30 24 1 11 25
M  V30 25 1 25 26
M  V30 26 1 7 27
M  V30 27 1 27 28
M  V30 28 1 28 4
M  V30 29 1 26 8
M  V30 30 1 24 13
M  V30 31 1 24 17
M  V30 32 1 1 29
M  V30 33 1 1 30
M  V30 34 1 1 31
M  V30 35 1 5 32
M  V30 36 1 5 33
M  V30 37 1 6 34
M  V30 38 1 6 35
M  V30 39 1 8 36 CFG=1
M  V30 40 1 9 37
M  V30 41 1 9 38
M  V30 42 1 10 39
M  V30 43 1 10 40
M  V30 44 1 11 41 CFG=3
M  V30 45 1 12 42
M  V30 46 1 15 43
M  V30 47 1 18 44
M  V30 48 1 19 45
M  V30 49 1 21 46
M  V30 50 1 22 47
M  V30 51 1 22 48
M  V30 52 1 22 49
M  V30 53 1 23 50
M  V30 54 1 23 51
M  V30 55 1 23 52
M  V30 56 1 25 53
M  V30 57 1 25 54
M  V30 58 1 26 55
M  V30 59 1 26 56
M  V30 60 1 27 57
M  V30 61 1 27 58
M  V30 62 1 28 59
M  V30 63 1 28 60
M  V30 END BOND
M  V30 END CTAB
M  END
>  <Dataset>  (580) 
ChEMBL_Kinases

>  <Ligand_Instance>  (580) 
nan

>  <PDB_ID>  (580) 
nan

>  <Standardized_SMILES>  (580) 
CC(=O)N1CCN([C@H]2CC[C@H](Nc3ncnn4ccc(C(C)C)c34)CC2)CC1

>  <Name>  (580) 
nan

>  <Pocket>  (580) 
nan

>  <ATP_Site>  (580) 
nan

>  <Peripheral>  (580) 
nan

>  <Num_H_Atoms_ProtBoundConf>  (580) 
nan

>  <Num_Resolved_Atoms>  (580) 
nan

>  <Num_Not_Resolved_Atoms>  (580) 
nan

$$$$
CHEMBL3393603
     RDKit          3D

  0  0  0  0  0  0  0  0  0  0999 V3000
M  V30 BEGIN CTAB
M  V30 COUNTS 48 52 0 0 0
M  V30 BEGIN ATOM
M  V30 1 C 0.145519 -4.038418 5.632864 0
M  V30 2 O 0.128681 -4.544869 4.325550 0
M  V30 3 C 0.497122 -3.831874 3.190332 0
M  V30 4 C 0.907605 -2.534280 3.372032 0
M  V30 5 C 1.267328 -1.845627 2.240527 0
M  V30 6 C 1.170856 -2.546531 1.058639 0
M  V30 7 C 1.536163 -1.870129 -0.171397 0
M  V30 8 O 1.882375 -1.159670 -1.133947 0
M  V30 9 O 1.915952 -1.090867 -1.227640 0
M  V30 10 N 2.364093 0.208183 -1.167472 0
M  V30 11 C 1.564672 1.199578 -0.962310 0
M  V30 12 C 2.012032 2.593973 -0.893095 0
M  V30 13 C 3.243005 3.228018 -1.006026 0
M  V30 14 C 3.347095 4.583442 -0.892707 0
M  V30 15 C 2.234251 5.369554 -0.662307 0
M  V30 16 C 1.008007 4.754065 -0.548263 0
M  V30 17 C 0.895074 3.373555 -0.662706 0
M  V30 18 C -0.263456 2.482986 -0.584552 0
M  V30 19 N -1.552595 2.806456 -0.372678 0
M  V30 20 C -2.472093 1.825220 -0.336117 0
M  V30 21 C -3.817858 2.040876 -0.126027 0
M  V30 22 C -4.769175 1.047137 -0.085724 0
M  V30 23 C -4.334729 -0.264725 -0.270868 0
M  V30 24 C -2.998119 -0.542132 -0.485523 0
M  V30 25 C -2.070578 0.498039 -0.518077 0
M  V30 26 N -0.788613 0.177076 -0.728729 0
M  V30 27 C 0.128783 1.153625 -0.765380 0
M  V30 28 C 0.761229 -3.845859 0.864807 0
M  V30 29 C 0.403878 -4.518005 2.023336 0
M  V30 30 O -0.029911 -5.845904 1.958177 0
M  V30 31 C -0.076046 -6.432481 0.670668 0
M  V30 32 H -0.186271 -2.980913 5.703229 0
M  V30 33 H -0.601911 -4.603015 6.254302 0
M  V30 34 H 1.118608 -4.159694 6.148625 0
M  V30 35 H 0.967237 -2.024757 4.323173 0
M  V30 36 H 1.610670 -0.821772 2.214974 0
M  V30 37 H 4.075281 2.580777 -1.183935 0
M  V30 38 H 4.336546 4.971977 -0.994935 0
M  V30 39 H 2.322812 6.428576 -0.574897 0
M  V30 40 H 0.132490 5.386777 -0.365722 0
M  V30 41 H -4.145281 3.066804 0.017005 0
M  V30 42 H -5.802905 1.328318 0.086670 0
M  V30 43 H -5.086028 -1.065814 -0.240427 0
M  V30 44 H -2.736101 -1.580506 -0.620467 0
M  V30 45 H 0.709492 -4.332453 -0.088695 0
M  V30 46 H -0.316424 -7.525472 0.805561 0
M  V30 47 H -0.841294 -5.934971 0.040563 0
M  V30 48 H 0.946557 -6.331485 0.234315 0
M  V30 END ATOM
M  V30 BEGIN BOND
M  V30 1 1 1 2
M  V30 2 1 2 3
M  V30 3 2 3 4
M  V30 4 1 4 5
M  V30 5 2 5 6
M  V30 6 1 6 7
M  V30 7 2 7 8
M  V30 8 1 7 9
M  V30 9 1 9 10
M  V30 10 2 10 11
M  V30 11 1 11 12
M  V30 12 2 12 13
M  V30 13 1 13 14
M  V30 14 2 14 15
M  V30 15 1 15 16
M  V30 16 2 16 17
M  V30 17 1 17 18
M  V30 18 2 18 19
M  V30 19 1 19 20
M  V30 20 2 20 21
M  V30 21 1 21 22
M  V30 22 2 22 23
M  V30 23 1 23 24
M  V30 24 2 24 25
M  V30 25 1 25 26
M  V30 26 2 26 27
M  V30 27 1 6 28
M  V30 28 2 28 29
M  V30 29 1 29 30
M  V30 30 1 30 31
M  V30 31 1 29 3
M  V30 32 1 27 11
M  V30 33 1 17 12
M  V30 34 1 27 18
M  V30 35 1 25 20
M  V30 36 1 1 32
M  V30 37 1 1 33
M  V30 38 1 1 34
M  V30 39 1 4 35
M  V30 40 1 5 36
M  V30 41 1 13 37
M  V30 42 1 14 38
M  V30 43 1 15 39
M  V30 44 1 16 40
M  V30 45 1 21 41
M  V30 46 1 22 42
M  V30 47 1 23 43
M  V30 48 1 24 44
M  V30 49 1 28 45
M  V30 50 1 31 46
M  V30 51 1 31 47
M  V30 52 1 31 48
M  V30 END BOND
M  V30 END CTAB
M  END
>  <Dataset>  (581) 
ChEMBL_Kinases

>  <Ligand_Instance>  (581) 
nan

>  <PDB_ID>  (581) 
nan

>  <Standardized_SMILES>  (581) 
COc1ccc(C(=O)O/N=C2/c3ccccc3-c3nc4ccccc4nc32)cc1OC

>  <Name>  (581) 
nan

>  <Pocket>  (581) 
nan

>  <ATP_Site>  (581) 
nan

>  <Peripheral>  (581) 
nan

>  <Num_H_Atoms_ProtBoundConf>  (581) 
nan

>  <Num_Resolved_Atoms>  (581) 
nan

>  <Num_Not_Resolved_Atoms>  (581) 
nan

$$$$
CHEMBL190313
     RDKit          3D

  0  0  0  0  0  0  0  0  0  0999 V3000
M  V30 BEGIN CTAB
M  V30 COUNTS 47 51 0 0 0
M  V30 BEGIN ATOM
M  V30 1 O -2.422410 -0.515800 2.637028 0
M  V30 2 C -1.245275 -0.435436 2.246337 0
M  V30 3 C -0.291301 0.539750 1.787916 0
M  V30 4 C -0.654908 1.799282 1.759642 0
M  V30 5 C 0.094028 2.972098 1.347956 0
M  V30 6 N 0.070595 4.296892 1.273606 0
M  V30 7 C 1.175687 4.832021 0.745796 0
M  V30 8 C 1.453392 6.159211 0.539712 0
M  V30 9 C 2.690456 6.455490 -0.027293 0
M  V30 10 C 3.567279 5.440192 -0.354014 0
M  V30 11 C 3.209873 4.109680 -0.113368 0
M  V30 12 C 1.981048 3.752180 0.455099 0
M  V30 13 N 1.319165 2.663392 0.820203 0
M  V30 14 C -0.891253 -1.838213 2.360562 0
M  V30 15 C -0.429133 -2.270851 3.588953 0
M  V30 16 O -0.286279 -1.492591 4.737411 0
M  V30 17 N -0.045015 -3.543011 3.841590 0
M  V30 18 C -0.090726 -4.485800 2.893622 0
M  V30 19 C 0.279972 -5.796262 3.064466 0
M  V30 20 C 0.184358 -6.658464 1.999827 0
M  V30 21 C -0.264710 -6.284992 0.759496 0
M  V30 22 Cl -0.341739 -7.484495 -0.535664 0
M  V30 23 C -0.653528 -4.970152 0.531161 0
M  V30 24 C -0.543546 -4.138218 1.624099 0
M  V30 25 C -0.931825 -2.815787 1.395174 0
M  V30 26 C -1.387927 -2.367735 0.058989 0
M  V30 27 C -2.595653 -2.286049 -0.591297 0
M  V30 28 C -2.667041 -1.811037 -1.880574 0
M  V30 29 C -1.530379 -1.394750 -2.576762 0
M  V30 30 C -0.311126 -1.481797 -1.904058 0
M  V30 31 C -0.217771 -1.955423 -0.611218 0
M  V30 32 H 0.703863 0.317723 1.465954 0
M  V30 33 H -1.643011 2.173464 2.065977 0
M  V30 34 H 0.770925 6.948328 0.798062 0
M  V30 35 H 3.021591 7.460466 -0.237287 0
M  V30 36 H 4.541731 5.562806 -0.790614 0
M  V30 37 H 3.880135 3.300528 -0.363302 0
M  V30 38 H 1.857718 1.769755 0.638485 0
M  V30 39 H 0.516708 -1.529536 5.335092 0
M  V30 40 H 0.622308 -6.014577 4.066856 0
M  V30 41 H 0.500195 -7.682937 2.247273 0
M  V30 42 H -1.002429 -4.673343 -0.437302 0
M  V30 43 H -3.341678 -2.642707 0.083182 0
M  V30 44 H -3.690920 -1.816018 -2.232285 0
M  V30 45 H -1.696465 -1.037710 -3.584227 0
M  V30 46 H 0.513405 -1.135421 -2.521549 0
M  V30 47 H 0.811701 -1.938416 -0.287116 0
M  V30 END ATOM
M  V30 BEGIN BOND
M  V30 1 2 1 2
M  V30 2 1 2 3
M  V30 3 2 3 4
M  V30 4 1 4 5
M  V30 5 2 5 6
M  V30 6 1 6 7
M  V30 7 2 7 8
M  V30 8 1 8 9
M  V30 9 2 9 10
M  V30 10 1 10 11
M  V30 11 2 11 12
M  V30 12 1 12 13
M  V30 13 1 2 14
M  V30 14 2 14 15
M  V30 15 1 15 16
M  V30 16 1 15 17
M  V30 17 2 17 18
M  V30 18 1 18 19
M  V30 19 2 19 20
M  V30 20 1 20 21
M  V30 21 1 21 22
M  V30 22 2 21 23
M  V30 23 1 23 24
M  V30 24 2 24 25
M  V30 25 1 25 26
M  V30 26 2 26 27
M  V30 27 1 27 28
M  V30 28 2 28 29
M  V30 29 1 29 30
M  V30 30 2 30 31
M  V30 31 1 13 5
M  V30 32 1 25 14
M  V30 33 1 31 26
M  V30 34 1 12 7
M  V30 35 1 24 18
M  V30 36 1 3 32
M  V30 37 1 4 33
M  V30 38 1 8 34
M  V30 39 1 9 35
M  V30 40 1 10 36
M  V30 41 1 11 37
M  V30 42 1 13 38
M  V30 43 1 16 39
M  V30 44 1 19 40
M  V30 45 1 20 41
M  V30 46 1 23 42
M  V30 47 1 27 43
M  V30 48 1 28 44
M  V30 49 1 29 45
M  V30 50 1 30 46
M  V30 51 1 31 47
M  V30 END BOND
M  V30 END CTAB
M  END
>  <Dataset>  (582) 
ChEMBL_Kinases

>  <Ligand_Instance>  (582) 
nan

>  <PDB_ID>  (582) 
nan

>  <Standardized_SMILES>  (582) 
O=C(/C=C/c1nc2ccccc2[nH]1)c1c(O)nc2ccc(Cl)cc2c1-c1ccccc1

>  <Name>  (582) 
nan

>  <Pocket>  (582) 
nan

>  <ATP_Site>  (582) 
nan

>  <Peripheral>  (582) 
nan

>  <Num_H_Atoms_ProtBoundConf>  (582) 
nan

>  <Num_Resolved_Atoms>  (582) 
nan

>  <Num_Not_Resolved_Atoms>  (582) 
nan

$$$$
CHEMBL3393602
     RDKit          3D

  0  0  0  0  0  0  0  0  0  0999 V3000
M  V30 BEGIN CTAB
M  V30 COUNTS 37 41 0 0 0
M  V30 BEGIN ATOM
M  V30 1 O 0.547544 -1.480467 3.301214 0
M  V30 2 C 0.315680 -2.509478 2.602321 0
M  V30 3 O 1.046202 -2.851440 1.501527 0
M  V30 4 N 2.115697 -2.168439 0.980709 0
M  V30 5 C 2.062494 -1.042992 0.380173 0
M  V30 6 C 3.184096 -0.292303 -0.184617 0
M  V30 7 C 4.533354 -0.575910 -0.222885 0
M  V30 8 C 5.414300 0.312142 -0.827745 0
M  V30 9 C 4.845902 1.447968 -1.360770 0
M  V30 10 C 3.506227 1.774549 -1.347079 0
M  V30 11 C 2.654997 0.860906 -0.732610 0
M  V30 12 C 1.213558 0.840598 -0.517058 0
M  V30 13 N 0.270751 1.733855 -0.865888 0
M  V30 14 C -1.038753 1.527956 -0.568792 0
M  V30 15 C -1.912137 2.510279 -0.975606 0
M  V30 16 C -3.254592 2.315501 -0.679850 0
M  V30 17 C -3.680274 1.171387 -0.001261 0
M  V30 18 C -2.722099 0.250575 0.360282 0
M  V30 19 C -1.387178 0.360648 0.111364 0
M  V30 20 N -0.463779 -0.539818 0.466844 0
M  V30 21 C 0.825079 -0.305777 0.157473 0
M  V30 22 C -0.794834 -3.408520 2.968164 0
M  V30 23 C -1.215583 -4.567758 2.352380 0
M  V30 24 C -2.294753 -5.092398 3.029546 0
M  V30 25 C -2.492806 -4.201017 4.064006 0
M  V30 26 O -1.599004 -3.241952 3.986552 0
M  V30 27 H 4.965681 -1.478953 0.203681 0
M  V30 28 H 6.481817 0.146505 -0.889767 0
M  V30 29 H 5.531082 2.140255 -1.832070 0
M  V30 30 H 3.138100 2.689964 -1.789436 0
M  V30 31 H -1.557954 3.383688 -1.497781 0
M  V30 32 H -3.929145 3.107388 -1.011985 0
M  V30 33 H -4.739966 1.058261 0.210253 0
M  V30 34 H -3.078536 -0.641476 0.892852 0
M  V30 35 H -0.766764 -5.005265 1.466493 0
M  V30 36 H -2.885755 -5.979438 2.847728 0
M  V30 37 H -3.241005 -4.205449 4.864606 0
M  V30 END ATOM
M  V30 BEGIN BOND
M  V30 1 2 1 2
M  V30 2 1 2 3
M  V30 3 1 3 4
M  V30 4 2 4 5
M  V30 5 1 5 6
M  V30 6 2 6 7
M  V30 7 1 7 8
M  V30 8 2 8 9
M  V30 9 1 9 10
M  V30 10 2 10 11
M  V30 11 1 11 12
M  V30 12 2 12 13
M  V30 13 1 13 14
M  V30 14 2 14 15
M  V30 15 1 15 16
M  V30 16 2 16 17
M  V30 17 1 17 18
M  V30 18 2 18 19
M  V30 19 1 19 20
M  V30 20 2 20 21
M  V30 21 1 2 22
M  V30 22 2 22 23
M  V30 23 1 23 24
M  V30 24 2 24 25
M  V30 25 1 25 26
M  V30 26 1 21 5
M  V30 27 1 26 22
M  V30 28 1 11 6
M  V30 29 1 21 12
M  V30 30 1 19 14
M  V30 31 1 7 27
M  V30 32 1 8 28
M  V30 33 1 9 29
M  V30 34 1 10 30
M  V30 35 1 15 31
M  V30 36 1 16 32
M  V30 37 1 17 33
M  V30 38 1 18 34
M  V30 39 1 23 35
M  V30 40 1 24 36
M  V30 41 1 25 37
M  V30 END BOND
M  V30 END CTAB
M  END
>  <Dataset>  (583) 
ChEMBL_Kinases

>  <Ligand_Instance>  (583) 
nan

>  <PDB_ID>  (583) 
nan

>  <Standardized_SMILES>  (583) 
O=C(O/N=C1/c2ccccc2-c2nc3ccccc3nc21)c1ccco1

>  <Name>  (583) 
nan

>  <Pocket>  (583) 
nan

>  <ATP_Site>  (583) 
nan

>  <Peripheral>  (583) 
nan

>  <Num_H_Atoms_ProtBoundConf>  (583) 
nan

>  <Num_Resolved_Atoms>  (583) 
nan

>  <Num_Not_Resolved_Atoms>  (583) 
nan

$$$$
CHEMBL395080
     RDKit          3D

  0  0  0  0  0  0  0  0  0  0999 V3000
M  V30 BEGIN CTAB
M  V30 COUNTS 72 77 0 0 0
M  V30 BEGIN ATOM
M  V30 1 C 7.563255 -1.422894 5.659970 0
M  V30 2 O 6.489117 -1.193540 6.554066 0
M  V30 3 C 5.237531 -0.800187 6.091875 0
M  V30 4 C 5.062948 -0.635019 4.717172 0
M  V30 5 C 3.792822 -0.240723 4.300025 0
M  V30 6 C 3.547912 -0.049160 2.875236 0
M  V30 7 C 4.219523 -0.812656 1.930774 0
M  V30 8 C 4.001979 -0.646080 0.588351 0
M  V30 9 C 3.082953 0.317766 0.228009 0
M  V30 10 C 2.401532 1.089969 1.144976 0
M  V30 11 C 2.626206 0.916986 2.512449 0
M  V30 12 N 1.426491 2.119235 0.962692 0
M  V30 13 C 0.623369 2.303735 -0.212742 0
M  V30 14 C -0.570175 2.938439 0.065121 0
M  V30 15 C -1.472331 3.200103 -0.947181 0
M  V30 16 C -1.168291 2.820047 -2.240624 0
M  V30 17 C -2.083318 3.051784 -3.419300 0
M  V30 18 C -2.941564 1.821088 -3.557592 0
M  V30 19 O -2.211462 1.546647 -2.561206 0
M  V30 20 N -3.963729 1.333680 -4.373824 0
M  V30 21 C -4.284538 0.039689 -3.875934 0
M  V30 22 C -3.580545 -1.000209 -4.421999 0
M  V30 23 C -3.853773 -2.274141 -3.972894 0
M  V30 24 C -4.829924 -2.422849 -2.990465 0
M  V30 25 N -5.106138 -3.743158 -2.528241 0
M  V30 26 C -4.352763 -4.865594 -3.068766 0
M  V30 27 C -4.471249 -6.051055 -2.105793 0
M  V30 28 O -5.821641 -6.288188 -1.964298 0
M  V30 29 C -6.458987 -5.329420 -1.199692 0
M  V30 30 C -6.129653 -3.918673 -1.536899 0
M  V30 31 C -5.506369 -1.338204 -2.478176 0
M  V30 32 C -5.256992 -0.051944 -2.905785 0
M  V30 33 C 0.036340 2.186699 -2.481330 0
M  V30 34 C 0.960372 1.910013 -1.493194 0
M  V30 35 N 2.121601 1.245347 -2.012467 0
M  V30 36 C 2.949871 0.391045 -1.222779 0
M  V30 37 O 3.647097 -0.395212 -1.946839 0
M  V30 38 C 2.801858 -0.038932 5.229940 0
M  V30 39 C 2.996136 -0.207937 6.584390 0
M  V30 40 C 4.245119 -0.596949 7.011501 0
M  V30 41 N 4.455653 -0.773830 8.406758 0
M  V30 42 H 7.663504 -0.571476 4.947959 0
M  V30 43 H 8.490453 -1.537790 6.260947 0
M  V30 44 H 7.392068 -2.392700 5.119344 0
M  V30 45 H 5.839762 -0.793683 3.991977 0
M  V30 46 H 4.941870 -1.568527 2.239908 0
M  V30 47 H 4.506815 -1.221293 -0.156976 0
M  V30 48 H 2.091247 1.522384 3.230111 0
M  V30 49 H 1.254191 2.810800 1.719530 0
M  V30 50 H -0.770934 3.219629 1.088120 0
M  V30 51 H -2.410727 3.692162 -0.768623 0
M  V30 52 H -2.727246 3.901312 -3.167373 0
M  V30 53 H -1.444337 3.197381 -4.287305 0
M  V30 54 H -4.122974 2.100869 -5.058287 0
M  V30 55 H -2.824826 -0.845172 -5.187301 0
M  V30 56 H -3.285888 -3.078192 -4.419892 0
M  V30 57 H -3.265876 -4.662653 -3.152678 0
M  V30 58 H -4.773114 -5.220543 -4.036618 0
M  V30 59 H -3.933453 -5.872505 -1.152942 0
M  V30 60 H -4.001164 -6.932884 -2.585881 0
M  V30 61 H -6.104976 -5.511632 -0.143202 0
M  V30 62 H -7.547510 -5.548326 -1.188274 0
M  V30 63 H -7.070988 -3.462971 -1.964091 0
M  V30 64 H -5.801179 -3.309375 -0.651901 0
M  V30 65 H -6.257947 -1.529839 -1.712326 0
M  V30 66 H -5.776418 0.812538 -2.517424 0
M  V30 67 H 0.281781 1.884874 -3.499884 0
M  V30 68 H 2.326394 1.427886 -3.018094 0
M  V30 69 H 1.829685 0.268338 4.844578 0
M  V30 70 H 2.152985 -0.024493 7.241779 0
M  V30 71 H 4.401144 -1.828811 8.445364 0
M  V30 72 H 4.603686 0.020842 9.064801 0
M  V30 END ATOM
M  V30 BEGIN BOND
M  V30 1 1 1 2
M  V30 2 1 2 3
M  V30 3 2 3 4
M  V30 4 1 4 5
M  V30 5 1 5 6
M  V30 6 2 6 7
M  V30 7 1 7 8
M  V30 8 2 8 9
M  V30 9 1 9 10
M  V30 10 2 10 11
M  V30 11 1 10 12
M  V30 12 1 12 13
M  V30 13 2 13 14
M  V30 14 1 14 15
M  V30 15 2 15 16
M  V30 16 1 16 17
M  V30 17 1 17 18
M  V30 18 2 18 19
M  V30 19 1 18 20
M  V30 20 1 20 21
M  V30 21 2 21 22
M  V30 22 1 22 23
M  V30 23 2 23 24
M  V30 24 1 24 25
M  V30 25 1 25 26
M  V30 26 1 26 27
M  V30 27 1 27 28
M  V30 28 1 28 29
M  V30 29 1 29 30
M  V30 30 1 24 31
M  V30 31 2 31 32
M  V30 32 1 16 33
M  V30 33 2 33 34
M  V30 34 1 34 35
M  V30 35 1 35 36
M  V30 36 2 36 37
M  V30 37 2 5 38
M  V30 38 1 38 39
M  V30 39 2 39 40
M  V30 40 1 40 41
M  V30 41 1 40 3
M  V30 42 1 11 6
M  V30 43 1 34 13
M  V30 44 1 36 9
M  V30 45 1 32 21
M  V30 46 1 30 25
M  V30 47 1 1 42
M  V30 48 1 1 43
M  V30 49 1 1 44
M  V30 50 1 4 45
M  V30 51 1 7 46
M  V30 52 1 8 47
M  V30 53 1 11 48
M  V30 54 1 12 49
M  V30 55 1 14 50
M  V30 56 1 15 51
M  V30 57 1 17 52
M  V30 58 1 17 53
M  V30 59 1 20 54
M  V30 60 1 22 55
M  V30 61 1 23 56
M  V30 62 1 26 57
M  V30 63 1 26 58
M  V30 64 1 27 59
M  V30 65 1 27 60
M  V30 66 1 29 61
M  V30 67 1 29 62
M  V30 68 1 30 63
M  V30 69 1 30 64
M  V30 70 1 31 65
M  V30 71 1 32 66
M  V30 72 1 33 67
M  V30 73 1 35 68
M  V30 74 1 38 69
M  V30 75 1 39 70
M  V30 76 1 41 71
M  V30 77 1 41 72
M  V30 END BOND
M  V30 END CTAB
M  END
>  <Dataset>  (584) 
ChEMBL_Kinases

>  <Ligand_Instance>  (584) 
nan

>  <PDB_ID>  (584) 
nan

>  <Standardized_SMILES>  (584) 
COc1cc(-c2ccc3c(c2)Nc2ccc(CC(=O)Nc4ccc(N5CCOCC5)cc4)cc2NC3=O)ccc1N

>  <Name>  (584) 
nan

>  <Pocket>  (584) 
nan

>  <ATP_Site>  (584) 
nan

>  <Peripheral>  (584) 
nan

>  <Num_H_Atoms_ProtBoundConf>  (584) 
nan

>  <Num_Resolved_Atoms>  (584) 
nan

>  <Num_Not_Resolved_Atoms>  (584) 
nan

$$$$
CHEMBL3823659
     RDKit          3D

  0  0  0  0  0  0  0  0  0  0999 V3000
M  V30 BEGIN CTAB
M  V30 COUNTS 52 56 0 0 0
M  V30 BEGIN ATOM
M  V30 1 C -0.008269 -1.832578 4.808943 0
M  V30 2 C 1.392606 -2.198916 4.442463 0
M  V30 3 O 2.470451 -1.782909 4.990142 0
M  V30 4 N 1.665129 -3.089713 3.396907 0
M  V30 5 C 3.050276 -3.411584 3.080075 0
M  V30 6 C 3.406282 -2.995472 1.644908 0
M  V30 7 C 2.168569 -2.387965 1.075194 0
M  V30 8 N 2.344457 -1.768774 -0.222073 0
M  V30 9 C 1.764589 -0.575100 -0.544945 0
M  V30 10 C 2.116283 -0.249726 -1.853644 0
M  V30 11 N 1.695127 0.939390 -2.556984 0
M  V30 12 C 0.889645 1.846994 -1.807678 0
M  V30 13 N 1.467287 2.892717 -1.146756 0
M  V30 14 C 0.742312 3.769102 -0.424343 0
M  V30 15 C -0.622014 3.548677 -0.390359 0
M  V30 16 Cl -1.649671 4.655645 0.537981 0
M  V30 17 C -1.263016 2.507389 -1.039153 0
M  V30 18 C -2.705347 2.310933 -0.969323 0
M  V30 19 C -3.822852 3.132105 -1.090409 0
M  V30 20 N -4.912422 2.359360 -0.920629 0
M  V30 21 C -4.497094 1.120253 -0.704913 0
M  V30 22 C -5.302296 0.027012 -0.482888 0
M  V30 23 C -4.751731 -1.219298 -0.268057 0
M  V30 24 C -3.368693 -1.293438 -0.290503 0
M  V30 25 C -2.635988 -0.160425 -0.518051 0
M  V30 26 N -3.168101 1.065582 -0.729609 0
M  V30 27 N -0.444626 1.677774 -1.741573 0
M  V30 28 C 2.924268 -1.286916 -2.300135 0
M  V30 29 N 3.015197 -2.160259 -1.266150 0
M  V30 30 C 1.029649 -3.411575 1.071382 0
M  V30 31 C 0.758805 -3.803466 2.504249 0
M  V30 32 H -0.522099 -1.249915 4.014769 0
M  V30 33 H -0.649333 -2.718419 4.995649 0
M  V30 34 H -0.000799 -1.174311 5.709125 0
M  V30 35 H 3.131893 -4.517245 3.113674 0
M  V30 36 H 3.757094 -2.996588 3.822621 0
M  V30 37 H 4.179325 -2.189669 1.711715 0
M  V30 38 H 3.769828 -3.864198 1.051787 0
M  V30 39 H 1.830798 -1.628080 1.840289 0
M  V30 40 H 1.130972 0.012826 0.128800 0
M  V30 41 H 1.987088 1.069435 -3.532078 0
M  V30 42 H 1.196944 4.598495 0.099564 0
M  V30 43 H -3.660665 4.194891 -1.289169 0
M  V30 44 H -6.400022 0.054334 -0.459434 0
M  V30 45 H -5.266511 -2.151406 -0.083334 0
M  V30 46 H -2.864557 -2.220975 -0.132744 0
M  V30 47 H -1.543351 -0.251252 -0.529715 0
M  V30 48 H 3.368075 -1.336192 -3.290744 0
M  V30 49 H 1.311302 -4.296561 0.465432 0
M  V30 50 H 0.142673 -2.902336 0.614389 0
M  V30 51 H 1.016276 -4.892815 2.648147 0
M  V30 52 H -0.299403 -3.661380 2.800879 0
M  V30 END ATOM
M  V30 BEGIN BOND
M  V30 1 1 1 2
M  V30 2 2 2 3
M  V30 3 1 2 4
M  V30 4 1 4 5
M  V30 5 1 5 6
M  V30 6 1 6 7
M  V30 7 1 7 8
M  V30 8 1 8 9
M  V30 9 2 9 10
M  V30 10 1 10 11
M  V30 11 1 11 12
M  V30 12 2 12 13
M  V30 13 1 13 14
M  V30 14 2 14 15
M  V30 15 1 15 16
M  V30 16 1 15 17
M  V30 17 1 17 18
M  V30 18 2 18 19
M  V30 19 1 19 20
M  V30 20 2 20 21
M  V30 21 1 21 22
M  V30 22 2 22 23
M  V30 23 1 23 24
M  V30 24 2 24 25
M  V30 25 1 25 26
M  V30 26 2 17 27
M  V30 27 1 10 28
M  V30 28 2 28 29
M  V30 29 1 7 30
M  V30 30 1 30 31
M  V30 31 1 31 4
M  V30 32 1 29 8
M  V30 33 1 27 12
M  V30 34 1 26 18
M  V30 35 1 26 21
M  V30 36 1 1 32
M  V30 37 1 1 33
M  V30 38 1 1 34
M  V30 39 1 5 35
M  V30 40 1 5 36
M  V30 41 1 6 37
M  V30 42 1 6 38
M  V30 43 1 7 39
M  V30 44 1 9 40
M  V30 45 1 11 41
M  V30 46 1 14 42
M  V30 47 1 19 43
M  V30 48 1 22 44
M  V30 49 1 23 45
M  V30 50 1 24 46
M  V30 51 1 25 47
M  V30 52 1 28 48
M  V30 53 1 30 49
M  V30 54 1 30 50
M  V30 55 1 31 51
M  V30 56 1 31 52
M  V30 END BOND
M  V30 END CTAB
M  END
>  <Dataset>  (585) 
ChEMBL_Kinases

>  <Ligand_Instance>  (585) 
nan

>  <PDB_ID>  (585) 
nan

>  <Standardized_SMILES>  (585) 
CC(=O)N1CCC(n2cc(Nc3ncc(Cl)c(-c4cnc5ccccn45)n3)cn2)CC1

>  <Name>  (585) 
nan

>  <Pocket>  (585) 
nan

>  <ATP_Site>  (585) 
nan

>  <Peripheral>  (585) 
nan

>  <Num_H_Atoms_ProtBoundConf>  (585) 
nan

>  <Num_Resolved_Atoms>  (585) 
nan

>  <Num_Not_Resolved_Atoms>  (585) 
nan

$$$$
CHEMBL2087361
     RDKit          3D

  0  0  0  0  0  0  0  0  0  0999 V3000
M  V30 BEGIN CTAB
M  V30 COUNTS 50 53 0 0 0
M  V30 BEGIN ATOM
M  V30 1 C 7.057430 -2.368551 2.686684 0
M  V30 2 C 6.333440 -1.950618 1.819405 0
M  V30 3 C 5.462712 -1.437987 0.792049 0
M  V30 4 C 5.387852 -2.034889 -0.456232 0
M  V30 5 C 4.569167 -1.585729 -1.472289 0
M  V30 6 C 3.763676 -0.468060 -1.248566 0
M  V30 7 C 3.862105 0.102093 0.003435 0
M  V30 8 N 3.052593 1.253952 0.275669 0
M  V30 9 C 2.116787 1.814862 -0.638252 0
M  V30 10 N 2.369617 2.748986 -1.600601 0
M  V30 11 C 1.367775 3.182553 -2.387789 0
M  V30 12 N 0.084184 2.727292 -2.271594 0
M  V30 13 C -0.162421 1.800335 -1.315152 0
M  V30 14 C -1.474221 1.381595 -1.244246 0
M  V30 15 C -1.779948 0.440703 -0.285940 0
M  V30 16 C -0.807676 -0.087296 0.598107 0
M  V30 17 C 0.483918 0.383205 0.462900 0
M  V30 18 C 0.830336 1.325499 -0.484882 0
M  V30 19 O -1.260482 -0.979324 1.460127 0
M  V30 20 C -1.003507 -1.929635 2.341089 0
M  V30 21 C -2.211618 -2.572718 3.017365 0
M  V30 22 O -2.973247 -1.703294 3.695930 0
M  V30 23 C -3.737871 -0.757683 3.092928 0
M  V30 24 C -4.934165 -1.242082 2.335187 0
M  V30 25 O -4.961682 -2.033982 1.329067 0
M  V30 26 C -4.653161 -1.901598 0.071791 0
M  V30 27 C -3.314360 -1.458553 -0.425029 0
M  V30 28 O -3.030386 -0.170327 0.016287 0
M  V30 29 C 4.667620 -0.323567 1.033022 0
M  V30 30 H 7.697600 -2.755728 3.462474 0
M  V30 31 H 6.007868 -2.914164 -0.664139 0
M  V30 32 H 4.519672 -2.061079 -2.444703 0
M  V30 33 H 3.094012 -0.045850 -1.981320 0
M  V30 34 H 3.073684 1.785157 1.162028 0
M  V30 35 H 1.641678 3.930632 -3.136482 0
M  V30 36 H -2.323752 1.673833 -1.827094 0
M  V30 37 H 1.223880 -0.005814 1.121105 0
M  V30 38 H -0.324633 -2.761145 1.987144 0
M  V30 39 H -0.413201 -1.501604 3.211023 0
M  V30 40 H -2.754645 -3.165378 2.246716 0
M  V30 41 H -1.804783 -3.320422 3.727963 0
M  V30 42 H -3.177912 0.052926 2.599093 0
M  V30 43 H -4.209899 -0.181457 3.983764 0
M  V30 44 H -5.450249 -0.241508 2.025971 0
M  V30 45 H -5.725904 -1.602380 3.120822 0
M  V30 46 H -5.387394 -1.217794 -0.508632 0
M  V30 47 H -4.818260 -2.939194 -0.439010 0
M  V30 48 H -3.255714 -1.530411 -1.551811 0
M  V30 49 H -2.497476 -2.176494 -0.108294 0
M  V30 50 H 4.682483 0.181252 1.982175 0
M  V30 END ATOM
M  V30 BEGIN BOND
M  V30 1 3 1 2
M  V30 2 1 2 3
M  V30 3 2 3 4
M  V30 4 1 4 5
M  V30 5 2 5 6
M  V30 6 1 6 7
M  V30 7 1 7 8
M  V30 8 1 8 9
M  V30 9 2 9 10
M  V30 10 1 10 11
M  V30 11 2 11 12
M  V30 12 1 12 13
M  V30 13 2 13 14
M  V30 14 1 14 15
M  V30 15 2 15 16
M  V30 16 1 16 17
M  V30 17 2 17 18
M  V30 18 1 16 19
M  V30 19 1 19 20
M  V30 20 1 20 21
M  V30 21 1 21 22
M  V30 22 1 22 23
M  V30 23 1 23 24
M  V30 24 1 24 25
M  V30 25 1 25 26
M  V30 26 1 26 27
M  V30 27 1 27 28
M  V30 28 2 7 29
M  V30 29 1 29 3
M  V30 30 1 18 9
M  V30 31 1 18 13
M  V30 32 1 28 15
M  V30 33 1 1 30
M  V30 34 1 4 31
M  V30 35 1 5 32
M  V30 36 1 6 33
M  V30 37 1 8 34
M  V30 38 1 11 35
M  V30 39 1 14 36
M  V30 40 1 17 37
M  V30 41 1 20 38
M  V30 42 1 20 39
M  V30 43 1 21 40
M  V30 44 1 21 41
M  V30 45 1 23 42
M  V30 46 1 23 43
M  V30 47 1 24 44
M  V30 48 1 24 45
M  V30 49 1 26 46
M  V30 50 1 26 47
M  V30 51 1 27 48
M  V30 52 1 27 49
M  V30 53 1 29 50
M  V30 END BOND
M  V30 END CTAB
M  END
>  <Dataset>  (586) 
ChEMBL_Kinases

>  <Ligand_Instance>  (586) 
nan

>  <PDB_ID>  (586) 
nan

>  <Standardized_SMILES>  (586) 
C#Cc1cccc(Nc2ncnc3cc4c(cc23)OCCOCCOCCO4)c1

>  <Name>  (586) 
ICOTINIB

>  <Pocket>  (586) 
nan

>  <ATP_Site>  (586) 
nan

>  <Peripheral>  (586) 
nan

>  <Num_H_Atoms_ProtBoundConf>  (586) 
nan

>  <Num_Resolved_Atoms>  (586) 
nan

>  <Num_Not_Resolved_Atoms>  (586) 
nan

$$$$
CHEMBL3924132
     RDKit          3D

  0  0  0  0  0  0  0  0  0  0999 V3000
M  V30 BEGIN CTAB
M  V30 COUNTS 63 66 0 0 0
M  V30 BEGIN ATOM
M  V30 1 C 2.150638 2.867749 5.512171 0
M  V30 2 C 2.094611 1.386766 5.720062 0
M  V30 3 O 1.247880 0.734910 4.821704 0
M  V30 4 C 1.377478 0.722266 3.442847 0
M  V30 5 C 2.420269 1.394043 2.849317 0
M  V30 6 C 2.589675 1.409168 1.482159 0
M  V30 7 C 3.699760 2.125688 0.866662 0
M  V30 8 N 3.705317 3.475975 1.061620 0
M  V30 9 N 4.780107 3.982847 0.438162 0
M  V30 10 C 5.425965 2.949083 -0.133268 0
M  V30 11 N 4.767690 1.784060 0.122900 0
M  V30 12 C 4.992017 0.406202 -0.225508 0
M  V30 13 C 1.674697 0.723864 0.709641 0
M  V30 14 C 0.651042 0.067590 1.337582 0
M  V30 15 C 0.426520 0.014194 2.697404 0
M  V30 16 N -0.629788 -0.665032 3.320404 0
M  V30 17 C -1.666606 -1.419208 2.750178 0
M  V30 18 N -2.582470 -1.990259 3.551798 0
M  V30 19 C -3.610981 -2.728919 3.120706 0
M  V30 20 C -3.756747 -2.928172 1.767348 0
M  V30 21 C -4.827298 -3.694352 1.361181 0
M  V30 22 C -4.947924 -3.877461 -0.001603 0
M  V30 23 C -6.060015 -4.687052 -0.605169 0
M  V30 24 N -4.068382 -3.335797 -0.863720 0
M  V30 25 C -3.026060 -2.586647 -0.424945 0
M  V30 26 N -2.115645 -2.028878 -1.363927 0
M  V30 27 C -2.308888 -2.266352 -2.781109 0
M  V30 28 C -1.220490 -1.573059 -3.557743 0
M  V30 29 C -1.373002 -1.789024 -5.051796 0
M  V30 30 C 0.161140 -2.036471 -3.169546 0
M  V30 31 C -1.393621 -0.086752 -3.327187 0
M  V30 32 C -2.839248 -2.359750 0.914918 0
M  V30 33 N -1.841733 -1.635672 1.437093 0
M  V30 34 H 1.543522 3.207706 4.623573 0
M  V30 35 H 1.706108 3.368207 6.420152 0
M  V30 36 H 3.198973 3.236205 5.418662 0
M  V30 37 H 1.723039 1.146026 6.748992 0
M  V30 38 H 3.110336 0.935447 5.569768 0
M  V30 39 H 3.162773 1.941651 3.409761 0
M  V30 40 H 6.332036 2.901038 -0.728798 0
M  V30 41 H 5.665862 0.384610 -1.131675 0
M  V30 42 H 5.549251 -0.168510 0.535489 0
M  V30 43 H 4.066209 -0.074390 -0.548289 0
M  V30 44 H 1.813151 0.739708 -0.358523 0
M  V30 45 H -0.005881 -0.432901 0.671363 0
M  V30 46 H -0.634329 -0.589213 4.383897 0
M  V30 47 H -4.305835 -3.155851 3.815317 0
M  V30 48 H -5.547122 -4.139650 2.037410 0
M  V30 49 H -6.959947 -4.048422 -0.783347 0
M  V30 50 H -5.752575 -5.208608 -1.522642 0
M  V30 51 H -6.393752 -5.479440 0.112529 0
M  V30 52 H -1.311139 -1.451014 -1.041462 0
M  V30 53 H -3.274842 -1.873570 -3.166972 0
M  V30 54 H -2.259927 -3.366724 -2.962494 0
M  V30 55 H -0.729859 -1.061987 -5.556694 0
M  V30 56 H -2.435796 -1.681410 -5.353379 0
M  V30 57 H -0.984087 -2.812311 -5.257783 0
M  V30 58 H 0.875745 -1.213579 -3.310869 0
M  V30 59 H 0.439886 -2.878926 -3.835030 0
M  V30 60 H 0.178218 -2.456257 -2.138255 0
M  V30 61 H -2.465742 0.182707 -3.214311 0
M  V30 62 H -0.855840 0.237670 -2.422347 0
M  V30 63 H -0.999809 0.523673 -4.174086 0
M  V30 END ATOM
M  V30 BEGIN BOND
M  V30 1 1 1 2
M  V30 2 1 2 3
M  V30 3 1 3 4
M  V30 4 2 4 5
M  V30 5 1 5 6
M  V30 6 1 6 7
M  V30 7 2 7 8
M  V30 8 1 8 9
M  V30 9 2 9 10
M  V30 10 1 10 11
M  V30 11 1 11 12
M  V30 12 2 6 13
M  V30 13 1 13 14
M  V30 14 2 14 15
M  V30 15 1 15 16
M  V30 16 1 16 17
M  V30 17 2 17 18
M  V30 18 1 18 19
M  V30 19 2 19 20
M  V30 20 1 20 21
M  V30 21 2 21 22
M  V30 22 1 22 23
M  V30 23 1 22 24
M  V30 24 2 24 25
M  V30 25 1 25 26
M  V30 26 1 26 27
M  V30 27 1 27 28
M  V30 28 1 28 29
M  V30 29 1 28 30
M  V30 30 1 28 31
M  V30 31 1 25 32
M  V30 32 2 32 33
M  V30 33 1 15 4
M  V30 34 1 33 17
M  V30 35 1 11 7
M  V30 36 1 32 20
M  V30 37 1 1 34
M  V30 38 1 1 35
M  V30 39 1 1 36
M  V30 40 1 2 37
M  V30 41 1 2 38
M  V30 42 1 5 39
M  V30 43 1 10 40
M  V30 44 1 12 41
M  V30 45 1 12 42
M  V30 46 1 12 43
M  V30 47 1 13 44
M  V30 48 1 14 45
M  V30 49 1 16 46
M  V30 50 1 19 47
M  V30 51 1 21 48
M  V30 52 1 23 49
M  V30 53 1 23 50
M  V30 54 1 23 51
M  V30 55 1 26 52
M  V30 56 1 27 53
M  V30 57 1 27 54
M  V30 58 1 29 55
M  V30 59 1 29 56
M  V30 60 1 29 57
M  V30 61 1 30 58
M  V30 62 1 30 59
M  V30 63 1 30 60
M  V30 64 1 31 61
M  V30 65 1 31 62
M  V30 66 1 31 63
M  V30 END BOND
M  V30 END CTAB
M  END
>  <Dataset>  (587) 
ChEMBL_Kinases

>  <Ligand_Instance>  (587) 
nan

>  <PDB_ID>  (587) 
nan

>  <Standardized_SMILES>  (587) 
CCOc1cc(-c2nncn2C)ccc1Nc1ncc2cc(C)nc(NCC(C)(C)C)c2n1

>  <Name>  (587) 
nan

>  <Pocket>  (587) 
nan

>  <ATP_Site>  (587) 
nan

>  <Peripheral>  (587) 
nan

>  <Num_H_Atoms_ProtBoundConf>  (587) 
nan

>  <Num_Resolved_Atoms>  (587) 
nan

>  <Num_Not_Resolved_Atoms>  (587) 
nan

$$$$
CHEMBL4062168
     RDKit          3D

  0  0  0  0  0  0  0  0  0  0999 V3000
M  V30 BEGIN CTAB
M  V30 COUNTS 73 77 0 0 0
M  V30 BEGIN ATOM
M  V30 1 C 7.216656 -3.544110 -1.361209 0
M  V30 2 O 7.017960 -2.433107 -0.493744 0
M  V30 3 C 5.936043 -1.576458 -0.651227 0
M  V30 4 O 5.177459 -1.908334 -1.622190 0
M  V30 5 C 5.601140 -0.387666 0.152631 0
M  V30 6 C 6.416434 -0.000637 1.204208 0
M  V30 7 C 6.087111 1.118144 1.950710 0
M  V30 8 C 4.942058 1.861936 1.659641 0
M  V30 9 C 4.152459 1.452001 0.607709 0
M  V30 10 C 4.465382 0.333188 -0.153894 0
M  V30 11 C 3.006314 2.354363 0.521047 0
M  V30 12 C 2.051789 2.388600 -0.392029 0
M  V30 13 N 0.931712 3.311572 -0.393976 0
M  V30 14 C -0.108376 2.417771 0.053417 0
M  V30 15 C -1.220600 2.288145 -0.750250 0
M  V30 16 C -2.216601 1.409183 -0.402383 0
M  V30 17 C -2.235783 0.607479 0.699147 0
M  V30 18 N -3.051488 -0.440446 1.184205 0
M  V30 19 C -3.049206 -0.761726 2.576353 0
M  V30 20 C -3.933919 -1.266186 0.454532 0
M  V30 21 O -3.513161 -0.485820 -0.405503 0
M  V30 22 C -4.850297 -2.126827 -0.293398 0
M  V30 23 N -5.408398 -3.138246 0.540263 0
M  V30 24 C -6.208183 -4.096047 -0.225972 0
M  V30 25 C -6.528442 -5.220234 0.736324 0
M  V30 26 N -6.053829 -4.971939 2.063332 0
M  V30 27 C -4.660715 -5.309913 2.180309 0
M  V30 28 C -6.335746 -3.702044 2.632443 0
M  V30 29 C -6.287826 -2.614378 1.564927 0
M  V30 30 C -1.100621 0.750496 1.517129 0
M  V30 31 C -0.072887 1.642924 1.178419 0
M  V30 32 C 2.094782 1.588901 -1.610459 0
M  V30 33 C 1.366269 0.588299 -2.212678 0
M  V30 34 C 1.673271 0.144756 -3.463112 0
M  V30 35 C 2.715000 0.649213 -4.212071 0
M  V30 36 C 3.474643 1.655118 -3.648395 0
M  V30 37 C 3.170901 2.120480 -2.363812 0
M  V30 38 C 3.131344 3.359593 1.598877 0
M  V30 39 O 2.309678 4.283657 1.804091 0
M  V30 40 N 4.337908 3.000774 2.256244 0
M  V30 41 H 8.303336 -3.699107 -1.452145 0
M  V30 42 H 6.726787 -3.369333 -2.338300 0
M  V30 43 H 6.777250 -4.459799 -0.925012 0
M  V30 44 H 7.316636 -0.566872 1.451611 0
M  V30 45 H 6.730486 1.420896 2.778303 0
M  V30 46 H 3.884652 -0.058989 -0.970220 0
M  V30 47 H 0.901988 4.295056 -0.644919 0
M  V30 48 H -1.311088 2.866094 -1.648893 0
M  V30 49 H -3.055001 1.377912 -1.053706 0
M  V30 50 H -3.882575 -1.362234 2.949370 0
M  V30 51 H -3.037443 0.159896 3.218538 0
M  V30 52 H -2.126911 -1.355232 2.863857 0
M  V30 53 H -4.407270 -2.557463 -1.227381 0
M  V30 54 H -5.712792 -1.495642 -0.659752 0
M  V30 55 H -5.677734 -4.500757 -1.089646 0
M  V30 56 H -7.179329 -3.680773 -0.554256 0
M  V30 57 H -6.039289 -6.146986 0.366543 0
M  V30 58 H -7.632694 -5.439807 0.770155 0
M  V30 59 H -4.580557 -6.392814 2.448068 0
M  V30 60 H -4.143064 -5.187184 1.194053 0
M  V30 61 H -4.186428 -4.707755 2.976925 0
M  V30 62 H -7.313259 -3.704102 3.142869 0
M  V30 63 H -5.541780 -3.433113 3.381376 0
M  V30 64 H -5.920749 -1.650482 1.921017 0
M  V30 65 H -7.310333 -2.426035 1.160403 0
M  V30 66 H -0.923984 0.215359 2.436833 0
M  V30 67 H 0.791447 1.741842 1.817265 0
M  V30 68 H 0.600665 0.281343 -1.522181 0
M  V30 69 H 0.978633 -0.654638 -3.773607 0
M  V30 70 H 2.872168 0.220064 -5.192499 0
M  V30 71 H 4.266878 1.997472 -4.289457 0
M  V30 72 H 3.898574 2.912672 -2.122946 0
M  V30 73 H 4.733280 3.512402 3.071199 0
M  V30 END ATOM
M  V30 BEGIN BOND
M  V30 1 1 1 2
M  V30 2 1 2 3
M  V30 3 2 3 4
M  V30 4 1 3 5
M  V30 5 2 5 6
M  V30 6 1 6 7
M  V30 7 2 7 8
M  V30 8 1 8 9
M  V30 9 2 9 10
M  V30 10 1 9 11
M  V30 11 2 11 12
M  V30 12 1 12 13
M  V30 13 1 13 14
M  V30 14 2 14 15
M  V30 15 1 15 16
M  V30 16 2 16 17
M  V30 17 1 17 18
M  V30 18 1 18 19
M  V30 19 1 18 20
M  V30 20 2 20 21
M  V30 21 1 20 22
M  V30 22 1 22 23
M  V30 23 1 23 24
M  V30 24 1 24 25
M  V30 25 1 25 26
M  V30 26 1 26 27
M  V30 27 1 26 28
M  V30 28 1 28 29
M  V30 29 1 17 30
M  V30 30 2 30 31
M  V30 31 1 12 32
M  V30 32 2 32 33
M  V30 33 1 33 34
M  V30 34 2 34 35
M  V30 35 1 35 36
M  V30 36 2 36 37
M  V30 37 1 11 38
M  V30 38 2 38 39
M  V30 39 1 38 40
M  V30 40 1 10 5
M  V30 41 1 31 14
M  V30 42 1 37 32
M  V30 43 1 40 8
M  V30 44 1 29 23
M  V30 45 1 1 41
M  V30 46 1 1 42
M  V30 47 1 1 43
M  V30 48 1 6 44
M  V30 49 1 7 45
M  V30 50 1 10 46
M  V30 51 1 13 47
M  V30 52 1 15 48
M  V30 53 1 16 49
M  V30 54 1 19 50
M  V30 55 1 19 51
M  V30 56 1 19 52
M  V30 57 1 22 53
M  V30 58 1 22 54
M  V30 59 1 24 55
M  V30 60 1 24 56
M  V30 61 1 25 57
M  V30 62 1 25 58
M  V30 63 1 27 59
M  V30 64 1 27 60
M  V30 65 1 27 61
M  V30 66 1 28 62
M  V30 67 1 28 63
M  V30 68 1 29 64
M  V30 69 1 29 65
M  V30 70 1 30 66
M  V30 71 1 31 67
M  V30 72 1 33 68
M  V30 73 1 34 69
M  V30 74 1 35 70
M  V30 75 1 36 71
M  V30 76 1 37 72
M  V30 77 1 40 73
M  V30 END BOND
M  V30 END CTAB
M  END
>  <Dataset>  (588) 
ChEMBL_Kinases

>  <Ligand_Instance>  (588) 
nan

>  <PDB_ID>  (588) 
nan

>  <Standardized_SMILES>  (588) 
COC(=O)c1ccc2c(c1)/C(=C(/Nc1ccc(N(C)C(=O)CN3CCN(C)CC3)cc1)c1ccccc1)C(=O)N2

>  <Name>  (588) 
nan

>  <Pocket>  (588) 
nan

>  <ATP_Site>  (588) 
nan

>  <Peripheral>  (588) 
nan

>  <Num_H_Atoms_ProtBoundConf>  (588) 
nan

>  <Num_Resolved_Atoms>  (588) 
nan

>  <Num_Not_Resolved_Atoms>  (588) 
nan

$$$$
CHEMBL66923
     RDKit          3D

  0  0  0  0  0  0  0  0  0  0999 V3000
M  V30 BEGIN CTAB
M  V30 COUNTS 64 67 0 0 0
M  V30 BEGIN ATOM
M  V30 1 C 3.568327 -0.081572 5.659789 0
M  V30 2 O 4.148873 0.862810 4.795060 0
M  V30 3 C 3.481473 1.536581 3.798559 0
M  V30 4 O 2.560950 0.841641 4.261774 0
M  V30 5 C 4.073043 2.512268 2.901966 0
M  V30 6 C 5.370300 2.818056 3.233371 0
M  V30 7 C 5.911332 3.834268 2.486934 0
M  V30 8 C 5.217157 4.482517 1.502008 0
M  V30 9 C 3.901945 4.120237 1.215284 0
M  V30 10 O 3.298852 4.857635 0.187057 0
M  V30 11 C 3.289181 3.091366 1.935059 0
M  V30 12 C 1.928987 2.823565 1.591070 0
M  V30 13 O 1.370067 3.885170 1.134527 0
M  V30 14 C 0.934270 1.788491 1.562454 0
M  V30 15 C -0.400949 2.116683 1.591218 0
M  V30 16 O -0.868814 3.430125 1.719921 0
M  V30 17 C -1.383359 1.127952 1.490831 0
M  V30 18 C -1.023543 -0.190051 1.361096 0
M  V30 19 C -2.106289 -1.156443 1.264634 0
M  V30 20 O -3.308506 -0.788936 1.299706 0
M  V30 21 O -1.793911 -2.510383 1.131321 0
M  V30 22 C -2.888100 -3.385812 1.043838 0 CFG=2
M  V30 23 C -2.776026 -4.489471 2.095434 0
M  V30 24 C -3.863849 -5.443261 1.603641 0
M  V30 25 C -3.940052 -5.231421 0.086469 0
M  V30 26 C -2.851384 -4.222407 -0.214471 0 CFG=1
M  V30 27 N -3.064822 -3.468674 -1.408242 0
M  V30 28 C -2.108209 -3.537355 -2.462399 0
M  V30 29 O -1.099934 -4.282534 -2.271479 0
M  V30 30 C -2.295575 -2.784321 -3.687197 0
M  V30 31 C -3.355723 -1.953019 -3.980514 0
M  V30 32 C -3.423183 -1.282151 -5.195094 0
M  V30 33 C -2.417644 -1.432708 -6.151415 0
M  V30 34 O -2.428630 -0.792647 -7.376452 0
M  V30 35 C -1.342464 -2.256402 -5.891469 0
M  V30 36 C -1.312669 -2.904197 -4.674808 0
M  V30 37 C 0.286817 -0.580536 1.324451 0
M  V30 38 C 1.206441 0.438965 1.426935 0
M  V30 39 O 2.513964 -0.075556 1.366818 0
M  V30 40 H 3.234403 -0.978697 5.099171 0
M  V30 41 H 4.383411 -0.374543 6.393169 0
M  V30 42 H 2.790638 0.367468 6.307279 0
M  V30 43 H 5.935133 2.320602 4.005108 0
M  V30 44 H 6.925554 4.158117 2.659738 0
M  V30 45 H 5.695145 5.275640 0.950166 0
M  V30 46 H 2.812283 5.695310 0.428572 0
M  V30 47 H -1.684443 3.796084 1.286964 0
M  V30 48 H -2.424217 1.414832 1.516790 0
M  V30 49 H -3.852072 -2.877506 1.093069 0
M  V30 50 H -2.999915 -4.086924 3.087301 0
M  V30 51 H -1.764087 -4.926832 1.983746 0
M  V30 52 H -3.596758 -6.472475 1.856119 0
M  V30 53 H -4.803382 -5.088420 2.096434 0
M  V30 54 H -4.953726 -4.800852 -0.146957 0
M  V30 55 H -3.806867 -6.187695 -0.440757 0
M  V30 56 H -1.894314 -4.805979 -0.272863 0
M  V30 57 H -3.927369 -2.882078 -1.473094 0
M  V30 58 H -4.112075 -1.856509 -3.228797 0
M  V30 59 H -4.247790 -0.635173 -5.423978 0
M  V30 60 H -1.809018 0.012225 -7.531254 0
M  V30 61 H -0.535327 -2.407575 -6.600404 0
M  V30 62 H -0.462336 -3.546705 -4.486515 0
M  V30 63 H 0.482836 -1.616117 1.222107 0
M  V30 64 H 2.816415 -0.800054 1.994920 0
M  V30 END ATOM
M  V30 BEGIN BOND
M  V30 1 1 1 2
M  V30 2 1 2 3
M  V30 3 2 3 4
M  V30 4 1 3 5
M  V30 5 2 5 6
M  V30 6 1 6 7
M  V30 7 2 7 8
M  V30 8 1 8 9
M  V30 9 1 9 10
M  V30 10 2 9 11
M  V30 11 1 11 12
M  V30 12 2 12 13
M  V30 13 1 12 14
M  V30 14 2 14 15
M  V30 15 1 15 16
M  V30 16 1 15 17
M  V30 17 2 17 18
M  V30 18 1 18 19
M  V30 19 2 19 20
M  V30 20 1 19 21
M  V30 21 1 21 22
M  V30 22 1 22 23
M  V30 23 1 23 24
M  V30 24 1 24 25
M  V30 25 1 25 26
M  V30 26 1 26 27
M  V30 27 1 27 28
M  V30 28 2 28 29
M  V30 29 1 28 30
M  V30 30 2 30 31
M  V30 31 1 31 32
M  V30 32 2 32 33
M  V30 33 1 33 34
M  V30 34 1 33 35
M  V30 35 2 35 36
M  V30 36 1 18 37
M  V30 37 2 37 38
M  V30 38 1 38 39
M  V30 39 1 11 5
M  V30 40 1 38 14
M  V30 41 1 26 22
M  V30 42 1 36 30
M  V30 43 1 1 40
M  V30 44 1 1 41
M  V30 45 1 1 42
M  V30 46 1 6 43
M  V30 47 1 7 44
M  V30 48 1 8 45
M  V30 49 1 10 46
M  V30 50 1 16 47
M  V30 51 1 17 48
M  V30 52 1 22 49 CFG=1
M  V30 53 1 23 50
M  V30 54 1 23 51
M  V30 55 1 24 52
M  V30 56 1 24 53
M  V30 57 1 25 54
M  V30 58 1 25 55
M  V30 59 1 26 56 CFG=3
M  V30 60 1 27 57
M  V30 61 1 31 58
M  V30 62 1 32 59
M  V30 63 1 34 60
M  V30 64 1 35 61
M  V30 65 1 36 62
M  V30 66 1 37 63
M  V30 67 1 39 64
M  V30 END BOND
M  V30 END CTAB
M  END
>  <Dataset>  (589) 
ChEMBL_Kinases

>  <Ligand_Instance>  (589) 
nan

>  <PDB_ID>  (589) 
nan

>  <Standardized_SMILES>  (589) 
COC(=O)c1cccc(O)c1C(=O)c1c(O)cc(C(=O)O[C@@H]2CCC[C@H]2NC(=O)c2ccc(O)cc2)cc1O

>  <Name>  (589) 
nan

>  <Pocket>  (589) 
nan

>  <ATP_Site>  (589) 
nan

>  <Peripheral>  (589) 
nan

>  <Num_H_Atoms_ProtBoundConf>  (589) 
nan

>  <Num_Resolved_Atoms>  (589) 
nan

>  <Num_Not_Resolved_Atoms>  (589) 
nan

$$$$
CHEMBL4637800
     RDKit          3D

  0  0  0  0  0  0  0  0  0  0999 V3000
M  V30 BEGIN CTAB
M  V30 COUNTS 50 54 0 0 0
M  V30 BEGIN ATOM
M  V30 1 C 8.401138 -0.399928 1.488813 0
M  V30 2 C 6.950247 -0.642959 1.275509 0
M  V30 3 C 6.331626 -1.692411 1.893605 0
M  V30 4 C 4.986454 -1.927881 1.703457 0
M  V30 5 C 4.299942 -1.056788 0.863308 0
M  V30 6 N 3.005769 -1.009796 0.475319 0
M  V30 7 C 2.752807 0.001892 -0.352045 0
M  V30 8 C 1.477083 0.359278 -0.967678 0
M  V30 9 C 0.403457 -0.372495 -0.711747 0
M  V30 10 C -0.894817 -0.024180 -1.326723 0
M  V30 11 O -0.929430 0.961812 -2.075283 0
M  V30 12 C -2.034006 -0.900617 -0.980226 0
M  V30 13 C -2.854728 -0.663262 0.099986 0
M  V30 14 C -2.616467 0.480116 0.945532 0
M  V30 15 C -1.826820 0.567632 2.073269 0
M  V30 16 C -1.698374 1.737168 2.779308 0
M  V30 17 C -2.396613 2.858173 2.324212 0
M  V30 18 C -3.203492 2.838647 1.203485 0
M  V30 19 C -3.292092 1.627743 0.533638 0
M  V30 20 C -3.898508 -1.529092 0.357329 0
M  V30 21 C -4.756290 -1.349797 1.420549 0
M  V30 22 C -5.790641 -2.251763 1.633527 0
M  V30 23 Cl -6.876807 -2.019851 2.984505 0
M  V30 24 C -5.917001 -3.305122 0.757764 0
M  V30 25 C -5.061153 -3.507064 -0.325096 0
M  V30 26 C -4.039463 -2.602408 -0.522341 0
M  V30 27 N -3.245846 -2.844143 -1.578557 0
M  V30 28 C -2.230200 -1.983468 -1.811580 0
M  V30 29 O -1.489366 -2.227110 -2.814744 0
M  V30 30 N 3.925303 0.635634 -0.507537 0
M  V30 31 C 4.888684 0.015989 0.219576 0
M  V30 32 C 6.254086 0.209086 0.447009 0
M  V30 33 H 8.492370 0.628269 1.941449 0
M  V30 34 H 8.906566 -0.375731 0.507357 0
M  V30 35 H 8.858415 -1.166537 2.127198 0
M  V30 36 H 6.870583 -2.376140 2.553081 0
M  V30 37 H 4.500089 -2.757853 2.193075 0
M  V30 38 H 2.310960 -1.715942 0.815296 0
M  V30 39 H 1.434281 1.223211 -1.626982 0
M  V30 40 H 0.529426 -1.216878 -0.044437 0
M  V30 41 H -1.331655 -0.357476 2.337143 0
M  V30 42 H -1.071400 1.768141 3.657293 0
M  V30 43 H -2.317650 3.803720 2.860748 0
M  V30 44 H -3.726079 3.716846 0.880602 0
M  V30 45 H -3.943704 1.665186 -0.347355 0
M  V30 46 H -4.582900 -0.501104 2.051743 0
M  V30 47 H -6.728092 -3.985694 0.950309 0
M  V30 48 H -5.267060 -4.373930 -0.939844 0
M  V30 49 H -3.394128 -3.655183 -2.199838 0
M  V30 50 H 6.737021 1.052625 -0.053714 0
M  V30 END ATOM
M  V30 BEGIN BOND
M  V30 1 1 1 2
M  V30 2 2 2 3
M  V30 3 1 3 4
M  V30 4 2 4 5
M  V30 5 1 5 6
M  V30 6 1 6 7
M  V30 7 1 7 8
M  V30 8 2 8 9
M  V30 9 1 9 10
M  V30 10 2 10 11
M  V30 11 1 10 12
M  V30 12 2 12 13
M  V30 13 1 13 14
M  V30 14 2 14 15
M  V30 15 1 15 16
M  V30 16 2 16 17
M  V30 17 1 17 18
M  V30 18 2 18 19
M  V30 19 1 13 20
M  V30 20 2 20 21
M  V30 21 1 21 22
M  V30 22 1 22 23
M  V30 23 2 22 24
M  V30 24 1 24 25
M  V30 25 2 25 26
M  V30 26 1 26 27
M  V30 27 1 27 28
M  V30 28 2 28 29
M  V30 29 2 7 30
M  V30 30 1 30 31
M  V30 31 2 31 32
M  V30 32 1 32 2
M  V30 33 1 31 5
M  V30 34 1 28 12
M  V30 35 1 19 14
M  V30 36 1 26 20
M  V30 37 1 1 33
M  V30 38 1 1 34
M  V30 39 1 1 35
M  V30 40 1 3 36
M  V30 41 1 4 37
M  V30 42 1 6 38
M  V30 43 1 8 39
M  V30 44 1 9 40
M  V30 45 1 15 41
M  V30 46 1 16 42
M  V30 47 1 17 43
M  V30 48 1 18 44
M  V30 49 1 19 45
M  V30 50 1 21 46
M  V30 51 1 24 47
M  V30 52 1 25 48
M  V30 53 1 27 49
M  V30 54 1 32 50
M  V30 END BOND
M  V30 END CTAB
M  END
>  <Dataset>  (590) 
ChEMBL_Kinases

>  <Ligand_Instance>  (590) 
nan

>  <PDB_ID>  (590) 
nan

>  <Standardized_SMILES>  (590) 
Cc1ccc2[nH]c(/C=C/C(=O)c3c(-c4ccccc4)c4cc(Cl)ccc4[nH]c3=O)nc2c1

>  <Name>  (590) 
nan

>  <Pocket>  (590) 
nan

>  <ATP_Site>  (590) 
nan

>  <Peripheral>  (590) 
nan

>  <Num_H_Atoms_ProtBoundConf>  (590) 
nan

>  <Num_Resolved_Atoms>  (590) 
nan

>  <Num_Not_Resolved_Atoms>  (590) 
nan

$$$$
CHEMBL173348
     RDKit          3D

  0  0  0  0  0  0  0  0  0  0999 V3000
M  V30 BEGIN CTAB
M  V30 COUNTS 76 78 0 0 0
M  V30 BEGIN ATOM
M  V30 1 C 5.390799 -1.196378 4.649530 0
M  V30 2 C 5.520354 -2.122448 3.451943 0
M  V30 3 C 6.641754 -1.634991 2.539795 0
M  V30 4 C 6.766456 -2.554769 1.355797 0
M  V30 5 C 5.494939 -2.612975 0.541135 0
M  V30 6 C 5.098013 -1.275277 -0.002501 0
M  V30 7 C 3.810404 -1.327067 -0.829343 0
M  V30 8 C 3.534176 0.086629 -1.310223 0
M  V30 9 C 2.282305 0.161372 -2.140006 0
M  V30 10 C 1.974341 1.559417 -2.638223 0
M  V30 11 C 1.787155 2.519035 -1.468945 0
M  V30 12 C 0.685366 2.099442 -0.604729 0
M  V30 13 O -0.158065 1.167733 -0.559700 0
M  V30 14 O -0.132820 2.235658 0.489783 0
M  V30 15 C -1.127092 1.285415 0.692703 0
M  V30 16 C -0.785496 0.165336 1.442818 0
M  V30 17 C -1.762473 -0.787149 1.653278 0
M  V30 18 C -3.027685 -0.613016 1.127908 0
M  V30 19 C -3.410724 0.480351 0.378774 0
M  V30 20 C -2.401275 1.403068 0.196201 0
M  V30 21 C -4.816758 0.330252 -0.010775 0 CFG=1
M  V30 22 C -5.551075 1.509493 0.665424 0
M  V30 23 C -5.097126 0.407439 -1.480054 0
M  V30 24 C -4.646839 1.792256 -1.966763 0
M  V30 25 C -4.501356 -0.677732 -2.310734 0
M  V30 26 C -5.298241 -0.898181 0.677731 0 CFG=1
M  V30 27 C -5.909231 -1.912028 -0.215663 0
M  V30 28 O -7.076872 -1.605501 -0.635198 0
M  V30 29 N -4.992897 -2.986061 -0.364229 0
M  V30 30 C -3.857425 -2.787971 0.480997 0 CFG=2
M  V30 31 C -3.533533 -4.016661 1.310377 0
M  V30 32 O -3.269239 -5.048102 0.409618 0
M  V30 33 C -4.143542 -1.589859 1.311591 0 CFG=1
M  V30 34 H 6.379707 -1.012754 5.112221 0
M  V30 35 H 4.760914 -1.718237 5.394216 0
M  V30 36 H 4.909534 -0.248958 4.396990 0
M  V30 37 H 4.550529 -2.184711 2.949548 0
M  V30 38 H 5.780715 -3.125138 3.844484 0
M  V30 39 H 6.472367 -0.581012 2.258987 0
M  V30 40 H 7.551889 -1.665971 3.141055 0
M  V30 41 H 7.008591 -3.557037 1.734097 0
M  V30 42 H 7.572693 -2.190310 0.693164 0
M  V30 43 H 5.725811 -3.329095 -0.301649 0
M  V30 44 H 4.723924 -3.112020 1.141481 0
M  V30 45 H 5.905960 -0.947085 -0.694257 0
M  V30 46 H 5.030136 -0.535977 0.794297 0
M  V30 47 H 3.927842 -1.983442 -1.702024 0
M  V30 48 H 3.045791 -1.738641 -0.173598 0
M  V30 49 H 4.392210 0.360201 -1.948748 0
M  V30 50 H 3.429598 0.757229 -0.432232 0
M  V30 51 H 1.462103 -0.224093 -1.506223 0
M  V30 52 H 2.370412 -0.561457 -2.974832 0
M  V30 53 H 1.054466 1.470997 -3.251893 0
M  V30 54 H 2.790536 1.896121 -3.296293 0
M  V30 55 H 2.736510 2.605726 -0.940109 0
M  V30 56 H 1.611485 3.528790 -1.942076 0
M  V30 57 H 0.200138 0.058246 1.835897 0
M  V30 58 H -1.446881 -1.637390 2.241549 0
M  V30 59 H -2.565679 2.290786 -0.360118 0
M  V30 60 H -6.424370 1.804424 0.051706 0
M  V30 61 H -4.846558 2.345979 0.839761 0
M  V30 62 H -5.929088 1.215788 1.666109 0
M  V30 63 H -6.197869 0.386676 -1.603868 0
M  V30 64 H -3.649392 1.778860 -2.423951 0
M  V30 65 H -5.330315 2.125923 -2.805576 0
M  V30 66 H -4.787181 2.561892 -1.185166 0
M  V30 67 H -5.243915 -1.421933 -2.659169 0
M  V30 68 H -3.586043 -1.134501 -1.909813 0
M  V30 69 H -4.162205 -0.176615 -3.269990 0
M  V30 70 H -6.011832 -0.656351 1.529729 0
M  V30 71 H -5.240997 -3.740790 -1.027769 0
M  V30 72 H -2.948538 -2.635056 -0.165151 0
M  V30 73 H -2.595757 -3.869216 1.880417 0
M  V30 74 H -4.348209 -4.226018 2.008945 0
M  V30 75 H -3.034369 -4.690292 -0.479723 0
M  V30 76 H -4.298360 -1.820096 2.388711 0
M  V30 END ATOM
M  V30 BEGIN BOND
M  V30 1 1 1 2
M  V30 2 1 2 3
M  V30 3 1 3 4
M  V30 4 1 4 5
M  V30 5 1 5 6
M  V30 6 1 6 7
M  V30 7 1 7 8
M  V30 8 1 8 9
M  V30 9 1 9 10
M  V30 10 1 10 11
M  V30 11 1 11 12
M  V30 12 2 12 13
M  V30 13 1 12 14
M  V30 14 1 14 15
M  V30 15 2 15 16
M  V30 16 1 16 17
M  V30 17 2 17 18
M  V30 18 1 18 19
M  V30 19 2 19 20
M  V30 20 1 19 21
M  V30 21 1 21 22 CFG=1
M  V30 22 1 21 23
M  V30 23 1 23 24
M  V30 24 1 23 25
M  V30 25 1 21 26
M  V30 26 1 26 27
M  V30 27 2 27 28
M  V30 28 1 27 29
M  V30 29 1 29 30
M  V30 30 1 30 31
M  V30 31 1 31 32
M  V30 32 1 30 33
M  V30 33 1 20 15
M  V30 34 1 33 26
M  V30 35 1 33 18
M  V30 36 1 1 34
M  V30 37 1 1 35
M  V30 38 1 1 36
M  V30 39 1 2 37
M  V30 40 1 2 38
M  V30 41 1 3 39
M  V30 42 1 3 40
M  V30 43 1 4 41
M  V30 44 1 4 42
M  V30 45 1 5 43
M  V30 46 1 5 44
M  V30 47 1 6 45
M  V30 48 1 6 46
M  V30 49 1 7 47
M  V30 50 1 7 48
M  V30 51 1 8 49
M  V30 52 1 8 50
M  V30 53 1 9 51
M  V30 54 1 9 52
M  V30 55 1 10 53
M  V30 56 1 10 54
M  V30 57 1 11 55
M  V30 58 1 11 56
M  V30 59 1 16 57
M  V30 60 1 17 58
M  V30 61 1 20 59
M  V30 62 1 22 60
M  V30 63 1 22 61
M  V30 64 1 22 62
M  V30 65 1 23 63
M  V30 66 1 24 64
M  V30 67 1 24 65
M  V30 68 1 24 66
M  V30 69 1 25 67
M  V30 70 1 25 68
M  V30 71 1 25 69
M  V30 72 1 26 70 CFG=1
M  V30 73 1 29 71
M  V30 74 1 30 72 CFG=3
M  V30 75 1 31 73
M  V30 76 1 31 74
M  V30 77 1 32 75
M  V30 78 1 33 76 CFG=1
M  V30 END BOND
M  V30 END CTAB
M  END
>  <Dataset>  (591) 
ChEMBL_Kinases

>  <Ligand_Instance>  (591) 
nan

>  <PDB_ID>  (591) 
nan

>  <Standardized_SMILES>  (591) 
CCCCCCCCCCCC(=O)Oc1ccc2c(c1)[C@@](C)(C(C)C)[C@H]1C(=O)N[C@H](CO)[C@@H]21

>  <Name>  (591) 
nan

>  <Pocket>  (591) 
nan

>  <ATP_Site>  (591) 
nan

>  <Peripheral>  (591) 
nan

>  <Num_H_Atoms_ProtBoundConf>  (591) 
nan

>  <Num_Resolved_Atoms>  (591) 
nan

>  <Num_Not_Resolved_Atoms>  (591) 
nan

$$$$
CHEMBL3393601
     RDKit          3D

  0  0  0  0  0  0  0  0  0  0999 V3000
M  V30 BEGIN CTAB
M  V30 COUNTS 28 31 0 0 0
M  V30 BEGIN ATOM
M  V30 1 O -0.398793 -4.298960 1.380087 0
M  V30 2 N 0.883143 -3.787139 1.477332 0
M  V30 3 C 1.091500 -2.547918 1.253266 0
M  V30 4 C 2.336261 -1.788067 1.293151 0
M  V30 5 C 3.600170 -2.293839 1.598681 0
M  V30 6 C 4.698323 -1.441384 1.596089 0
M  V30 7 C 4.506472 -0.103787 1.288110 0
M  V30 8 C 3.245035 0.372114 0.989171 0
M  V30 9 C 2.137724 -0.457473 0.985560 0
M  V30 10 C 0.708974 -0.317168 0.729699 0
M  V30 11 N 0.000517 0.775659 0.390509 0
M  V30 12 C -1.347700 0.714434 0.189238 0
M  V30 13 C -1.949306 1.907145 -0.153721 0
M  V30 14 C -3.332168 1.853227 -0.362006 0
M  V30 15 C -3.979173 0.643195 -0.213618 0
M  V30 16 C -3.337972 -0.528899 0.131346 0
M  V30 17 C -1.963865 -0.510560 0.345622 0
M  V30 18 N -1.255333 -1.602735 0.684690 0
M  V30 19 C 0.083375 -1.546935 0.885577 0
M  V30 20 H -1.147450 -4.059706 1.993866 0
M  V30 21 H 3.762940 -3.338058 1.841174 0
M  V30 22 H 5.712907 -1.744500 1.820003 0
M  V30 23 H 5.264612 0.668905 1.248111 0
M  V30 24 H 3.011194 1.404484 0.737853 0
M  V30 25 H -1.378468 2.814665 -0.251431 0
M  V30 26 H -3.820283 2.779312 -0.631618 0
M  V30 27 H -5.063626 0.634255 -0.383879 0
M  V30 28 H -3.863406 -1.453255 0.239747 0
M  V30 END ATOM
M  V30 BEGIN BOND
M  V30 1 1 1 2
M  V30 2 2 2 3
M  V30 3 1 3 4
M  V30 4 2 4 5
M  V30 5 1 5 6
M  V30 6 2 6 7
M  V30 7 1 7 8
M  V30 8 2 8 9
M  V30 9 1 9 10
M  V30 10 2 10 11
M  V30 11 1 11 12
M  V30 12 2 12 13
M  V30 13 1 13 14
M  V30 14 2 14 15
M  V30 15 1 15 16
M  V30 16 2 16 17
M  V30 17 1 17 18
M  V30 18 2 18 19
M  V30 19 1 19 3
M  V30 20 1 9 4
M  V30 21 1 19 10
M  V30 22 1 17 12
M  V30 23 1 1 20
M  V30 24 1 5 21
M  V30 25 1 6 22
M  V30 26 1 7 23
M  V30 27 1 8 24
M  V30 28 1 13 25
M  V30 29 1 14 26
M  V30 30 1 15 27
M  V30 31 1 16 28
M  V30 END BOND
M  V30 END CTAB
M  END
>  <Dataset>  (592) 
ChEMBL_Kinases

>  <Ligand_Instance>  (592) 
nan

>  <PDB_ID>  (592) 
nan

>  <Standardized_SMILES>  (592) 
O/N=C1/c2ccccc2-c2nc3ccccc3nc21

>  <Name>  (592) 
nan

>  <Pocket>  (592) 
nan

>  <ATP_Site>  (592) 
nan

>  <Peripheral>  (592) 
nan

>  <Num_H_Atoms_ProtBoundConf>  (592) 
nan

>  <Num_Resolved_Atoms>  (592) 
nan

>  <Num_Not_Resolved_Atoms>  (592) 
nan

$$$$
CHEMBL5087577
     RDKit          3D

  0  0  0  0  0  0  0  0  0  0999 V3000
M  V30 BEGIN CTAB
M  V30 COUNTS 53 57 0 0 0
M  V30 BEGIN ATOM
M  V30 1 C 1.109910 -0.701510 5.360165 0
M  V30 2 N 1.832187 -1.512954 4.400047 0
M  V30 3 C 3.225420 -1.256273 4.529225 0
M  V30 4 C 3.540809 0.112279 4.042214 0
M  V30 5 N 2.688185 0.458126 2.954651 0
M  V30 6 C 3.327418 0.848726 1.752645 0
M  V30 7 C 2.703657 2.005736 1.033607 0
M  V30 8 N 1.351576 1.809451 0.590610 0
M  V30 9 C 0.716862 0.962673 -0.358075 0
M  V30 10 N 0.698016 1.598024 -1.543972 0
M  V30 11 C 0.168178 1.079783 -2.659131 0
M  V30 12 C -0.403576 -0.168917 -2.652997 0
M  V30 13 C -0.382239 -0.816153 -1.436205 0
M  V30 14 C -0.927336 -2.138652 -1.150617 0
M  V30 15 C -2.298712 -2.193800 -1.133578 0
M  V30 16 C -3.444948 -1.321213 -1.311029 0
M  V30 17 C -4.264081 -1.117989 -0.188922 0
M  V30 18 C -5.394005 -0.331074 -0.143935 0
M  V30 19 C -5.715668 0.298716 -1.334607 0
M  V30 20 C -4.959832 0.147103 -2.475364 0
M  V30 21 O -5.309931 0.792178 -3.651269 0
M  V30 22 C -3.841887 -0.657345 -2.443298 0
M  V30 23 N -2.640805 -3.466609 -0.863338 0
M  V30 24 C -1.511264 -4.196597 -0.713696 0
M  V30 25 S -0.674745 -5.819914 -0.374350 0
M  V30 26 C 1.075649 -5.104169 -0.532859 0
M  V30 27 C 0.825378 -3.714942 -0.825010 0
M  V30 28 N -0.458852 -3.371225 -0.892274 0
M  V30 29 N 0.158261 -0.257774 -0.352024 0
M  V30 30 S 1.526336 -0.797158 2.825759 0
M  V30 31 O 0.112051 -0.302072 2.769662 0
M  V30 32 O 1.849379 -1.807326 1.771721 0
M  V30 33 H 1.747349 -0.192842 6.089631 0
M  V30 34 H 0.467947 0.079636 4.872673 0
M  V30 35 H 0.353370 -1.380047 5.852504 0
M  V30 36 H 3.796974 -2.068036 4.076107 0
M  V30 37 H 3.457384 -1.261280 5.633053 0
M  V30 38 H 3.525220 0.868392 4.872031 0
M  V30 39 H 4.591299 0.114423 3.674114 0
M  V30 40 H 3.405910 0.005879 1.014410 0
M  V30 41 H 4.370950 1.147611 1.989353 0
M  V30 42 H 3.371123 2.248184 0.169751 0
M  V30 43 H 2.665811 2.880904 1.746904 0
M  V30 44 H 0.526423 2.358427 0.980023 0
M  V30 45 H 0.140828 1.575426 -3.635339 0
M  V30 46 H -0.855574 -0.693375 -3.470439 0
M  V30 47 H -3.997305 -1.624553 0.752474 0
M  V30 48 H -5.955322 -0.241750 0.774099 0
M  V30 49 H -6.613596 0.923868 -1.297390 0
M  V30 50 H -4.620022 0.928746 -4.376979 0
M  V30 51 H -3.233364 -0.801701 -3.303363 0
M  V30 52 H 1.985224 -5.713652 -0.407532 0
M  V30 53 H 1.774046 -3.227369 -0.932236 0
M  V30 END ATOM
M  V30 BEGIN BOND
M  V30 1 1 1 2
M  V30 2 1 2 3
M  V30 3 1 3 4
M  V30 4 1 4 5
M  V30 5 1 5 6
M  V30 6 1 6 7
M  V30 7 1 7 8
M  V30 8 1 8 9
M  V30 9 2 9 10
M  V30 10 1 10 11
M  V30 11 2 11 12
M  V30 12 1 12 13
M  V30 13 1 13 14
M  V30 14 2 14 15
M  V30 15 1 15 16
M  V30 16 2 16 17
M  V30 17 1 17 18
M  V30 18 2 18 19
M  V30 19 1 19 20
M  V30 20 1 20 21
M  V30 21 2 20 22
M  V30 22 1 15 23
M  V30 23 2 23 24
M  V30 24 1 24 25
M  V30 25 1 25 26
M  V30 26 2 26 27
M  V30 27 1 27 28
M  V30 28 2 13 29
M  V30 29 1 5 30
M  V30 30 2 30 31
M  V30 31 2 30 32
M  V30 32 1 30 2
M  V30 33 1 29 9
M  V30 34 1 28 14
M  V30 35 1 22 16
M  V30 36 1 28 24
M  V30 37 1 1 33
M  V30 38 1 1 34
M  V30 39 1 1 35
M  V30 40 1 3 36
M  V30 41 1 3 37
M  V30 42 1 4 38
M  V30 43 1 4 39
M  V30 44 1 6 40
M  V30 45 1 6 41
M  V30 46 1 7 42
M  V30 47 1 7 43
M  V30 48 1 8 44
M  V30 49 1 11 45
M  V30 50 1 12 46
M  V30 51 1 17 47
M  V30 52 1 18 48
M  V30 53 1 19 49
M  V30 54 1 21 50
M  V30 55 1 22 51
M  V30 56 1 26 52
M  V30 57 1 27 53
M  V30 END BOND
M  V30 END CTAB
M  END
>  <Dataset>  (593) 
ChEMBL_Kinases

>  <Ligand_Instance>  (593) 
nan

>  <PDB_ID>  (593) 
nan

>  <Standardized_SMILES>  (593) 
CN1CCN(CCNc2nccc(-c3c(-c4cccc(O)c4)nc4sccn34)n2)S1(=O)=O

>  <Name>  (593) 
nan

>  <Pocket>  (593) 
nan

>  <ATP_Site>  (593) 
nan

>  <Peripheral>  (593) 
nan

>  <Num_H_Atoms_ProtBoundConf>  (593) 
nan

>  <Num_Resolved_Atoms>  (593) 
nan

>  <Num_Not_Resolved_Atoms>  (593) 
nan

$$$$
CHEMBL4637319
     RDKit          3D

  0  0  0  0  0  0  0  0  0  0999 V3000
M  V30 BEGIN CTAB
M  V30 COUNTS 40 43 0 0 0
M  V30 BEGIN ATOM
M  V30 1 C -0.503028 -5.769439 0.234950 0
M  V30 2 C 0.244738 -4.485567 0.431479 0
M  V30 3 C 1.103881 -4.359118 1.483927 0
M  V30 4 C 1.834780 -3.225651 1.748675 0
M  V30 5 C 1.644788 -2.174497 0.851780 0
M  V30 6 C 0.793599 -2.234215 -0.229833 0
M  V30 7 N 0.604419 -1.149162 -1.130734 0
M  V30 8 C -0.303142 -1.264778 -2.247738 0
M  V30 9 C 1.302061 0.080295 -0.970990 0
M  V30 10 N 2.409080 0.528639 -1.622718 0
M  V30 11 C 2.909382 1.746190 -1.287981 0
M  V30 12 C 2.285503 2.482080 -0.307399 0
M  V30 13 C 1.152895 2.039359 0.369643 0
M  V30 14 C 0.533423 2.847393 1.415751 0
M  V30 15 C 0.844109 4.104121 1.888350 0
M  V30 16 N -0.027696 4.389439 2.873126 0
M  V30 17 N -0.867721 3.386582 3.047608 0
M  V30 18 N -1.880644 3.264254 3.922316 0
M  V30 19 C -2.633932 2.131267 3.942079 0
M  V30 20 C -2.397051 1.080483 3.083827 0
M  V30 21 C -1.343758 1.294866 2.227683 0
M  V30 22 C -0.541282 2.407711 2.150110 0
M  V30 23 N 0.732724 0.824693 -0.030679 0
M  V30 24 C 0.089518 -3.410534 -0.433432 0
M  V30 25 H -1.040944 -6.000962 1.197799 0
M  V30 26 H -1.288554 -5.659204 -0.531990 0
M  V30 27 H 0.187731 -6.618353 0.085653 0
M  V30 28 H 1.264118 -5.170655 2.194218 0
M  V30 29 H 2.529636 -3.033135 2.556693 0
M  V30 30 H 2.159974 -1.233537 0.947338 0
M  V30 31 H -0.162547 -2.237247 -2.779684 0
M  V30 32 H -1.351872 -1.226652 -1.871602 0
M  V30 33 H -0.166875 -0.449982 -2.984659 0
M  V30 34 H 3.794754 2.070340 -1.831950 0
M  V30 35 H 2.715756 3.453017 -0.065958 0
M  V30 36 H 1.676263 4.637500 1.438864 0
M  V30 37 H -3.468431 2.006066 4.649964 0
M  V30 38 H -2.942080 0.148509 3.032524 0
M  V30 39 H -1.087377 0.504174 1.505776 0
M  V30 40 H -0.602721 -3.572731 -1.246955 0
M  V30 END ATOM
M  V30 BEGIN BOND
M  V30 1 1 1 2
M  V30 2 2 2 3
M  V30 3 1 3 4
M  V30 4 2 4 5
M  V30 5 1 5 6
M  V30 6 1 6 7
M  V30 7 1 7 8
M  V30 8 1 7 9
M  V30 9 2 9 10
M  V30 10 1 10 11
M  V30 11 2 11 12
M  V30 12 1 12 13
M  V30 13 1 13 14
M  V30 14 1 14 15
M  V30 15 2 15 16
M  V30 16 1 16 17
M  V30 17 1 17 18
M  V30 18 2 18 19
M  V30 19 1 19 20
M  V30 20 2 20 21
M  V30 21 1 21 22
M  V30 22 2 13 23
M  V30 23 2 6 24
M  V30 24 1 24 2
M  V30 25 1 23 9
M  V30 26 2 22 14
M  V30 27 1 22 17
M  V30 28 1 1 25
M  V30 29 1 1 26
M  V30 30 1 1 27
M  V30 31 1 3 28
M  V30 32 1 4 29
M  V30 33 1 5 30
M  V30 34 1 8 31
M  V30 35 1 8 32
M  V30 36 1 8 33
M  V30 37 1 11 34
M  V30 38 1 12 35
M  V30 39 1 15 36
M  V30 40 1 19 37
M  V30 41 1 20 38
M  V30 42 1 21 39
M  V30 43 1 24 40
M  V30 END BOND
M  V30 END CTAB
M  END
>  <Dataset>  (594) 
ChEMBL_Kinases

>  <Ligand_Instance>  (594) 
nan

>  <PDB_ID>  (594) 
nan

>  <Standardized_SMILES>  (594) 
Cc1cccc(N(C)c2nccc(-c3cnn4ncccc34)n2)c1

>  <Name>  (594) 
nan

>  <Pocket>  (594) 
nan

>  <ATP_Site>  (594) 
nan

>  <Peripheral>  (594) 
nan

>  <Num_H_Atoms_ProtBoundConf>  (594) 
nan

>  <Num_Resolved_Atoms>  (594) 
nan

>  <Num_Not_Resolved_Atoms>  (594) 
nan

$$$$
CHEMBL4566796
     RDKit          3D

  0  0  0  0  0  0  0  0  0  0999 V3000
M  V30 BEGIN CTAB
M  V30 COUNTS 69 73 0 0 0
M  V30 BEGIN ATOM
M  V30 1 C 5.340829 -4.817237 4.504475 0
M  V30 2 O 4.192968 -5.595180 4.459041 0
M  V30 3 C 3.238686 -5.032359 5.284822 0
M  V30 4 C 2.847615 -3.676134 4.839916 0
M  V30 5 C 2.938915 -3.151538 3.567753 0
M  V30 6 C 2.521372 -1.868796 3.309547 0
M  V30 7 C 2.616502 -1.303087 1.970644 0
M  V30 8 C 3.108414 -1.960520 0.862238 0
M  V30 9 C 3.184014 -1.384333 -0.388578 0
M  V30 10 C 2.741690 -0.083671 -0.523573 0
M  V30 11 N 2.710649 0.705632 -1.636591 0
M  V30 12 C 2.189853 1.915472 -1.276174 0
M  V30 13 N 1.881011 3.164270 -1.881981 0
M  V30 14 C 0.628796 3.458724 -2.482408 0
M  V30 15 C -0.345860 2.489649 -2.492954 0
M  V30 16 C -1.586873 2.650020 -3.034359 0
M  V30 17 C -2.740247 1.743361 -3.155958 0 CFG=1
M  V30 18 C -2.679428 1.059531 -4.523874 0
M  V30 19 N -3.025311 0.885951 -2.079040 0
M  V30 20 C -2.298394 -0.322566 -1.974989 0
M  V30 21 C -2.115175 -0.587830 -0.470012 0
M  V30 22 N -3.468032 -0.752393 0.035558 0
M  V30 23 C -3.825537 -1.834895 0.870951 0
M  V30 24 O -2.694145 -2.377050 0.908870 0
M  V30 25 C -4.215215 -2.960117 1.744568 0
M  V30 26 C -3.071254 -3.907041 2.039379 0
M  V30 27 F -2.540506 -4.487716 0.905045 0
M  V30 28 F -2.084214 -3.273112 2.740942 0
M  V30 29 F -3.609098 -4.932186 2.789649 0
M  V30 30 C -4.504395 0.201397 -0.310547 0
M  V30 31 C -4.392453 0.700924 -1.737160 0
M  V30 32 C -1.731435 3.937524 -3.577447 0
M  V30 33 C -0.798898 4.943747 -3.597336 0
M  V30 34 N 0.388681 4.662160 -3.030999 0
M  V30 35 N 1.906832 1.852185 0.058660 0
M  V30 36 C 2.237938 0.631930 0.543379 0
M  V30 37 C 2.191451 -0.006993 1.766280 0
M  V30 38 N 2.014731 -1.126643 4.337979 0
M  V30 39 C 1.923303 -1.634130 5.580445 0
M  V30 40 N 2.337390 -2.891873 5.814022 0
M  V30 41 H 6.123078 -5.253033 3.833719 0
M  V30 42 H 5.218653 -3.765703 4.245722 0
M  V30 43 H 5.715638 -4.813754 5.573376 0
M  V30 44 H 3.739619 -4.942683 6.293685 0
M  V30 45 H 2.368062 -5.692478 5.455255 0
M  V30 46 H 3.343924 -3.806007 2.812619 0
M  V30 47 H 3.446535 -2.960124 0.974372 0
M  V30 48 H 3.569763 -1.910116 -1.242008 0
M  V30 49 H 2.615778 3.903439 -1.884942 0
M  V30 50 H -0.143634 1.538302 -2.047328 0
M  V30 51 H -3.690284 2.410075 -3.279555 0
M  V30 52 H -1.830530 0.377473 -4.606869 0
M  V30 53 H -3.595531 0.459886 -4.692840 0
M  V30 54 H -2.684067 1.841769 -5.308839 0
M  V30 55 H -1.356919 -0.365759 -2.507990 0
M  V30 56 H -3.003433 -1.146889 -2.297459 0
M  V30 57 H -1.528059 -1.508143 -0.320741 0
M  V30 58 H -1.645279 0.327646 -0.060946 0
M  V30 59 H -4.534947 -2.545497 2.713145 0
M  V30 60 H -5.072846 -3.532317 1.331003 0
M  V30 61 H -5.479030 -0.323511 -0.253519 0
M  V30 62 H -4.569902 1.045106 0.414606 0
M  V30 63 H -4.915213 -0.021066 -2.416866 0
M  V30 64 H -5.008598 1.624562 -1.789040 0
M  V30 65 H -2.690627 4.207859 -4.051465 0
M  V30 66 H -1.005447 5.903170 -4.039785 0
M  V30 67 H 1.500039 2.532251 0.757846 0
M  V30 68 H 1.798854 0.540151 2.614687 0
M  V30 69 H 1.508071 -0.965463 6.324297 0
M  V30 END ATOM
M  V30 BEGIN BOND
M  V30 1 1 1 2
M  V30 2 1 2 3
M  V30 3 1 3 4
M  V30 4 2 4 5
M  V30 5 1 5 6
M  V30 6 1 6 7
M  V30 7 2 7 8
M  V30 8 1 8 9
M  V30 9 2 9 10
M  V30 10 1 10 11
M  V30 11 2 11 12
M  V30 12 1 12 13
M  V30 13 1 13 14
M  V30 14 2 14 15
M  V30 15 1 15 16
M  V30 16 1 16 17
M  V30 17 1 17 18
M  V30 18 1 17 19
M  V30 19 1 19 20
M  V30 20 1 20 21
M  V30 21 1 21 22
M  V30 22 1 22 23
M  V30 23 2 23 24
M  V30 24 1 23 25
M  V30 25 1 25 26
M  V30 26 1 26 27
M  V30 27 1 26 28
M  V30 28 1 26 29
M  V30 29 1 22 30
M  V30 30 1 30 31
M  V30 31 2 16 32
M  V30 32 1 32 33
M  V30 33 2 33 34
M  V30 34 1 12 35
M  V30 35 1 35 36
M  V30 36 2 36 37
M  V30 37 2 6 38
M  V30 38 1 38 39
M  V30 39 2 39 40
M  V30 40 1 40 4
M  V30 41 1 37 7
M  V30 42 1 36 10
M  V30 43 1 34 14
M  V30 44 1 31 19
M  V30 45 1 1 41
M  V30 46 1 1 42
M  V30 47 1 1 43
M  V30 48 1 3 44
M  V30 49 1 3 45
M  V30 50 1 5 46
M  V30 51 1 8 47
M  V30 52 1 9 48
M  V30 53 1 13 49
M  V30 54 1 15 50
M  V30 55 1 17 51 CFG=3
M  V30 56 1 18 52
M  V30 57 1 18 53
M  V30 58 1 18 54
M  V30 59 1 20 55
M  V30 60 1 20 56
M  V30 61 1 21 57
M  V30 62 1 21 58
M  V30 63 1 25 59
M  V30 64 1 25 60
M  V30 65 1 30 61
M  V30 66 1 30 62
M  V30 67 1 31 63
M  V30 68 1 31 64
M  V30 69 1 32 65
M  V30 70 1 33 66
M  V30 71 1 35 67
M  V30 72 1 37 68
M  V30 73 1 39 69
M  V30 END BOND
M  V30 END CTAB
M  END
>  <Dataset>  (595) 
ChEMBL_Kinases

>  <Ligand_Instance>  (595) 
nan

>  <PDB_ID>  (595) 
nan

>  <Standardized_SMILES>  (595) 
COCc1cc(-c2ccc3nc(Nc4cc([C@@H](C)N5CCN(C(=O)CC(F)(F)F)CC5)ccn4)[nH]c3c2)ncn1

>  <Name>  (595) 
nan

>  <Pocket>  (595) 
nan

>  <ATP_Site>  (595) 
nan

>  <Peripheral>  (595) 
nan

>  <Num_H_Atoms_ProtBoundConf>  (595) 
nan

>  <Num_Resolved_Atoms>  (595) 
nan

>  <Num_Not_Resolved_Atoms>  (595) 
nan

$$$$
CHEMBL1802841
     RDKit          3D

  0  0  0  0  0  0  0  0  0  0999 V3000
M  V30 BEGIN CTAB
M  V30 COUNTS 32 34 0 0 0
M  V30 BEGIN ATOM
M  V30 1 C -2.971811 -1.567539 2.785299 0
M  V30 2 N -2.703779 -2.657211 1.835376 0
M  V30 3 C -1.438026 -2.648220 1.147954 0
M  V30 4 N -0.750771 -1.614860 0.820592 0
M  V30 5 C 0.436345 -1.964830 0.160020 0
M  V30 6 C 1.435310 -1.265645 -0.351185 0
M  V30 7 C 1.371529 0.188440 -0.251241 0
M  V30 8 C 0.202472 0.912493 -0.362247 0
M  V30 9 C 0.089778 2.276125 -0.276863 0
M  V30 10 C 1.289947 2.957692 -0.057076 0
M  V30 11 C 2.498964 2.295841 0.064110 0
M  V30 12 C 2.552045 0.905256 -0.031623 0
M  V30 13 O 3.490831 3.251089 0.274737 0
M  V30 14 C 2.832243 4.465079 0.607537 0
M  V30 15 O 1.528523 4.325237 0.078414 0
M  V30 16 C 0.435827 -3.435488 0.094707 0
M  V30 17 O 1.287687 -4.212896 -0.402655 0
M  V30 18 N -0.770434 -3.841202 0.732093 0
M  V30 19 C -1.181784 -5.219576 0.894030 0
M  V30 20 H -2.505855 -1.803942 3.780706 0
M  V30 21 H -2.477953 -0.664749 2.345574 0
M  V30 22 H -4.050503 -1.425671 2.922360 0
M  V30 23 H -3.368403 -3.454440 1.612279 0
M  V30 24 H 2.291744 -1.750824 -0.838287 0
M  V30 25 H -0.729317 0.371027 -0.533485 0
M  V30 26 H -0.870103 2.766748 -0.375092 0
M  V30 27 H 3.513283 0.423570 0.068871 0
M  V30 28 H 3.356230 5.343355 0.163909 0
M  V30 29 H 2.782966 4.560427 1.720345 0
M  V30 30 H -0.782822 -5.667396 1.831874 0
M  V30 31 H -0.801178 -5.865876 0.074299 0
M  V30 32 H -2.295099 -5.326311 0.872044 0
M  V30 END ATOM
M  V30 BEGIN BOND
M  V30 1 1 1 2
M  V30 2 1 2 3
M  V30 3 2 3 4
M  V30 4 1 4 5
M  V30 5 2 5 6
M  V30 6 1 6 7
M  V30 7 2 7 8
M  V30 8 1 8 9
M  V30 9 2 9 10
M  V30 10 1 10 11
M  V30 11 2 11 12
M  V30 12 1 11 13
M  V30 13 1 13 14
M  V30 14 1 14 15
M  V30 15 1 5 16
M  V30 16 2 16 17
M  V30 17 1 16 18
M  V30 18 1 18 19
M  V30 19 1 18 3
M  V30 20 1 12 7
M  V30 21 1 15 10
M  V30 22 1 1 20
M  V30 23 1 1 21
M  V30 24 1 1 22
M  V30 25 1 2 23
M  V30 26 1 6 24
M  V30 27 1 8 25
M  V30 28 1 9 26
M  V30 29 1 12 27
M  V30 30 1 14 28
M  V30 31 1 14 29
M  V30 32 1 19 30
M  V30 33 1 19 31
M  V30 34 1 19 32
M  V30 END BOND
M  V30 END CTAB
M  END
>  <Dataset>  (596) 
ChEMBL_Kinases

>  <Ligand_Instance>  (596) 
nan

>  <PDB_ID>  (596) 
nan

>  <Standardized_SMILES>  (596) 
CNC1=N/C(=C\c2ccc3c(c2)OCO3)C(=O)N1C

>  <Name>  (596) 
nan

>  <Pocket>  (596) 
nan

>  <ATP_Site>  (596) 
nan

>  <Peripheral>  (596) 
nan

>  <Num_H_Atoms_ProtBoundConf>  (596) 
nan

>  <Num_Resolved_Atoms>  (596) 
nan

>  <Num_Not_Resolved_Atoms>  (596) 
nan

$$$$
CHEMBL133342
     RDKit          3D

  0  0  0  0  0  0  0  0  0  0999 V3000
M  V30 BEGIN CTAB
M  V30 COUNTS 52 54 0 0 0
M  V30 BEGIN ATOM
M  V30 1 C 2.843133 -5.040261 0.777275 0
M  V30 2 C 3.611704 -3.778827 0.485705 0
M  V30 3 C 2.681053 -2.587525 0.416436 0 CFG=1
M  V30 4 C 3.505909 -1.322441 0.122872 0
M  V30 5 O 4.470060 -1.107675 1.102756 0
M  V30 6 N 1.730817 -2.659971 -0.683722 0
M  V30 7 C 0.728225 -1.587492 -0.519888 0
M  V30 8 N 0.675437 -0.263129 -0.668436 0
M  V30 9 C -0.408191 0.628390 -0.473442 0
M  V30 10 N 0.428675 1.678332 -0.834014 0
M  V30 11 C -0.180319 2.993852 -0.645541 0
M  V30 12 C -0.303649 3.358168 0.804873 0
M  V30 13 C 0.939539 3.883958 1.198679 0
M  V30 14 C 1.085522 4.314992 2.532395 0
M  V30 15 C 0.046503 4.225655 3.428687 0
M  V30 16 C -1.144449 3.709315 3.009430 0
M  V30 17 C -1.327770 3.277780 1.713385 0
M  V30 18 C -1.199014 -0.364236 -0.132684 0
M  V30 19 N -2.356470 0.420156 0.080866 0
M  V30 20 C -3.363301 -0.384899 0.452626 0
M  V30 21 N -2.812978 -1.602920 0.456234 0
M  V30 22 C -3.481072 -2.832096 0.785083 0
M  V30 23 C -4.684198 -2.898303 -0.166619 0
M  V30 24 C -2.614503 -4.035746 0.654544 0
M  V30 25 C -1.529537 -1.631712 0.114304 0
M  V30 26 N -0.392508 -2.290525 -0.120249 0
M  V30 27 H 3.039745 -5.797404 -0.035356 0
M  V30 28 H 3.141157 -5.494805 1.746634 0
M  V30 29 H 1.744642 -4.904116 0.811936 0
M  V30 30 H 4.270383 -3.575352 1.382202 0
M  V30 31 H 4.245618 -3.848695 -0.420646 0
M  V30 32 H 2.207087 -2.447507 1.399574 0
M  V30 33 H 2.875588 -0.426288 0.055024 0
M  V30 34 H 4.005388 -1.466844 -0.879270 0
M  V30 35 H 5.257404 -0.638055 0.707864 0
M  V30 36 H 1.665278 -3.293195 -1.483135 0
M  V30 37 H 1.344655 1.915202 -1.195724 0
M  V30 38 H 0.304418 3.747311 -1.250845 0
M  V30 39 H -1.241632 2.936127 -1.040372 0
M  V30 40 H 1.859814 4.033737 0.646397 0
M  V30 41 H 1.995776 4.737873 2.944124 0
M  V30 42 H 0.134384 4.556906 4.464221 0
M  V30 43 H -2.023789 3.598386 3.649303 0
M  V30 44 H -2.210100 2.870658 1.260758 0
M  V30 45 H -4.396850 -0.137798 0.701309 0
M  V30 46 H -3.858213 -2.800351 1.836642 0
M  V30 47 H -5.230264 -3.834385 -0.106629 0
M  V30 48 H -5.302915 -2.001524 0.067125 0
M  V30 49 H -4.235372 -2.699134 -1.180662 0
M  V30 50 H -1.903216 -4.018511 1.494786 0
M  V30 51 H -3.220342 -4.959255 0.804008 0
M  V30 52 H -2.052924 -4.052363 -0.287135 0
M  V30 END ATOM
M  V30 BEGIN BOND
M  V30 1 1 1 2
M  V30 2 1 2 3
M  V30 3 1 3 4
M  V30 4 1 4 5
M  V30 5 1 3 6
M  V30 6 1 6 7
M  V30 7 2 7 8
M  V30 8 1 8 9
M  V30 9 1 9 10
M  V30 10 1 10 11
M  V30 11 1 11 12
M  V30 12 2 12 13
M  V30 13 1 13 14
M  V30 14 2 14 15
M  V30 15 1 15 16
M  V30 16 2 16 17
M  V30 17 2 9 18
M  V30 18 1 18 19
M  V30 19 2 19 20
M  V30 20 1 20 21
M  V30 21 1 21 22
M  V30 22 1 22 23
M  V30 23 1 22 24
M  V30 24 1 21 25
M  V30 25 2 25 26
M  V30 26 1 26 7
M  V30 27 1 17 12
M  V30 28 1 25 18
M  V30 29 1 1 27
M  V30 30 1 1 28
M  V30 31 1 1 29
M  V30 32 1 2 30
M  V30 33 1 2 31
M  V30 34 1 3 32 CFG=1
M  V30 35 1 4 33
M  V30 36 1 4 34
M  V30 37 1 5 35
M  V30 38 1 6 36
M  V30 39 1 10 37
M  V30 40 1 11 38
M  V30 41 1 11 39
M  V30 42 1 13 40
M  V30 43 1 14 41
M  V30 44 1 15 42
M  V30 45 1 16 43
M  V30 46 1 17 44
M  V30 47 1 20 45
M  V30 48 1 22 46
M  V30 49 1 23 47
M  V30 50 1 23 48
M  V30 51 1 23 49
M  V30 52 1 24 50
M  V30 53 1 24 51
M  V30 54 1 24 52
M  V30 END BOND
M  V30 END CTAB
M  END
>  <Dataset>  (597) 
ChEMBL_Kinases

>  <Ligand_Instance>  (597) 
nan

>  <PDB_ID>  (597) 
nan

>  <Standardized_SMILES>  (597) 
CC[C@@H](CO)Nc1nc(NCc2ccccc2)c2ncn(C(C)C)c2n1

>  <Name>  (597) 
(S)-ROSCOVITINE

>  <Pocket>  (597) 
nan

>  <ATP_Site>  (597) 
nan

>  <Peripheral>  (597) 
nan

>  <Num_H_Atoms_ProtBoundConf>  (597) 
nan

>  <Num_Resolved_Atoms>  (597) 
nan

>  <Num_Not_Resolved_Atoms>  (597) 
nan

$$$$
CHEMBL1882945
     RDKit          3D

  0  0  0  0  0  0  0  0  0  0999 V3000
M  V30 BEGIN CTAB
M  V30 COUNTS 38 41 0 0 0
M  V30 BEGIN ATOM
M  V30 1 Cl 0.513828 -6.779799 3.305870 0
M  V30 2 C 0.662111 -5.531254 2.096058 0
M  V30 3 C -0.287165 -5.346466 1.108103 0
M  V30 4 C -0.170754 -4.359226 0.150807 0
M  V30 5 C 0.918788 -3.506415 0.147556 0
M  V30 6 C 1.173681 -2.420609 -0.799591 0
M  V30 7 N 0.638810 -1.137835 -0.428132 0
M  V30 8 C 0.832964 -0.019610 -1.282037 0
M  V30 9 N 1.526770 -0.154130 -2.415863 0
M  V30 10 C 1.751316 0.888038 -3.251382 0
M  V30 11 N 1.255806 2.116119 -2.930102 0
M  V30 12 C 0.553867 2.231090 -1.774513 0
M  V30 13 C 0.304323 1.193314 -0.898671 0
M  V30 14 C -0.481542 1.457522 0.298525 0
M  V30 15 C -1.582674 0.818337 0.828209 0
M  V30 16 C -2.137680 1.274045 2.004836 0
M  V30 17 C -1.627795 2.359878 2.682500 0
M  V30 18 C -0.526440 3.014371 2.169702 0
M  V30 19 C 0.032686 2.561083 0.991489 0
M  V30 20 O -0.277569 4.037992 3.077089 0
M  V30 21 C -0.878668 3.705860 4.339950 0
M  V30 22 O -2.015930 2.984205 3.862611 0
M  V30 23 C 1.852810 -3.718067 1.151487 0
M  V30 24 C 1.770406 -4.703210 2.134872 0
M  V30 25 H -1.139750 -5.993368 1.088790 0
M  V30 26 H -0.892479 -4.179152 -0.642615 0
M  V30 27 H 2.267268 -2.294653 -0.923413 0
M  V30 28 H 0.775419 -2.691076 -1.802775 0
M  V30 29 H 0.138721 -1.156238 0.483077 0
M  V30 30 H 2.315975 0.729692 -4.153105 0
M  V30 31 H 0.206310 3.248181 -1.616283 0
M  V30 32 H -1.904254 -0.011836 0.216699 0
M  V30 33 H -2.989512 0.717046 2.342056 0
M  V30 34 H 0.896929 3.167597 0.697572 0
M  V30 35 H -0.162741 2.981637 4.793891 0
M  V30 36 H -1.120384 4.571379 4.944347 0
M  V30 37 H 2.736098 -3.081111 1.206926 0
M  V30 38 H 2.545169 -4.794464 2.877640 0
M  V30 END ATOM
M  V30 BEGIN BOND
M  V30 1 1 1 2
M  V30 2 2 2 3
M  V30 3 1 3 4
M  V30 4 2 4 5
M  V30 5 1 5 6
M  V30 6 1 6 7
M  V30 7 1 7 8
M  V30 8 2 8 9
M  V30 9 1 9 10
M  V30 10 2 10 11
M  V30 11 1 11 12
M  V30 12 2 12 13
M  V30 13 1 13 14
M  V30 14 2 14 15
M  V30 15 1 15 16
M  V30 16 2 16 17
M  V30 17 1 17 18
M  V30 18 2 18 19
M  V30 19 1 18 20
M  V30 20 1 20 21
M  V30 21 1 21 22
M  V30 22 1 5 23
M  V30 23 2 23 24
M  V30 24 1 24 2
M  V30 25 1 13 8
M  V30 26 1 19 14
M  V30 27 1 22 17
M  V30 28 1 3 25
M  V30 29 1 4 26
M  V30 30 1 6 27
M  V30 31 1 6 28
M  V30 32 1 7 29
M  V30 33 1 10 30
M  V30 34 1 12 31
M  V30 35 1 15 32
M  V30 36 1 16 33
M  V30 37 1 19 34
M  V30 38 1 21 35
M  V30 39 1 21 36
M  V30 40 1 23 37
M  V30 41 1 24 38
M  V30 END BOND
M  V30 END CTAB
M  END
>  <Dataset>  (598) 
ChEMBL_Kinases

>  <Ligand_Instance>  (598) 
nan

>  <PDB_ID>  (598) 
nan

>  <Standardized_SMILES>  (598) 
Clc1ccc(CNc2ncncc2-c2ccc3c(c2)OCO3)cc1

>  <Name>  (598) 
nan

>  <Pocket>  (598) 
nan

>  <ATP_Site>  (598) 
nan

>  <Peripheral>  (598) 
nan

>  <Num_H_Atoms_ProtBoundConf>  (598) 
nan

>  <Num_Resolved_Atoms>  (598) 
nan

>  <Num_Not_Resolved_Atoms>  (598) 
nan

$$$$
CHEMBL4636228
     RDKit          3D

  0  0  0  0  0  0  0  0  0  0999 V3000
M  V30 BEGIN CTAB
M  V30 COUNTS 47 51 0 0 0
M  V30 BEGIN ATOM
M  V30 1 O -0.127880 -0.898166 4.109109 0
M  V30 2 C -0.143791 -0.312682 2.995215 0
M  V30 3 C 0.939120 0.420418 2.349096 0
M  V30 4 C 0.757880 0.979073 1.173508 0
M  V30 5 C 1.896866 1.692232 0.603023 0
M  V30 6 N 3.106775 1.823984 1.176126 0
M  V30 7 C 3.926648 2.538158 0.387044 0
M  V30 8 C 5.230045 2.997151 0.406995 0
M  V30 9 C 5.773635 3.739517 -0.622792 0
M  V30 10 C 5.024062 4.064512 -1.744004 0
M  V30 11 C 3.704321 3.605841 -1.775652 0
M  V30 12 C 3.171745 2.864215 -0.739787 0
M  V30 13 N 1.951039 2.337619 -0.576248 0
M  V30 14 C -1.501533 -0.569994 2.558362 0
M  V30 15 C -1.658594 -1.739911 1.817629 0
M  V30 16 C -0.593339 -2.667894 1.476354 0
M  V30 17 C -0.167634 -3.773879 2.213450 0
M  V30 18 C 0.866487 -4.554277 1.739035 0
M  V30 19 C 1.482409 -4.246400 0.538390 0
M  V30 20 C 1.062132 -3.159356 -0.183559 0
M  V30 21 C 0.017089 -2.352021 0.273654 0
M  V30 22 C -2.953519 -2.023875 1.377683 0
M  V30 23 C -3.174122 -3.179245 0.632631 0
M  V30 24 C -4.410770 -3.550409 0.151988 0
M  V30 25 Br -4.719441 -5.114437 -0.858651 0
M  V30 26 C -5.469380 -2.689226 0.454183 0
M  V30 27 C -5.297191 -1.541212 1.184760 0
M  V30 28 C -4.038076 -1.212740 1.644211 0
M  V30 29 N -3.769139 -0.125745 2.357899 0
M  V30 30 C -2.579877 0.252637 2.833131 0
M  V30 31 O -2.380410 1.295586 3.505774 0
M  V30 32 H 1.835244 0.422397 2.953676 0
M  V30 33 H -0.173259 0.923592 0.645955 0
M  V30 34 H 5.830298 2.757286 1.266449 0
M  V30 35 H 6.801939 4.065531 -0.539025 0
M  V30 36 H 5.484589 4.641116 -2.517839 0
M  V30 37 H 3.123030 3.858782 -2.646863 0
M  V30 38 H 1.169596 2.415223 -1.252964 0
M  V30 39 H -0.712242 -3.929272 3.136254 0
M  V30 40 H 1.104714 -5.383374 2.401239 0
M  V30 41 H 2.286174 -4.902110 0.228049 0
M  V30 42 H 1.619781 -3.014479 -1.111553 0
M  V30 43 H -0.205144 -1.541401 -0.388286 0
M  V30 44 H -2.338721 -3.847986 0.400725 0
M  V30 45 H -6.466344 -2.960468 0.083641 0
M  V30 46 H -6.128739 -0.884608 1.410110 0
M  V30 47 H -4.566385 0.536023 2.593471 0
M  V30 END ATOM
M  V30 BEGIN BOND
M  V30 1 2 1 2
M  V30 2 1 2 3
M  V30 3 2 3 4
M  V30 4 1 4 5
M  V30 5 2 5 6
M  V30 6 1 6 7
M  V30 7 2 7 8
M  V30 8 1 8 9
M  V30 9 2 9 10
M  V30 10 1 10 11
M  V30 11 2 11 12
M  V30 12 1 12 13
M  V30 13 1 2 14
M  V30 14 2 14 15
M  V30 15 1 15 16
M  V30 16 2 16 17
M  V30 17 1 17 18
M  V30 18 2 18 19
M  V30 19 1 19 20
M  V30 20 2 20 21
M  V30 21 1 15 22
M  V30 22 2 22 23
M  V30 23 1 23 24
M  V30 24 1 24 25
M  V30 25 2 24 26
M  V30 26 1 26 27
M  V30 27 2 27 28
M  V30 28 1 28 29
M  V30 29 1 29 30
M  V30 30 2 30 31
M  V30 31 1 13 5
M  V30 32 1 30 14
M  V30 33 1 12 7
M  V30 34 1 21 16
M  V30 35 1 28 22
M  V30 36 1 3 32
M  V30 37 1 4 33
M  V30 38 1 8 34
M  V30 39 1 9 35
M  V30 40 1 10 36
M  V30 41 1 11 37
M  V30 42 1 13 38
M  V30 43 1 17 39
M  V30 44 1 18 40
M  V30 45 1 19 41
M  V30 46 1 20 42
M  V30 47 1 21 43
M  V30 48 1 23 44
M  V30 49 1 26 45
M  V30 50 1 27 46
M  V30 51 1 29 47
M  V30 END BOND
M  V30 END CTAB
M  END
>  <Dataset>  (599) 
ChEMBL_Kinases

>  <Ligand_Instance>  (599) 
nan

>  <PDB_ID>  (599) 
nan

>  <Standardized_SMILES>  (599) 
O=C(/C=C/c1nc2ccccc2[nH]1)c1c(-c2ccccc2)c2cc(Br)ccc2[nH]c1=O

>  <Name>  (599) 
nan

>  <Pocket>  (599) 
nan

>  <ATP_Site>  (599) 
nan

>  <Peripheral>  (599) 
nan

>  <Num_H_Atoms_ProtBoundConf>  (599) 
nan

>  <Num_Resolved_Atoms>  (599) 
nan

>  <Num_Not_Resolved_Atoms>  (599) 
nan

$$$$
CHEMBL1802842
     RDKit          3D

  0  0  0  0  0  0  0  0  0  0999 V3000
M  V30 BEGIN CTAB
M  V30 COUNTS 35 37 0 0 0
M  V30 BEGIN ATOM
M  V30 1 C -1.829820 -3.557232 2.608348 0
M  V30 2 C -1.615000 -3.559628 1.103344 0
M  V30 3 N -2.360468 -2.429206 0.572558 0
M  V30 4 C -2.033286 -1.060716 0.754522 0
M  V30 5 N -0.789085 -0.673919 0.613329 0
M  V30 6 C -0.728632 0.735920 0.843255 0
M  V30 7 C 0.286519 1.555180 0.803342 0
M  V30 8 C 1.645310 1.059960 0.476060 0
M  V30 9 C 2.165958 -0.082456 1.021044 0
M  V30 10 C 3.461227 -0.463846 0.610821 0
M  V30 11 C 4.058268 0.387669 -0.317179 0
M  V30 12 C 3.524647 1.537233 -0.861010 0
M  V30 13 C 2.248375 1.899240 -0.445115 0
M  V30 14 O 4.493660 2.060030 -1.751407 0
M  V30 15 C 5.307773 0.944642 -2.156880 0
M  V30 16 O 5.342326 0.251570 -0.897070 0
M  V30 17 C -2.075630 1.180237 1.142661 0
M  V30 18 O -2.612362 2.285449 1.420645 0
M  V30 19 N -2.912235 0.032236 1.087352 0
M  V30 20 C -4.343828 -0.106104 1.311953 0
M  V30 21 H -1.972032 -2.536817 2.979550 0
M  V30 22 H -1.075130 -4.161067 3.148605 0
M  V30 23 H -2.803058 -4.075058 2.767241 0
M  V30 24 H -0.530573 -3.526755 0.838532 0
M  V30 25 H -2.006118 -4.505202 0.684697 0
M  V30 26 H -3.253066 -2.563535 -0.006743 0
M  V30 27 H 0.137939 2.627219 1.015236 0
M  V30 28 H 1.608905 -0.671027 1.741314 0
M  V30 29 H 3.937189 -1.348283 0.997265 0
M  V30 30 H 1.856011 2.787403 -0.872892 0
M  V30 31 H 4.714637 0.366323 -2.894765 0
M  V30 32 H 6.287250 1.233950 -2.527336 0
M  V30 33 H -4.954810 0.660661 0.843467 0
M  V30 34 H -4.572011 -0.067949 2.407181 0
M  V30 35 H -4.714685 -1.087574 0.967367 0
M  V30 END ATOM
M  V30 BEGIN BOND
M  V30 1 1 1 2
M  V30 2 1 2 3
M  V30 3 1 3 4
M  V30 4 2 4 5
M  V30 5 1 5 6
M  V30 6 2 6 7
M  V30 7 1 7 8
M  V30 8 2 8 9
M  V30 9 1 9 10
M  V30 10 2 10 11
M  V30 11 1 11 12
M  V30 12 2 12 13
M  V30 13 1 12 14
M  V30 14 1 14 15
M  V30 15 1 15 16
M  V30 16 1 6 17
M  V30 17 2 17 18
M  V30 18 1 17 19
M  V30 19 1 19 20
M  V30 20 1 19 4
M  V30 21 1 13 8
M  V30 22 1 16 11
M  V30 23 1 1 21
M  V30 24 1 1 22
M  V30 25 1 1 23
M  V30 26 1 2 24
M  V30 27 1 2 25
M  V30 28 1 3 26
M  V30 29 1 7 27
M  V30 30 1 9 28
M  V30 31 1 10 29
M  V30 32 1 13 30
M  V30 33 1 15 31
M  V30 34 1 15 32
M  V30 35 1 20 33
M  V30 36 1 20 34
M  V30 37 1 20 35
M  V30 END BOND
M  V30 END CTAB
M  END
>  <Dataset>  (600) 
ChEMBL_Kinases

>  <Ligand_Instance>  (600) 
nan

>  <PDB_ID>  (600) 
nan

>  <Standardized_SMILES>  (600) 
CCNC1=N/C(=C\c2ccc3c(c2)OCO3)C(=O)N1C

>  <Name>  (600) 
nan

>  <Pocket>  (600) 
nan

>  <ATP_Site>  (600) 
nan

>  <Peripheral>  (600) 
nan

>  <Num_H_Atoms_ProtBoundConf>  (600) 
nan

>  <Num_Resolved_Atoms>  (600) 
nan

>  <Num_Not_Resolved_Atoms>  (600) 
nan

$$$$
CHEMBL66452
     RDKit          3D

  0  0  0  0  0  0  0  0  0  0999 V3000
M  V30 BEGIN CTAB
M  V30 COUNTS 67 70 0 0 0
M  V30 BEGIN ATOM
M  V30 1 C 4.213788 -1.404460 3.862664 0
M  V30 2 C 3.410918 -0.777504 2.731085 0
M  V30 3 O 4.293608 -0.640903 1.648574 0
M  V30 4 C 4.063817 -0.131583 0.407917 0
M  V30 5 O 2.981637 -0.013961 0.975019 0
M  V30 6 C 5.013733 -0.026536 -0.682080 0
M  V30 7 C 6.295356 -0.355679 -0.283595 0
M  V30 8 C 7.289573 -0.167794 -1.195124 0
M  V30 9 C 6.983686 0.324898 -2.433814 0
M  V30 10 C 5.682690 0.645026 -2.804244 0
M  V30 11 O 5.523227 1.120787 -4.065774 0
M  V30 12 C 4.652448 0.468453 -1.911549 0
M  V30 13 C 3.339756 0.856384 -2.343864 0
M  V30 14 O 3.423078 1.791381 -3.211728 0
M  V30 15 C 1.953551 0.530743 -2.117690 0
M  V30 16 C 0.985003 1.467709 -2.349164 0
M  V30 17 O 1.334144 2.770257 -2.749218 0
M  V30 18 C -0.362760 1.225969 -2.215424 0
M  V30 19 C -0.622647 -0.053703 -1.823606 0
M  V30 20 C -1.991798 -0.472915 -1.633160 0
M  V30 21 O -2.966881 -1.185165 -1.351535 0
M  V30 22 O -3.155587 -1.090312 -1.388793 0
M  V30 23 C -3.536363 -2.300514 -0.905532 0 CFG=2
M  V30 24 C -4.211039 -3.214683 -1.956047 0
M  V30 25 C -4.421561 -4.429261 -1.061666 0
M  V30 26 C -4.545116 -3.899078 0.373322 0
M  V30 27 C -4.600076 -2.384719 0.124278 0 CFG=1
M  V30 28 N -4.593140 -1.608942 1.259944 0
M  V30 29 C -4.999729 -0.779505 2.298188 0
M  V30 30 O -6.255867 -0.589787 2.052951 0
M  V30 31 C -4.385723 -0.160117 3.446608 0
M  V30 32 C -5.312824 0.488129 4.259846 0
M  V30 33 C -4.776451 1.117870 5.387797 0
M  V30 34 C -3.410249 1.109495 5.693393 0
M  V30 35 O -2.997301 1.774081 6.857725 0
M  V30 36 C -2.530491 0.474524 4.887492 0
M  V30 37 C -3.059763 -0.149541 3.773178 0
M  V30 38 C 0.313037 -1.066752 -1.569893 0
M  V30 39 C 1.642281 -0.770184 -1.722787 0
M  V30 40 O 2.487213 -1.821540 -1.464821 0
M  V30 41 H 5.168765 -0.880701 4.000229 0
M  V30 42 H 4.385923 -2.507633 3.684605 0
M  V30 43 H 3.616241 -1.244564 4.782595 0
M  V30 44 H 2.587433 -1.468982 2.418193 0
M  V30 45 H 3.086842 0.206095 3.063695 0
M  V30 46 H 6.556640 -0.751977 0.683007 0
M  V30 47 H 8.304538 -0.407156 -0.949714 0
M  V30 48 H 7.814499 0.454877 -3.108286 0
M  V30 49 H 6.192076 1.261276 -4.776072 0
M  V30 50 H 0.910908 3.515800 -2.188304 0
M  V30 51 H -1.103802 1.968217 -2.396851 0
M  V30 52 H -2.645415 -2.958906 -0.618761 0
M  V30 53 H -5.212054 -2.829462 -2.218076 0
M  V30 54 H -3.511761 -3.359391 -2.766236 0
M  V30 55 H -3.508593 -5.039788 -1.131415 0
M  V30 56 H -5.333663 -5.009221 -1.340181 0
M  V30 57 H -5.418538 -4.273825 0.903260 0
M  V30 58 H -3.620733 -4.085603 0.952248 0
M  V30 59 H -5.601707 -2.282370 -0.432356 0
M  V30 60 H -3.538556 -1.772456 1.484956 0
M  V30 61 H -6.370525 0.558034 4.122908 0
M  V30 62 H -5.471731 1.635032 6.051450 0
M  V30 63 H -2.897222 2.776850 6.786286 0
M  V30 64 H -1.460393 0.435865 5.071744 0
M  V30 65 H -2.399134 -0.685231 3.088924 0
M  V30 66 H -0.027212 -2.066789 -1.260186 0
M  V30 67 H 2.360759 -2.358774 -0.601756 0
M  V30 END ATOM
M  V30 BEGIN BOND
M  V30 1 1 1 2
M  V30 2 1 2 3
M  V30 3 1 3 4
M  V30 4 2 4 5
M  V30 5 1 4 6
M  V30 6 2 6 7
M  V30 7 1 7 8
M  V30 8 2 8 9
M  V30 9 1 9 10
M  V30 10 1 10 11
M  V30 11 2 10 12
M  V30 12 1 12 13
M  V30 13 2 13 14
M  V30 14 1 13 15
M  V30 15 2 15 16
M  V30 16 1 16 17
M  V30 17 1 16 18
M  V30 18 2 18 19
M  V30 19 1 19 20
M  V30 20 2 20 21
M  V30 21 1 20 22
M  V30 22 1 22 23
M  V30 23 1 23 24
M  V30 24 1 24 25
M  V30 25 1 25 26
M  V30 26 1 26 27
M  V30 27 1 27 28
M  V30 28 1 28 29
M  V30 29 2 29 30
M  V30 30 1 29 31
M  V30 31 2 31 32
M  V30 32 1 32 33
M  V30 33 2 33 34
M  V30 34 1 34 35
M  V30 35 1 34 36
M  V30 36 2 36 37
M  V30 37 1 19 38
M  V30 38 2 38 39
M  V30 39 1 39 40
M  V30 40 1 12 6
M  V30 41 1 39 15
M  V30 42 1 27 23
M  V30 43 1 37 31
M  V30 44 1 1 41
M  V30 45 1 1 42
M  V30 46 1 1 43
M  V30 47 1 2 44
M  V30 48 1 2 45
M  V30 49 1 7 46
M  V30 50 1 8 47
M  V30 51 1 9 48
M  V30 52 1 11 49
M  V30 53 1 17 50
M  V30 54 1 18 51
M  V30 55 1 23 52 CFG=1
M  V30 56 1 24 53
M  V30 57 1 24 54
M  V30 58 1 25 55
M  V30 59 1 25 56
M  V30 60 1 26 57
M  V30 61 1 26 58
M  V30 62 1 27 59 CFG=3
M  V30 63 1 28 60
M  V30 64 1 32 61
M  V30 65 1 33 62
M  V30 66 1 35 63
M  V30 67 1 36 64
M  V30 68 1 37 65
M  V30 69 1 38 66
M  V30 70 1 40 67
M  V30 END BOND
M  V30 END CTAB
M  END
>  <Dataset>  (601) 
ChEMBL_Kinases

>  <Ligand_Instance>  (601) 
nan

>  <PDB_ID>  (601) 
nan

>  <Standardized_SMILES>  (601) 
CCOC(=O)c1cccc(O)c1C(=O)c1c(O)cc(C(=O)O[C@@H]2CCC[C@H]2NC(=O)c2ccc(O)cc2)cc1O

>  <Name>  (601) 
nan

>  <Pocket>  (601) 
nan

>  <ATP_Site>  (601) 
nan

>  <Peripheral>  (601) 
nan

>  <Num_H_Atoms_ProtBoundConf>  (601) 
nan

>  <Num_Resolved_Atoms>  (601) 
nan

>  <Num_Not_Resolved_Atoms>  (601) 
nan

$$$$
CHEMBL1898211
     RDKit          3D

  0  0  0  0  0  0  0  0  0  0999 V3000
M  V30 BEGIN CTAB
M  V30 COUNTS 38 41 0 0 0
M  V30 BEGIN ATOM
M  V30 1 Cl -2.741623 -5.158727 2.245975 0
M  V30 2 C -1.247628 -4.551023 1.533476 0
M  V30 3 C -0.549542 -5.209394 0.518287 0
M  V30 4 C 0.616566 -4.638391 0.032264 0
M  V30 5 C 1.086307 -3.431936 0.543817 0
M  V30 6 C 2.346994 -3.026910 -0.129156 0
M  V30 7 N 2.136694 -2.238248 -1.323576 0
M  V30 8 C 1.531937 -0.961345 -1.460320 0
M  V30 9 C 1.396842 -0.387702 -2.725011 0
M  V30 10 C 0.821744 0.848842 -2.892059 0
M  V30 11 N 0.392260 1.490936 -1.797403 0
M  V30 12 C 0.499155 0.982700 -0.559912 0
M  V30 13 C 0.002279 1.759735 0.570435 0
M  V30 14 C -0.579238 2.988908 0.342811 0
M  V30 15 C -1.085223 3.809722 1.326631 0
M  V30 16 C -1.022666 3.407110 2.636912 0
M  V30 17 N -1.411447 3.948943 3.816813 0
M  V30 18 N -1.091646 3.095806 4.785602 0
M  V30 19 C -0.500072 2.000759 4.277665 0
M  V30 20 C -0.448252 2.183724 2.905462 0
M  V30 21 C 0.049045 1.385888 1.896329 0
M  V30 22 N 1.067191 -0.229920 -0.434948 0
M  V30 23 C 0.384288 -2.796716 1.545657 0
M  V30 24 C -0.773036 -3.345803 2.040441 0
M  V30 25 Cl -1.548413 -2.432791 3.299411 0
M  V30 26 H -0.996111 -6.133619 0.193397 0
M  V30 27 H 1.057561 -5.248169 -0.749263 0
M  V30 28 H 2.893063 -2.419381 0.657499 0
M  V30 29 H 3.018492 -3.865859 -0.324155 0
M  V30 30 H 2.487485 -2.685504 -2.224749 0
M  V30 31 H 1.744813 -0.908256 -3.606575 0
M  V30 32 H 0.731693 1.264709 -3.881574 0
M  V30 33 H -0.654044 3.355270 -0.676019 0
M  V30 34 H -1.534306 4.773092 1.081774 0
M  V30 35 H -1.878101 4.881985 3.885464 0
M  V30 36 H -0.122711 1.125741 4.792431 0
M  V30 37 H 0.496872 0.431149 2.124844 0
M  V30 38 H 0.897497 -1.886457 1.813501 0
M  V30 END ATOM
M  V30 BEGIN BOND
M  V30 1 1 1 2
M  V30 2 2 2 3
M  V30 3 1 3 4
M  V30 4 2 4 5
M  V30 5 1 5 6
M  V30 6 1 6 7
M  V30 7 1 7 8
M  V30 8 2 8 9
M  V30 9 1 9 10
M  V30 10 2 10 11
M  V30 11 1 11 12
M  V30 12 1 12 13
M  V30 13 2 13 14
M  V30 14 1 14 15
M  V30 15 2 15 16
M  V30 16 1 16 17
M  V30 17 1 17 18
M  V30 18 2 18 19
M  V30 19 1 19 20
M  V30 20 2 20 21
M  V30 21 2 12 22
M  V30 22 1 5 23
M  V30 23 2 23 24
M  V30 24 1 24 25
M  V30 25 1 24 2
M  V30 26 1 22 8
M  V30 27 1 21 13
M  V30 28 1 20 16
M  V30 29 1 3 26
M  V30 30 1 4 27
M  V30 31 1 6 28
M  V30 32 1 6 29
M  V30 33 1 7 30
M  V30 34 1 9 31
M  V30 35 1 10 32
M  V30 36 1 14 33
M  V30 37 1 15 34
M  V30 38 1 17 35
M  V30 39 1 19 36
M  V30 40 1 21 37
M  V30 41 1 23 38
M  V30 END BOND
M  V30 END CTAB
M  END
>  <Dataset>  (602) 
ChEMBL_Kinases

>  <Ligand_Instance>  (602) 
nan

>  <PDB_ID>  (602) 
nan

>  <Standardized_SMILES>  (602) 
Clc1ccc(CNc2ccnc(-c3ccc4[nH]ncc4c3)n2)cc1Cl

>  <Name>  (602) 
nan

>  <Pocket>  (602) 
nan

>  <ATP_Site>  (602) 
nan

>  <Peripheral>  (602) 
nan

>  <Num_H_Atoms_ProtBoundConf>  (602) 
nan

>  <Num_Resolved_Atoms>  (602) 
nan

>  <Num_Not_Resolved_Atoms>  (602) 
nan

$$$$
CHEMBL66750
     RDKit          3D

  0  0  0  0  0  0  0  0  0  0999 V3000
M  V30 BEGIN CTAB
M  V30 COUNTS 72 75 0 0 0
M  V30 BEGIN ATOM
M  V30 1 C -0.001294 -6.073775 1.459941 0
M  V30 2 C 0.421883 -6.148528 0.004980 0
M  V30 3 C 1.053639 -4.863150 -0.434611 0
M  V30 4 C 1.476576 -4.950649 -1.905003 0
M  V30 5 O 2.047328 -3.726102 -2.196165 0
M  V30 6 C 2.584699 -3.256079 -3.336473 0
M  V30 7 O 2.234163 -4.388098 -3.649550 0
M  V30 8 C 3.228570 -2.177059 -4.033091 0
M  V30 9 C 3.598393 -2.629406 -5.283045 0
M  V30 10 C 4.338669 -1.761412 -6.058508 0
M  V30 11 C 4.685067 -0.517690 -5.604286 0
M  V30 12 C 4.278637 -0.130287 -4.342326 0
M  V30 13 O 4.657398 1.153149 -3.920076 0
M  V30 14 C 3.537617 -0.944264 -3.519661 0
M  V30 15 C 3.202790 -0.504773 -2.213050 0
M  V30 16 O 4.112110 0.305539 -1.799143 0
M  V30 17 C 2.231517 -0.611581 -1.164368 0
M  V30 18 C 2.553358 -0.336863 0.143681 0
M  V30 19 O 3.864705 -0.017339 0.528510 0
M  V30 20 C 1.601559 -0.361491 1.146747 0
M  V30 21 C 0.291984 -0.665622 0.851129 0
M  V30 22 C -0.686120 -0.686291 1.938245 0
M  V30 23 O -0.256725 -0.426227 3.105178 0
M  V30 24 O -1.995405 -0.981757 1.635993 0
M  V30 25 C -3.080841 -1.053525 2.521936 0 CFG=2
M  V30 26 C -3.935910 -2.256409 2.361663 0
M  V30 27 N -5.202566 -1.843111 2.930039 0
M  V30 28 C -5.361241 -0.425475 2.676988 0
M  V30 29 C -4.042927 0.068111 2.105108 0 CFG=1
M  V30 30 N -3.653828 1.278116 2.789158 0
M  V30 31 C -3.395167 2.429082 2.030994 0
M  V30 32 O -3.511783 2.353317 0.779966 0
M  V30 33 C -3.003202 3.678792 2.668410 0
M  V30 34 C -2.859393 3.882590 4.040530 0
M  V30 35 C -2.489108 5.089179 4.574546 0
M  V30 36 C -2.235828 6.181559 3.760903 0
M  V30 37 O -1.860646 7.411825 4.269703 0
M  V30 38 C -2.359288 6.051513 2.379970 0
M  V30 39 C -2.735808 4.807439 1.914408 0
M  V30 40 C -0.073483 -0.946381 -0.448160 0
M  V30 41 C 0.887557 -0.917276 -1.436896 0
M  V30 42 O 0.368721 -1.209152 -2.668464 0
M  V30 43 H 0.567000 -6.791847 2.061793 0
M  V30 44 H 0.220131 -5.051828 1.850719 0
M  V30 45 H -1.077853 -6.248937 1.609926 0
M  V30 46 H 1.124326 -7.006644 -0.099515 0
M  V30 47 H -0.495564 -6.328545 -0.601881 0
M  V30 48 H 0.383948 -3.997924 -0.329306 0
M  V30 49 H 1.930158 -4.655874 0.200561 0
M  V30 50 H 0.635594 -5.273073 -2.536874 0
M  V30 51 H 2.281434 -5.717569 -1.947368 0
M  V30 52 H 3.402134 -3.569410 -5.769975 0
M  V30 53 H 4.693175 -1.985009 -7.055541 0
M  V30 54 H 5.260692 0.165726 -6.193191 0
M  V30 55 H 3.989685 1.832350 -3.590342 0
M  V30 56 H 4.116638 0.966874 0.634031 0
M  V30 57 H 1.913926 -0.133049 2.170996 0
M  V30 58 H -2.863949 -0.863188 3.570922 0
M  V30 59 H -4.103590 -2.547556 1.307593 0
M  V30 60 H -3.527277 -3.096258 2.964115 0
M  V30 61 H -5.111544 -1.953755 3.975507 0
M  V30 62 H -5.571543 0.136771 3.627800 0
M  V30 63 H -6.205249 -0.265442 2.000007 0
M  V30 64 H -4.096337 0.187531 1.015565 0
M  V30 65 H -3.580969 1.243888 3.828702 0
M  V30 66 H -3.061004 3.017380 4.675886 0
M  V30 67 H -2.390755 5.203073 5.632643 0
M  V30 68 H -0.880461 7.669160 4.253681 0
M  V30 69 H -2.179181 6.858893 1.672847 0
M  V30 70 H -2.839044 4.682290 0.830350 0
M  V30 71 H -1.117328 -1.174676 -0.584309 0
M  V30 72 H -0.051297 -2.101921 -2.910561 0
M  V30 END ATOM
M  V30 BEGIN BOND
M  V30 1 1 1 2
M  V30 2 1 2 3
M  V30 3 1 3 4
M  V30 4 1 4 5
M  V30 5 1 5 6
M  V30 6 2 6 7
M  V30 7 1 6 8
M  V30 8 2 8 9
M  V30 9 1 9 10
M  V30 10 2 10 11
M  V30 11 1 11 12
M  V30 12 1 12 13
M  V30 13 2 12 14
M  V30 14 1 14 15
M  V30 15 2 15 16
M  V30 16 1 15 17
M  V30 17 2 17 18
M  V30 18 1 18 19
M  V30 19 1 18 20
M  V30 20 2 20 21
M  V30 21 1 21 22
M  V30 22 2 22 23
M  V30 23 1 22 24
M  V30 24 1 24 25
M  V30 25 1 25 26
M  V30 26 1 26 27
M  V30 27 1 27 28
M  V30 28 1 28 29
M  V30 29 1 29 30
M  V30 30 1 30 31
M  V30 31 2 31 32
M  V30 32 1 31 33
M  V30 33 2 33 34
M  V30 34 1 34 35
M  V30 35 2 35 36
M  V30 36 1 36 37
M  V30 37 1 36 38
M  V30 38 2 38 39
M  V30 39 1 21 40
M  V30 40 2 40 41
M  V30 41 1 41 42
M  V30 42 1 14 8
M  V30 43 1 41 17
M  V30 44 1 29 25
M  V30 45 1 39 33
M  V30 46 1 1 43
M  V30 47 1 1 44
M  V30 48 1 1 45
M  V30 49 1 2 46
M  V30 50 1 2 47
M  V30 51 1 3 48
M  V30 52 1 3 49
M  V30 53 1 4 50
M  V30 54 1 4 51
M  V30 55 1 9 52
M  V30 56 1 10 53
M  V30 57 1 11 54
M  V30 58 1 13 55
M  V30 59 1 19 56
M  V30 60 1 20 57
M  V30 61 1 25 58 CFG=1
M  V30 62 1 26 59
M  V30 63 1 26 60
M  V30 64 1 27 61
M  V30 65 1 28 62
M  V30 66 1 28 63
M  V30 67 1 29 64 CFG=3
M  V30 68 1 30 65
M  V30 69 1 34 66
M  V30 70 1 35 67
M  V30 71 1 37 68
M  V30 72 1 38 69
M  V30 73 1 39 70
M  V30 74 1 40 71
M  V30 75 1 42 72
M  V30 END BOND
M  V30 END CTAB
M  END
>  <Dataset>  (603) 
ChEMBL_Kinases

>  <Ligand_Instance>  (603) 
nan

>  <PDB_ID>  (603) 
nan

>  <Standardized_SMILES>  (603) 
CCCCOC(=O)c1cccc(O)c1C(=O)c1c(O)cc(C(=O)O[C@@H]2CNC[C@H]2NC(=O)c2ccc(O)cc2)cc1O

>  <Name>  (603) 
nan

>  <Pocket>  (603) 
nan

>  <ATP_Site>  (603) 
nan

>  <Peripheral>  (603) 
nan

>  <Num_H_Atoms_ProtBoundConf>  (603) 
nan

>  <Num_Resolved_Atoms>  (603) 
nan

>  <Num_Not_Resolved_Atoms>  (603) 
nan

$$$$
CHEMBL4638124
     RDKit          3D

  0  0  0  0  0  0  0  0  0  0999 V3000
M  V30 BEGIN CTAB
M  V30 COUNTS 47 51 0 0 0
M  V30 BEGIN ATOM
M  V30 1 O -2.129233 1.029134 -1.559388 0
M  V30 2 C -1.533956 0.713014 -0.473245 0
M  V30 3 C -0.175922 1.218845 -0.247713 0
M  V30 4 C 0.489928 0.930139 0.847905 0
M  V30 5 C 1.843456 1.428288 1.083672 0
M  V30 6 N 2.599657 1.182050 2.178704 0
M  V30 7 C 3.796997 1.811454 2.040714 0
M  V30 8 C 4.931088 1.893598 2.854027 0
M  V30 9 C 5.979594 2.645137 2.365240 0
M  V30 10 F 7.066088 2.691675 3.203435 0
M  V30 11 C 6.026299 3.313452 1.177626 0
M  V30 12 C 4.876383 3.210460 0.389178 0
M  V30 13 C 3.790254 2.473398 0.819373 0
M  V30 14 N 2.580272 2.202807 0.287685 0
M  V30 15 C -2.140343 -0.128105 0.555517 0
M  V30 16 C -2.008776 -1.503547 0.560200 0
M  V30 17 C -1.238565 -2.093146 -0.504307 0
M  V30 18 C -1.889475 -2.471343 -1.687333 0
M  V30 19 C -1.121308 -3.034387 -2.689629 0
M  V30 20 C 0.241781 -3.218719 -2.532131 0
M  V30 21 F 0.898613 -3.778204 -3.574529 0
M  V30 22 C 0.854536 -2.836610 -1.356489 0
M  V30 23 C 0.137912 -2.267141 -0.316417 0
M  V30 24 C -2.644475 -2.182920 1.609375 0
M  V30 25 C -2.499944 -3.557470 1.594535 0
M  V30 26 C -3.102366 -4.285025 2.601015 0
M  V30 27 F -3.025182 -5.635958 2.683397 0
M  V30 28 C -3.817790 -3.615866 3.571996 0
M  V30 29 C -3.944658 -2.242074 3.560559 0
M  V30 30 C -3.349368 -1.468176 2.557949 0
M  V30 31 N -3.448949 -0.126421 2.510416 0
M  V30 32 C -2.844984 0.567424 1.506527 0
M  V30 33 O -2.994101 1.807434 1.547878 0
M  V30 34 H 0.306979 1.846245 -0.988892 0
M  V30 35 H 0.013648 0.305246 1.590326 0
M  V30 36 H 4.963152 1.388098 3.809643 0
M  V30 37 H 6.897373 3.878677 0.880180 0
M  V30 38 H 4.848296 3.718327 -0.567416 0
M  V30 39 H 2.209585 2.536281 -0.639834 0
M  V30 40 H -2.957239 -2.296002 -1.737063 0
M  V30 41 H -1.639462 -3.325725 -3.608293 0
M  V30 42 H 1.913746 -2.982184 -1.239677 0
M  V30 43 H 0.601288 -1.962475 0.609936 0
M  V30 44 H -1.933873 -4.065303 0.823044 0
M  V30 45 H -4.302484 -4.185970 4.379578 0
M  V30 46 H -4.515923 -1.730694 4.339232 0
M  V30 47 H -4.018458 0.258015 3.305092 0
M  V30 END ATOM
M  V30 BEGIN BOND
M  V30 1 2 1 2
M  V30 2 1 2 3
M  V30 3 2 3 4
M  V30 4 1 4 5
M  V30 5 2 5 6
M  V30 6 1 6 7
M  V30 7 2 7 8
M  V30 8 1 8 9
M  V30 9 1 9 10
M  V30 10 2 9 11
M  V30 11 1 11 12
M  V30 12 2 12 13
M  V30 13 1 13 14
M  V30 14 1 2 15
M  V30 15 2 15 16
M  V30 16 1 16 17
M  V30 17 2 17 18
M  V30 18 1 18 19
M  V30 19 2 19 20
M  V30 20 1 20 21
M  V30 21 1 20 22
M  V30 22 2 22 23
M  V30 23 1 16 24
M  V30 24 2 24 25
M  V30 25 1 25 26
M  V30 26 1 26 27
M  V30 27 2 26 28
M  V30 28 1 28 29
M  V30 29 2 29 30
M  V30 30 1 30 31
M  V30 31 1 31 32
M  V30 32 2 32 33
M  V30 33 1 14 5
M  V30 34 1 32 15
M  V30 35 1 13 7
M  V30 36 1 23 17
M  V30 37 1 30 24
M  V30 38 1 3 34
M  V30 39 1 4 35
M  V30 40 1 8 36
M  V30 41 1 11 37
M  V30 42 1 12 38
M  V30 43 1 14 39
M  V30 44 1 18 40
M  V30 45 1 19 41
M  V30 46 1 22 42
M  V30 47 1 23 43
M  V30 48 1 25 44
M  V30 49 1 28 45
M  V30 50 1 29 46
M  V30 51 1 31 47
M  V30 END BOND
M  V30 END CTAB
M  END
>  <Dataset>  (604) 
ChEMBL_Kinases

>  <Ligand_Instance>  (604) 
nan

>  <PDB_ID>  (604) 
nan

>  <Standardized_SMILES>  (604) 
O=C(/C=C/c1nc2cc(F)ccc2[nH]1)c1c(-c2ccc(F)cc2)c2cc(F)ccc2[nH]c1=O

>  <Name>  (604) 
nan

>  <Pocket>  (604) 
nan

>  <ATP_Site>  (604) 
nan

>  <Peripheral>  (604) 
nan

>  <Num_H_Atoms_ProtBoundConf>  (604) 
nan

>  <Num_Resolved_Atoms>  (604) 
nan

>  <Num_Not_Resolved_Atoms>  (604) 
nan

$$$$
CHEMBL360190
     RDKit          3D

  0  0  0  0  0  0  0  0  0  0999 V3000
M  V30 BEGIN CTAB
M  V30 COUNTS 76 80 0 0 0
M  V30 BEGIN ATOM
M  V30 1 O 5.459434 -3.230848 0.486995 0
M  V30 2 C 5.423928 -2.170205 1.163016 0
M  V30 3 N 5.973488 -1.449540 0.070170 0
M  V30 4 C 5.295875 -0.953901 -1.109052 0
M  V30 5 C 4.946173 0.271319 -1.496161 0
M  V30 6 C 3.770303 1.109875 -1.451657 0
M  V30 7 C 3.670347 2.144422 -0.536785 0
M  V30 8 C 2.527535 2.919873 -0.544872 0
M  V30 9 C 1.477662 2.723933 -1.414063 0
M  V30 10 C 1.581312 1.674766 -2.340457 0
M  V30 11 Br 0.145268 1.377954 -3.541976 0
M  V30 12 C 2.728023 0.917789 -2.313718 0
M  V30 13 O 0.377470 3.516500 -1.387078 0
M  V30 14 C -0.876148 3.203240 -0.907796 0
M  V30 15 C -1.227529 2.107308 -0.110296 0
M  V30 16 C -2.580696 2.048626 0.226710 0
M  V30 17 C -3.555050 2.936679 -0.140960 0
M  V30 18 C -3.166500 4.013965 -0.935951 0
M  V30 19 Br -4.508713 5.256033 -1.479442 0
M  V30 20 C -1.839780 4.112111 -1.292608 0
M  V30 21 O -1.581068 5.235753 -2.089005 0
M  V30 22 C -3.035604 0.880004 1.075396 0
M  V30 23 C -4.397723 0.417216 0.629816 0
M  V30 24 N -4.395355 -1.017974 0.342698 0
M  V30 25 C -5.014319 -1.494102 -0.874966 0
M  V30 26 O -5.735780 -0.625282 -1.482156 0
M  V30 27 C -4.899905 -2.829361 -1.457965 0
M  V30 28 N -6.095019 -3.304748 -1.215344 0
M  V30 29 O -6.401624 -4.596372 -1.627416 0
M  V30 30 C -3.851246 -3.608333 -2.155712 0
M  V30 31 C -2.575384 -3.699430 -1.356734 0
M  V30 32 C -2.276572 -2.428052 -1.246785 0
M  V30 33 C -1.116312 -2.228513 -0.440759 0
M  V30 34 C -0.621989 -3.437168 0.004566 0
M  V30 35 C -1.080532 -4.708744 -0.220274 0
M  V30 36 Br -0.412693 -6.370926 0.382374 0
M  V30 37 C -2.195885 -4.967252 -0.989192 0
M  V30 38 O 0.508563 -3.567902 0.817959 0
M  V30 39 C 0.806168 -2.648500 1.829304 0
M  V30 40 C 2.126750 -2.308085 1.952555 0
M  V30 41 C 2.585859 -1.400697 2.917848 0
M  V30 42 C 1.652952 -0.845538 3.755880 0
M  V30 43 C 0.311691 -1.161038 3.667110 0
M  V30 44 Br -1.086380 -0.473708 4.790648 0
M  V30 45 C -0.119143 -2.061446 2.705729 0
M  V30 46 O -1.422872 -2.512804 2.457359 0
M  V30 47 C 3.994259 -1.022334 3.074823 0
M  V30 48 C 4.947931 -2.041364 2.529103 0
M  V30 49 N 5.487512 -2.960695 3.258146 0
M  V30 50 O 5.190640 -3.057720 4.616410 0
M  V30 51 H 6.989807 -1.227970 0.077617 0
M  V30 52 H 5.211202 -1.972877 -1.521680 0
M  V30 53 H 5.660338 0.943665 -2.005013 0
M  V30 54 H 4.450268 2.344073 0.157612 0
M  V30 55 H 2.450346 3.733513 0.185443 0
M  V30 56 H 2.753923 0.116900 -3.071949 0
M  V30 57 H -0.525451 1.369957 0.227628 0
M  V30 58 H -4.585416 2.862242 0.135814 0
M  V30 59 H -0.719270 5.718082 -2.008857 0
M  V30 60 H -2.291511 0.069994 1.038657 0
M  V30 61 H -3.090521 1.295710 2.100858 0
M  V30 62 H -5.204334 0.630320 1.358443 0
M  V30 63 H -4.719039 0.936914 -0.313151 0
M  V30 64 H -3.935354 -1.581551 1.074526 0
M  V30 65 H -6.237099 -5.379629 -0.964333 0
M  V30 66 H -4.294166 -4.656791 -2.225789 0
M  V30 67 H -3.660170 -3.305048 -3.191183 0
M  V30 68 H -2.310554 -1.377826 -1.357554 0
M  V30 69 H -0.467019 -1.419974 -0.039096 0
M  V30 70 H -2.768836 -5.809826 -1.325300 0
M  V30 71 H 2.900127 -2.716275 1.321535 0
M  V30 72 H 1.907070 -0.127024 4.547392 0
M  V30 73 H -1.867417 -3.096551 3.160706 0
M  V30 74 H 4.177941 -0.086723 2.463078 0
M  V30 75 H 4.261803 -0.733851 4.100669 0
M  V30 76 H 5.226611 -2.194074 5.165947 0
M  V30 END ATOM
M  V30 BEGIN BOND
M  V30 1 2 1 2
M  V30 2 1 2 3
M  V30 3 1 3 4
M  V30 4 2 4 5
M  V30 5 1 5 6
M  V30 6 2 6 7
M  V30 7 1 7 8
M  V30 8 2 8 9
M  V30 9 1 9 10
M  V30 10 1 10 11
M  V30 11 2 10 12
M  V30 12 1 9 13
M  V30 13 1 13 14
M  V30 14 1 14 15
M  V30 15 2 15 16
M  V30 16 1 16 17
M  V30 17 2 17 18
M  V30 18 1 18 19
M  V30 19 1 18 20
M  V30 20 1 20 21
M  V30 21 1 16 22
M  V30 22 1 22 23
M  V30 23 1 23 24
M  V30 24 1 24 25
M  V30 25 2 25 26
M  V30 26 1 25 27
M  V30 27 2 27 28
M  V30 28 1 28 29
M  V30 29 1 27 30
M  V30 30 1 30 31
M  V30 31 2 31 32
M  V30 32 1 32 33
M  V30 33 2 33 34
M  V30 34 1 34 35
M  V30 35 1 35 36
M  V30 36 2 35 37
M  V30 37 1 34 38
M  V30 38 1 38 39
M  V30 39 1 39 40
M  V30 40 2 40 41
M  V30 41 1 41 42
M  V30 42 2 42 43
M  V30 43 1 43 44
M  V30 44 1 43 45
M  V30 45 1 45 46
M  V30 46 1 41 47
M  V30 47 1 47 48
M  V30 48 2 48 49
M  V30 49 1 49 50
M  V30 50 1 48 2
M  V30 51 1 12 6
M  V30 52 2 20 14
M  V30 53 1 37 31
M  V30 54 2 45 39
M  V30 55 1 3 51
M  V30 56 1 4 52
M  V30 57 1 5 53
M  V30 58 1 7 54
M  V30 59 1 8 55
M  V30 60 1 12 56
M  V30 61 1 15 57
M  V30 62 1 17 58
M  V30 63 1 21 59
M  V30 64 1 22 60
M  V30 65 1 22 61
M  V30 66 1 23 62
M  V30 67 1 23 63
M  V30 68 1 24 64
M  V30 69 1 29 65
M  V30 70 1 30 66
M  V30 71 1 30 67
M  V30 72 1 32 68
M  V30 73 1 33 69
M  V30 74 1 37 70
M  V30 75 1 40 71
M  V30 76 1 42 72
M  V30 77 1 46 73
M  V30 78 1 47 74
M  V30 79 1 47 75
M  V30 80 1 50 76
M  V30 END BOND
M  V30 END CTAB
M  END
>  <Dataset>  (605) 
ChEMBL_Kinases

>  <Ligand_Instance>  (605) 
nan

>  <PDB_ID>  (605) 
nan

>  <Standardized_SMILES>  (605) 
O=C1N/C=C/c2ccc(c(Br)c2)Oc2cc(cc(Br)c2O)CCNC(=O)/C(=N/O)Cc2ccc(c(Br)c2)Oc2cc(cc(Br)c2O)C/C1=N\O

>  <Name>  (605) 
BASTADIN 7

>  <Pocket>  (605) 
nan

>  <ATP_Site>  (605) 
nan

>  <Peripheral>  (605) 
nan

>  <Num_H_Atoms_ProtBoundConf>  (605) 
nan

>  <Num_Resolved_Atoms>  (605) 
nan

>  <Num_Not_Resolved_Atoms>  (605) 
nan

$$$$
CHEMBL489520
     RDKit          3D

  0  0  0  0  0  0  0  0  0  0999 V3000
M  V30 BEGIN CTAB
M  V30 COUNTS 64 66 0 0 0
M  V30 BEGIN ATOM
M  V30 1 C 6.421349 -0.303319 1.378297 0
M  V30 2 C 5.744725 0.773290 2.145858 0
M  V30 3 C 5.330122 0.489507 3.549058 0
M  V30 4 C 5.431275 2.015155 1.763279 0
M  V30 5 C 4.763713 3.203049 2.398196 0
M  V30 6 C 3.897050 3.653754 1.180156 0
M  V30 7 C 3.317461 4.982912 1.508092 0
M  V30 8 O 2.269650 4.888929 2.398923 0
M  V30 9 C 2.960154 2.528255 0.949101 0
M  V30 10 O 2.285818 2.454271 -0.255022 0
M  V30 11 C 1.360124 3.237293 -0.826960 0
M  V30 12 O 0.898658 4.268865 -0.305699 0
M  V30 13 C 0.838937 2.867773 -2.168694 0
M  V30 14 C -0.470065 2.119324 -1.926719 0
M  V30 15 C -1.090438 1.693974 -3.224927 0
M  V30 16 O -2.281128 1.010565 -3.001411 0
M  V30 17 C -2.544198 -0.154750 -2.361034 0
M  V30 18 C -1.852708 -1.139708 -1.703015 0
M  V30 19 C -2.405405 -2.256424 -1.123277 0
M  V30 20 C -3.767016 -2.385038 -1.218952 0
M  V30 21 C -4.320129 -3.564701 -0.604750 0
M  V30 22 C -4.777952 -4.555784 -0.073958 0
M  V30 23 C -5.307008 -5.735250 0.559846 0
M  V30 24 C -5.485082 -6.929622 -0.109037 0
M  V30 25 C -5.986852 -8.080382 0.465942 0
M  V30 26 C -6.336001 -8.034983 1.805241 0
M  V30 27 C -6.887493 -9.231717 2.516864 0
M  V30 28 C -6.178037 -6.858746 2.527987 0
M  V30 29 C -5.673064 -5.733642 1.913136 0
M  V30 30 C -4.552706 -1.450614 -1.860118 0
M  V30 31 C -3.935748 -0.328237 -2.434707 0
M  V30 32 O 4.958072 3.708624 0.218538 0
M  V30 33 C 5.724420 2.557366 0.419886 0
M  V30 34 O 6.530854 2.101002 -0.459923 0
M  V30 35 H 7.096371 0.066028 0.607760 0
M  V30 36 H 7.017185 -0.900227 2.098364 0
M  V30 37 H 5.660234 -1.020099 0.974677 0
M  V30 38 H 5.422169 1.379684 4.201004 0
M  V30 39 H 5.996951 -0.292621 3.960230 0
M  V30 40 H 4.263052 0.140169 3.496766 0
M  V30 41 H 4.044520 2.929647 3.174259 0
M  V30 42 H 5.490150 3.986149 2.667903 0
M  V30 43 H 4.111608 5.622612 2.038927 0
M  V30 44 H 3.019959 5.531607 0.607824 0
M  V30 45 H 2.560760 4.825335 3.343112 0
M  V30 46 H 2.235537 2.521574 1.834339 0
M  V30 47 H 3.469148 1.522707 1.077724 0
M  V30 48 H 0.623927 3.755591 -2.810082 0
M  V30 49 H 1.577523 2.251435 -2.702423 0
M  V30 50 H -0.318378 1.264378 -1.278567 0
M  V30 51 H -1.147534 2.841130 -1.412556 0
M  V30 52 H -1.270983 2.642945 -3.809456 0
M  V30 53 H -0.348817 1.064563 -3.790430 0
M  V30 54 H -0.794706 -0.939363 -1.705150 0
M  V30 55 H -1.695760 -2.918408 -0.650333 0
M  V30 56 H -5.217431 -6.983107 -1.157886 0
M  V30 57 H -6.106181 -8.988475 -0.102763 0
M  V30 58 H -7.972036 -9.161235 2.684004 0
M  V30 59 H -6.366673 -9.405541 3.497231 0
M  V30 60 H -6.711093 -10.162965 1.945638 0
M  V30 61 H -6.429146 -6.754307 3.564041 0
M  V30 62 H -5.548157 -4.809969 2.481628 0
M  V30 63 H -5.605620 -1.689848 -1.852762 0
M  V30 64 H -4.727464 0.284238 -2.889504 0
M  V30 END ATOM
M  V30 BEGIN BOND
M  V30 1 1 1 2
M  V30 2 1 2 3
M  V30 3 2 2 4 CFG=2
M  V30 4 1 4 5
M  V30 5 1 5 6
M  V30 6 1 6 7
M  V30 7 1 7 8
M  V30 8 1 6 9
M  V30 9 1 9 10
M  V30 10 1 10 11
M  V30 11 2 11 12
M  V30 12 1 11 13
M  V30 13 1 13 14
M  V30 14 1 14 15
M  V30 15 1 15 16
M  V30 16 1 16 17
M  V30 17 2 17 18
M  V30 18 1 18 19
M  V30 19 2 19 20
M  V30 20 1 20 21
M  V30 21 3 21 22
M  V30 22 1 22 23
M  V30 23 2 23 24
M  V30 24 1 24 25
M  V30 25 2 25 26
M  V30 26 1 26 27
M  V30 27 1 26 28
M  V30 28 2 28 29
M  V30 29 1 20 30
M  V30 30 2 30 31
M  V30 31 1 6 32
M  V30 32 1 32 33
M  V30 33 2 33 34
M  V30 34 1 33 4
M  V30 35 1 31 17
M  V30 36 1 29 23
M  V30 37 1 1 35
M  V30 38 1 1 36
M  V30 39 1 1 37
M  V30 40 1 3 38
M  V30 41 1 3 39
M  V30 42 1 3 40
M  V30 43 1 5 41
M  V30 44 1 5 42
M  V30 45 1 7 43
M  V30 46 1 7 44
M  V30 47 1 8 45
M  V30 48 1 9 46
M  V30 49 1 9 47
M  V30 50 1 13 48
M  V30 51 1 13 49
M  V30 52 1 14 50
M  V30 53 1 14 51
M  V30 54 1 15 52
M  V30 55 1 15 53
M  V30 56 1 18 54
M  V30 57 1 19 55
M  V30 58 1 24 56
M  V30 59 1 25 57
M  V30 60 1 27 58
M  V30 61 1 27 59
M  V30 62 1 27 60
M  V30 63 1 28 61
M  V30 64 1 29 62
M  V30 65 1 30 63
M  V30 66 1 31 64
M  V30 END BOND
M  V30 END CTAB
M  END
>  <Dataset>  (606) 
ChEMBL_Kinases

>  <Ligand_Instance>  (606) 
nan

>  <PDB_ID>  (606) 
nan

>  <Standardized_SMILES>  (606) 
CC(C)=C1CC(CO)(COC(=O)CCCOc2ccc(C#Cc3ccc(C)cc3)cc2)OC1=O

>  <Name>  (606) 
nan

>  <Pocket>  (606) 
nan

>  <ATP_Site>  (606) 
nan

>  <Peripheral>  (606) 
nan

>  <Num_H_Atoms_ProtBoundConf>  (606) 
nan

>  <Num_Resolved_Atoms>  (606) 
nan

>  <Num_Not_Resolved_Atoms>  (606) 
nan

$$$$
CHEMBL507361
     RDKit          3D

  0  0  0  0  0  0  0  0  0  0999 V3000
M  V30 BEGIN CTAB
M  V30 COUNTS 40 41 0 0 0
M  V30 BEGIN ATOM
M  V30 1 O 0.677050 -1.767233 0.922163 0
M  V30 2 C 0.418629 -1.279424 -0.205093 0
M  V30 3 N 1.426697 -0.647692 -0.974232 0
M  V30 4 O 2.733268 -0.324793 -0.958814 0
M  V30 5 C 2.975642 0.922571 -0.407706 0
M  V30 6 C 4.445246 1.281125 -0.424155 0 CFG=2
M  V30 7 O 5.176457 0.332287 0.317358 0
M  V30 8 C 4.683774 2.613425 0.257058 0
M  V30 9 O 3.983173 3.606553 -0.430785 0
M  V30 10 C -0.924877 -1.346142 -0.760195 0
M  V30 11 C -1.292978 -0.830029 -1.982307 0
M  V30 12 C -2.623698 -0.974841 -2.371363 0
M  V30 13 C -3.568976 -1.604257 -1.592752 0
M  V30 14 F -4.820636 -1.695483 -2.049346 0
M  V30 15 C -3.166913 -2.120018 -0.353917 0
M  V30 16 F -4.077450 -2.742435 0.428281 0
M  V30 17 C -1.830515 -1.977740 0.043076 0
M  V30 18 N -1.535765 -2.539126 1.316054 0
M  V30 19 C -1.599816 -1.938198 2.604779 0
M  V30 20 C -1.996187 -0.623806 2.721104 0
M  V30 21 C -2.052900 -0.063277 3.967155 0
M  V30 22 C -1.705997 -0.851349 5.060483 0
M  V30 23 I -1.747883 -0.117310 7.041290 0
M  V30 24 C -1.312441 -2.164957 4.917339 0
M  V30 25 C -1.246498 -2.760770 3.653131 0
M  V30 26 F -0.864990 -4.041367 3.487969 0
M  V30 27 H 1.336620 -0.209893 -1.914619 0
M  V30 28 H 2.691708 0.849813 0.678662 0
M  V30 29 H 2.383409 1.743812 -0.820497 0
M  V30 30 H 4.868771 1.347144 -1.432018 0
M  V30 31 H 5.185488 -0.521344 -0.190041 0
M  V30 32 H 5.747181 2.856925 0.331303 0
M  V30 33 H 4.303258 2.615618 1.313246 0
M  V30 34 H 3.867253 3.419284 -1.390390 0
M  V30 35 H -0.556272 -0.335232 -2.597580 0
M  V30 36 H -2.873466 -0.557098 -3.335876 0
M  V30 37 H -1.256685 -3.501259 1.113712 0
M  V30 38 H -2.253818 -0.063449 1.828155 0
M  V30 39 H -2.355433 0.961899 4.130284 0
M  V30 40 H -1.035950 -2.800379 5.764913 0
M  V30 END ATOM
M  V30 BEGIN BOND
M  V30 1 2 1 2
M  V30 2 1 2 3
M  V30 3 1 3 4
M  V30 4 1 4 5
M  V30 5 1 5 6
M  V30 6 1 6 7
M  V30 7 1 6 8
M  V30 8 1 8 9
M  V30 9 1 2 10
M  V30 10 2 10 11
M  V30 11 1 11 12
M  V30 12 2 12 13
M  V30 13 1 13 14
M  V30 14 1 13 15
M  V30 15 1 15 16
M  V30 16 2 15 17
M  V30 17 1 17 18
M  V30 18 1 18 19
M  V30 19 2 19 20
M  V30 20 1 20 21
M  V30 21 2 21 22
M  V30 22 1 22 23
M  V30 23 1 22 24
M  V30 24 2 24 25
M  V30 25 1 25 26
M  V30 26 1 17 10
M  V30 27 1 25 19
M  V30 28 1 3 27
M  V30 29 1 5 28
M  V30 30 1 5 29
M  V30 31 1 6 30 CFG=3
M  V30 32 1 7 31
M  V30 33 1 8 32
M  V30 34 1 8 33
M  V30 35 1 9 34
M  V30 36 1 11 35
M  V30 37 1 12 36
M  V30 38 1 18 37
M  V30 39 1 20 38
M  V30 40 1 21 39
M  V30 41 1 24 40
M  V30 END BOND
M  V30 END CTAB
M  END
>  <Dataset>  (607) 
ChEMBL_Kinases

>  <Ligand_Instance>  (607) 
nan

>  <PDB_ID>  (607) 
nan

>  <Standardized_SMILES>  (607) 
O=C(NOC[C@H](O)CO)c1ccc(F)c(F)c1Nc1ccc(I)cc1F

>  <Name>  (607) 
MIRDAMETINIB

>  <Pocket>  (607) 
nan

>  <ATP_Site>  (607) 
nan

>  <Peripheral>  (607) 
nan

>  <Num_H_Atoms_ProtBoundConf>  (607) 
nan

>  <Num_Resolved_Atoms>  (607) 
nan

>  <Num_Not_Resolved_Atoms>  (607) 
nan

$$$$
CHEMBL1667967
     RDKit          3D

  0  0  0  0  0  0  0  0  0  0999 V3000
M  V30 BEGIN CTAB
M  V30 COUNTS 34 36 0 0 0
M  V30 BEGIN ATOM
M  V30 1 O 1.914533 -1.021899 5.589794 0
M  V30 2 C 2.439333 -1.084334 4.428962 0
M  V30 3 N 3.755771 -1.325236 4.290044 0
M  V30 4 C 4.284040 -1.385685 3.042677 0
M  V30 5 C 3.481683 -1.201972 1.913925 0
M  V30 6 C 2.131964 -0.956712 2.113271 0
M  V30 7 C 1.363710 -0.779255 0.981667 0
M  V30 8 C 0.009852 -0.530717 1.098985 0
M  V30 9 O -0.953093 -0.322168 0.137717 0
M  V30 10 C -0.788699 -0.310767 -1.241967 0 CFG=1
M  V30 11 C -1.601091 -1.347808 -1.963660 0
M  V30 12 C -2.968488 -0.831420 -2.359376 0
M  V30 13 C -3.324637 0.295144 -1.418195 0
M  V30 14 N -2.454711 1.426986 -1.584672 0
M  V30 15 C -1.084817 1.064104 -1.836390 0
M  V30 16 C -0.559043 -0.463605 2.375878 0
M  V30 17 C 0.225137 -0.644442 3.520958 0
M  V30 18 C 1.574165 -0.891147 3.373166 0
M  V30 19 H 4.346062 -1.461385 5.153290 0
M  V30 20 H 5.350277 -1.579965 2.902604 0
M  V30 21 H 3.895944 -1.248792 0.916557 0
M  V30 22 H 1.684637 -0.808079 -0.036083 0
M  V30 23 H 0.277326 -0.501922 -1.480146 0
M  V30 24 H -1.726629 -2.269560 -1.391621 0
M  V30 25 H -1.108179 -1.665128 -2.926139 0
M  V30 26 H -3.718504 -1.638516 -2.238654 0
M  V30 27 H -3.010365 -0.498135 -3.421672 0
M  V30 28 H -3.218709 -0.083592 -0.385742 0
M  V30 29 H -4.379546 0.559516 -1.648529 0
M  V30 30 H -2.796105 1.947262 -2.441328 0
M  V30 31 H -0.787479 1.076259 -2.889816 0
M  V30 32 H -0.471461 1.815295 -1.260138 0
M  V30 33 H -1.606009 -0.276070 2.620142 0
M  V30 34 H -0.178478 -0.599743 4.522735 0
M  V30 END ATOM
M  V30 BEGIN BOND
M  V30 1 2 1 2
M  V30 2 1 2 3
M  V30 3 1 3 4
M  V30 4 2 4 5
M  V30 5 1 5 6
M  V30 6 2 6 7
M  V30 7 1 7 8
M  V30 8 1 8 9
M  V30 9 1 9 10
M  V30 10 1 10 11
M  V30 11 1 11 12
M  V30 12 1 12 13
M  V30 13 1 13 14
M  V30 14 1 14 15
M  V30 15 2 8 16
M  V30 16 1 16 17
M  V30 17 2 17 18
M  V30 18 1 18 2
M  V30 19 1 18 6
M  V30 20 1 15 10
M  V30 21 1 3 19
M  V30 22 1 4 20
M  V30 23 1 5 21
M  V30 24 1 7 22
M  V30 25 1 10 23 CFG=1
M  V30 26 1 11 24
M  V30 27 1 11 25
M  V30 28 1 12 26
M  V30 29 1 12 27
M  V30 30 1 13 28
M  V30 31 1 13 29
M  V30 32 1 14 30
M  V30 33 1 15 31
M  V30 34 1 15 32
M  V30 35 1 16 33
M  V30 36 1 17 34
M  V30 END BOND
M  V30 END CTAB
M  END
>  <Dataset>  (608) 
ChEMBL_Kinases

>  <Ligand_Instance>  (608) 
nan

>  <PDB_ID>  (608) 
nan

>  <Standardized_SMILES>  (608) 
O=c1[nH]ccc2cc(O[C@H]3CCCNC3)ccc12

>  <Name>  (608) 
nan

>  <Pocket>  (608) 
nan

>  <ATP_Site>  (608) 
nan

>  <Peripheral>  (608) 
nan

>  <Num_H_Atoms_ProtBoundConf>  (608) 
nan

>  <Num_Resolved_Atoms>  (608) 
nan

>  <Num_Not_Resolved_Atoms>  (608) 
nan

$$$$
CHEMBL1667963
     RDKit          3D

  0  0  0  0  0  0  0  0  0  0999 V3000
M  V30 BEGIN CTAB
M  V30 COUNTS 39 41 0 0 0
M  V30 BEGIN ATOM
M  V30 1 N -1.020069 -4.937941 3.886872 0
M  V30 2 C -0.303678 -3.828489 3.385606 0
M  V30 3 N 0.350474 -3.076072 4.316513 0
M  V30 4 C 1.069720 -1.987729 3.946729 0
M  V30 5 C 1.111722 -1.680099 2.622748 0
M  V30 6 C 0.466696 -2.407689 1.628459 0
M  V30 7 C 0.523168 -2.077107 0.292029 0
M  V30 8 S 1.434738 -0.694579 -0.194447 0
M  V30 9 O 2.879005 -0.731184 0.231861 0
M  V30 10 O 1.342776 -0.529770 -1.699173 0
M  V30 11 N 0.857952 0.762911 0.529723 0
M  V30 12 C -0.496044 1.085236 0.179958 0
M  V30 13 C -0.854115 2.519485 0.452145 0
M  V30 14 C -0.679117 3.407946 -0.763382 0
M  V30 15 N 0.678546 3.645425 -1.103241 0
M  V30 16 C 1.519357 2.488022 -1.113575 0
M  V30 17 C 1.747701 1.853610 0.220575 0
M  V30 18 C -0.154654 -2.863083 -0.637707 0
M  V30 19 C -0.887778 -3.980256 -0.219521 0
M  V30 20 C -0.926398 -4.287205 1.125577 0
M  V30 21 C -0.251185 -3.503896 2.050313 0
M  V30 22 H -2.008576 -4.878116 4.254098 0
M  V30 23 H -1.014734 -5.960790 4.093407 0
M  V30 24 H 1.580336 -1.405722 4.701696 0
M  V30 25 H 1.672553 -0.816309 2.254778 0
M  V30 26 H -0.538646 0.967895 -0.945851 0
M  V30 27 H -1.213211 0.346238 0.545288 0
M  V30 28 H -0.249698 2.980678 1.260485 0
M  V30 29 H -1.955614 2.585288 0.694977 0
M  V30 30 H -1.129734 4.399563 -0.482773 0
M  V30 31 H -1.302005 3.061364 -1.622676 0
M  V30 32 H 1.085955 4.518886 -0.768497 0
M  V30 33 H 1.158355 1.789800 -1.889601 0
M  V30 34 H 2.515033 2.837330 -1.496105 0
M  V30 35 H 2.785484 1.406238 0.224111 0
M  V30 36 H 1.779462 2.644390 1.000880 0
M  V30 37 H -0.105406 -2.594558 -1.698216 0
M  V30 38 H -1.389540 -4.551444 -0.966454 0
M  V30 39 H -1.491867 -5.149068 1.448504 0
M  V30 END ATOM
M  V30 BEGIN BOND
M  V30 1 1 1 2
M  V30 2 2 2 3
M  V30 3 1 3 4
M  V30 4 2 4 5
M  V30 5 1 5 6
M  V30 6 2 6 7
M  V30 7 1 7 8
M  V30 8 2 8 9
M  V30 9 2 8 10
M  V30 10 1 8 11
M  V30 11 1 11 12
M  V30 12 1 12 13
M  V30 13 1 13 14
M  V30 14 1 14 15
M  V30 15 1 15 16
M  V30 16 1 16 17
M  V30 17 1 7 18
M  V30 18 2 18 19
M  V30 19 1 19 20
M  V30 20 2 20 21
M  V30 21 1 21 2
M  V30 22 1 21 6
M  V30 23 1 17 11
M  V30 24 1 1 22
M  V30 25 1 1 23
M  V30 26 1 4 24
M  V30 27 1 5 25
M  V30 28 1 12 26
M  V30 29 1 12 27
M  V30 30 1 13 28
M  V30 31 1 13 29
M  V30 32 1 14 30
M  V30 33 1 14 31
M  V30 34 1 15 32
M  V30 35 1 16 33
M  V30 36 1 16 34
M  V30 37 1 17 35
M  V30 38 1 17 36
M  V30 39 1 18 37
M  V30 40 1 19 38
M  V30 41 1 20 39
M  V30 END BOND
M  V30 END CTAB
M  END
>  <Dataset>  (609) 
ChEMBL_Kinases

>  <Ligand_Instance>  (609) 
nan

>  <PDB_ID>  (609) 
nan

>  <Standardized_SMILES>  (609) 
Nc1nccc2c(S(=O)(=O)N3CCCNCC3)cccc12

>  <Name>  (609) 
nan

>  <Pocket>  (609) 
nan

>  <ATP_Site>  (609) 
nan

>  <Peripheral>  (609) 
nan

>  <Num_H_Atoms_ProtBoundConf>  (609) 
nan

>  <Num_Resolved_Atoms>  (609) 
nan

>  <Num_Not_Resolved_Atoms>  (609) 
nan

$$$$
CHEMBL328229
     RDKit          3D

  0  0  0  0  0  0  0  0  0  0999 V3000
M  V30 BEGIN CTAB
M  V30 COUNTS 70 76 0 0 0
M  V30 BEGIN ATOM
M  V30 1 O 3.902614 4.285059 2.705064 0
M  V30 2 C 3.499660 3.103954 2.968134 0
M  V30 3 N 3.958686 2.449515 4.142280 0
M  V30 4 C 3.309710 1.187053 4.094437 0
M  V30 5 O 3.511571 0.333326 5.027632 0
M  V30 6 C 2.462339 1.084113 2.893109 0
M  V30 7 C 2.587897 2.233002 2.235709 0
M  V30 8 C 1.947153 2.613007 0.986986 0
M  V30 9 C 1.887883 1.887115 -0.174081 0
M  V30 10 N 1.198598 2.548353 -1.150108 0
M  V30 11 C 0.802464 3.717295 -0.629632 0
M  V30 12 C 0.076123 4.661953 -1.320759 0
M  V30 13 C -0.244033 5.817343 -0.610660 0
M  V30 14 C 0.175897 5.939632 0.706693 0
M  V30 15 C 0.913543 4.951555 1.369253 0
M  V30 16 C 1.243811 3.787348 0.674539 0
M  V30 17 C 1.159089 1.703124 -2.361033 0
M  V30 18 C 0.640792 0.323900 -1.934023 0
M  V30 19 O -0.660547 0.445014 -1.447515 0
M  V30 20 C -1.016996 -0.805300 -0.818823 0 CFG=2
M  V30 21 C -2.015321 -1.363577 -1.853476 0
M  V30 22 N -2.501050 -2.626016 -1.397019 0
M  V30 23 C -3.381197 -3.247380 -2.401433 0
M  V30 24 C -3.824350 -4.543720 -1.828362 0
M  V30 25 C -3.014422 -5.650846 -2.101526 0
M  V30 26 C -3.306681 -6.916457 -1.633974 0
M  V30 27 C -4.457952 -7.065566 -0.864091 0
M  V30 28 C -5.252003 -5.969378 -0.598639 0
M  V30 29 C -4.960764 -4.703850 -1.065364 0
M  V30 30 C -1.679285 -0.413534 0.447097 0
M  V30 31 C -1.509098 -1.362957 1.609632 0
M  V30 32 N -0.076907 -1.398851 1.983459 0
M  V30 33 C 0.353482 -0.124794 2.229731 0
M  V30 34 C 1.680224 -0.072306 2.571819 0
M  V30 35 C 2.056312 -1.411540 2.524002 0
M  V30 36 C 3.248191 -2.107415 2.753167 0
M  V30 37 C 3.278803 -3.500217 2.612774 0
M  V30 38 C 2.145002 -4.232520 2.246144 0
M  V30 39 C 0.945087 -3.549474 2.013507 0
M  V30 40 C 0.983569 -2.197640 2.167391 0
M  V30 41 H 4.621119 2.811131 4.874365 0
M  V30 42 H 2.402154 0.927222 -0.103630 0
M  V30 43 H -0.236447 4.542245 -2.341939 0
M  V30 44 H -0.810048 6.605705 -1.077426 0
M  V30 45 H -0.082126 6.855675 1.255265 0
M  V30 46 H 1.234954 5.055879 2.393258 0
M  V30 47 H 0.436270 2.160795 -3.044770 0
M  V30 48 H 2.160114 1.646212 -2.810227 0
M  V30 49 H 1.328817 -0.224736 -1.302955 0
M  V30 50 H 0.568168 -0.262163 -2.892401 0
M  V30 51 H -0.212897 -1.514485 -0.811850 0
M  V30 52 H -1.480810 -1.485883 -2.809297 0
M  V30 53 H -2.831952 -0.616759 -1.978575 0
M  V30 54 H -3.059492 -2.499243 -0.507266 0
M  V30 55 H -2.783650 -3.386146 -3.318044 0
M  V30 56 H -4.265382 -2.608438 -2.570816 0
M  V30 57 H -2.105939 -5.539195 -2.707492 0
M  V30 58 H -2.636358 -7.737050 -1.881118 0
M  V30 59 H -4.651497 -8.066402 -0.519134 0
M  V30 60 H -6.150683 -6.118666 0.009285 0
M  V30 61 H -5.570473 -3.837398 -0.867625 0
M  V30 62 H -2.800474 -0.410722 0.247751 0
M  V30 63 H -1.487639 0.636639 0.750589 0
M  V30 64 H -2.025444 -0.941869 2.491451 0
M  V30 65 H -1.850395 -2.361524 1.433344 0
M  V30 66 H -0.139055 0.861600 2.214491 0
M  V30 67 H 4.133999 -1.552950 3.037141 0
M  V30 68 H 4.234380 -3.973531 2.805457 0
M  V30 69 H 2.210225 -5.299927 2.149456 0
M  V30 70 H 0.064438 -4.108667 1.729175 0
M  V30 END ATOM
M  V30 BEGIN BOND
M  V30 1 2 1 2
M  V30 2 1 2 3
M  V30 3 1 3 4
M  V30 4 2 4 5
M  V30 5 1 4 6
M  V30 6 2 6 7
M  V30 7 1 7 8
M  V30 8 2 8 9
M  V30 9 1 9 10
M  V30 10 1 10 11
M  V30 11 2 11 12
M  V30 12 1 12 13
M  V30 13 2 13 14
M  V30 14 1 14 15
M  V30 15 2 15 16
M  V30 16 1 10 17
M  V30 17 1 17 18
M  V30 18 1 18 19
M  V30 19 1 19 20
M  V30 20 1 20 21
M  V30 21 1 21 22
M  V30 22 1 22 23
M  V30 23 1 23 24
M  V30 24 2 24 25
M  V30 25 1 25 26
M  V30 26 2 26 27
M  V30 27 1 27 28
M  V30 28 2 28 29
M  V30 29 1 20 30
M  V30 30 1 30 31
M  V30 31 1 31 32
M  V30 32 1 32 33
M  V30 33 2 33 34
M  V30 34 1 34 35
M  V30 35 2 35 36
M  V30 36 1 36 37
M  V30 37 2 37 38
M  V30 38 1 38 39
M  V30 39 2 39 40
M  V30 40 1 7 2
M  V30 41 1 16 8
M  V30 42 1 29 24
M  V30 43 1 40 32
M  V30 44 1 34 6
M  V30 45 1 40 35
M  V30 46 1 16 11
M  V30 47 1 3 41
M  V30 48 1 9 42
M  V30 49 1 12 43
M  V30 50 1 13 44
M  V30 51 1 14 45
M  V30 52 1 15 46
M  V30 53 1 17 47
M  V30 54 1 17 48
M  V30 55 1 18 49
M  V30 56 1 18 50
M  V30 57 1 20 51 CFG=1
M  V30 58 1 21 52
M  V30 59 1 21 53
M  V30 60 1 22 54
M  V30 61 1 23 55
M  V30 62 1 23 56
M  V30 63 1 25 57
M  V30 64 1 26 58
M  V30 65 1 27 59
M  V30 66 1 28 60
M  V30 67 1 29 61
M  V30 68 1 30 62
M  V30 69 1 30 63
M  V30 70 1 31 64
M  V30 71 1 31 65
M  V30 72 1 33 66
M  V30 73 1 36 67
M  V30 74 1 37 68
M  V30 75 1 38 69
M  V30 76 1 39 70
M  V30 END BOND
M  V30 END CTAB
M  END
>  <Dataset>  (610) 
ChEMBL_Kinases

>  <Ligand_Instance>  (610) 
nan

>  <PDB_ID>  (610) 
nan

>  <Standardized_SMILES>  (610) 
O=C1NC(=O)C2=C1c1cn(c3ccccc13)CCO[C@H](CNCc1ccccc1)CCn1cc2c2ccccc21

>  <Name>  (610) 
nan

>  <Pocket>  (610) 
nan

>  <ATP_Site>  (610) 
nan

>  <Peripheral>  (610) 
nan

>  <Num_H_Atoms_ProtBoundConf>  (610) 
nan

>  <Num_Resolved_Atoms>  (610) 
nan

>  <Num_Not_Resolved_Atoms>  (610) 
nan

$$$$
CHEMBL4797564
     RDKit          3D

  0  0  0  0  0  0  0  0  0  0999 V3000
M  V30 BEGIN CTAB
M  V30 COUNTS 47 51 0 0 0
M  V30 BEGIN ATOM
M  V30 1 C 1.083689 -7.089785 0.266396 0
M  V30 2 N 1.582347 -5.814383 0.755289 0
M  V30 3 C 0.893532 -4.595308 0.458012 0
M  V30 4 N 1.379049 -3.431362 0.924232 0
M  V30 5 C 0.769415 -2.233894 0.676527 0
M  V30 6 N 1.287508 -1.046417 1.228045 0
M  V30 7 C 2.505600 -1.154546 1.983966 0
M  V30 8 C 2.891730 0.186221 2.478586 0
M  V30 9 N 3.695861 0.915048 1.657815 0
M  V30 10 C 4.115856 2.152752 1.997332 0
M  V30 11 C 3.709432 2.673205 3.208813 0
M  V30 12 C 2.892143 1.945671 4.054845 0
M  V30 13 N 2.519407 0.716005 3.635946 0
M  V30 14 C -0.369346 -2.354844 -0.087843 0
M  V30 15 C -1.136547 -1.276415 -0.459139 0
M  V30 16 C -1.184277 0.171543 -0.388798 0
M  V30 17 C -0.324002 1.171783 -0.869366 0
M  V30 18 C -0.540046 2.512970 -0.691199 0
M  V30 19 C -1.655472 2.898017 -0.007443 0
M  V30 20 N -1.849735 4.219324 0.157032 0
M  V30 21 C -2.944179 4.650537 0.829831 0
M  V30 22 C -3.901146 3.788716 1.373363 0
M  V30 23 C -3.684927 2.437313 1.194642 0
M  V30 24 C -2.569451 2.004025 0.509107 0
M  V30 25 C -2.305520 0.661445 0.302125 0
M  V30 26 C -2.174356 -1.854710 -1.209926 0
M  V30 27 N -2.014040 -3.196862 -1.271904 0
M  V30 28 C -0.904139 -3.523464 -0.585896 0
M  V30 29 N -0.232194 -4.654047 -0.287727 0
M  V30 30 H 0.314138 -6.964922 -0.506354 0
M  V30 31 H 1.953799 -7.603545 -0.204974 0
M  V30 32 H 0.642240 -7.649293 1.100534 0
M  V30 33 H 2.441507 -5.807465 1.319763 0
M  V30 34 H 0.891562 -0.098495 1.171862 0
M  V30 35 H 2.329418 -1.839408 2.845086 0
M  V30 36 H 3.331321 -1.613550 1.406015 0
M  V30 37 H 4.755046 2.761079 1.370793 0
M  V30 38 H 3.985585 3.667218 3.593517 0
M  V30 39 H 2.540307 2.311562 5.027730 0
M  V30 40 H 0.515739 0.697834 -1.390692 0
M  V30 41 H 0.221245 3.141513 -1.125730 0
M  V30 42 H -3.054592 5.718742 0.934575 0
M  V30 43 H -4.759739 4.158411 1.902414 0
M  V30 44 H -4.374563 1.698313 1.582086 0
M  V30 45 H -3.054538 0.006090 0.728002 0
M  V30 46 H -3.056945 -1.460686 -1.738167 0
M  V30 47 H -2.567635 -3.946206 -1.727528 0
M  V30 END ATOM
M  V30 BEGIN BOND
M  V30 1 1 1 2
M  V30 2 1 2 3
M  V30 3 2 3 4
M  V30 4 1 4 5
M  V30 5 1 5 6
M  V30 6 1 6 7
M  V30 7 1 7 8
M  V30 8 2 8 9
M  V30 9 1 9 10
M  V30 10 2 10 11
M  V30 11 1 11 12
M  V30 12 2 12 13
M  V30 13 2 5 14
M  V30 14 1 14 15
M  V30 15 1 15 16
M  V30 16 2 16 17
M  V30 17 1 17 18
M  V30 18 2 18 19
M  V30 19 1 19 20
M  V30 20 2 20 21
M  V30 21 1 21 22
M  V30 22 2 22 23
M  V30 23 1 23 24
M  V30 24 2 24 25
M  V30 25 2 15 26
M  V30 26 1 26 27
M  V30 27 1 27 28
M  V30 28 2 28 29
M  V30 29 1 29 3
M  V30 30 1 13 8
M  V30 31 1 28 14
M  V30 32 1 25 16
M  V30 33 1 24 19
M  V30 34 1 1 30
M  V30 35 1 1 31
M  V30 36 1 1 32
M  V30 37 1 2 33
M  V30 38 1 6 34
M  V30 39 1 7 35
M  V30 40 1 7 36
M  V30 41 1 10 37
M  V30 42 1 11 38
M  V30 43 1 12 39
M  V30 44 1 17 40
M  V30 45 1 18 41
M  V30 46 1 21 42
M  V30 47 1 22 43
M  V30 48 1 23 44
M  V30 49 1 25 45
M  V30 50 1 26 46
M  V30 51 1 27 47
M  V30 END BOND
M  V30 END CTAB
M  END
>  <Dataset>  (611) 
ChEMBL_Kinases

>  <Ligand_Instance>  (611) 
nan

>  <PDB_ID>  (611) 
nan

>  <Standardized_SMILES>  (611) 
CNc1nc(NCc2ncccn2)c2c(-c3ccc4ncccc4c3)c[nH]c2n1

>  <Name>  (611) 
nan

>  <Pocket>  (611) 
nan

>  <ATP_Site>  (611) 
nan

>  <Peripheral>  (611) 
nan

>  <Num_H_Atoms_ProtBoundConf>  (611) 
nan

>  <Num_Resolved_Atoms>  (611) 
nan

>  <Num_Not_Resolved_Atoms>  (611) 
nan

$$$$
CHEMBL2147548
     RDKit          3D

  0  0  0  0  0  0  0  0  0  0999 V3000
M  V30 BEGIN CTAB
M  V30 COUNTS 43 45 0 0 0
M  V30 BEGIN ATOM
M  V30 1 C -1.709642 -4.343822 3.421410 0
M  V30 2 C -0.779461 -3.480236 2.596690 0
M  V30 3 C 0.319333 -2.892955 3.463205 0
M  V30 4 N -0.185918 -4.216525 1.516763 0
M  V30 5 C -1.641729 -2.379111 2.004561 0
M  V30 6 N -1.008683 -1.436013 1.189537 0
M  V30 7 C -0.372240 -0.487878 0.370193 0
M  V30 8 N 0.642558 0.342757 0.643284 0
M  V30 9 C 1.161877 1.204859 -0.236007 0
M  V30 10 C 2.262196 2.030169 0.225563 0
M  V30 11 C 2.856155 2.937600 -0.592984 0
M  V30 12 C 3.916605 3.771017 -0.235417 0
M  V30 13 N 4.376764 3.646849 1.042508 0
M  V30 14 C 3.806697 2.757813 1.870120 0
M  V30 15 N 4.331310 2.672455 3.195662 0
M  V30 16 C 2.756011 1.936390 1.506490 0
M  V30 17 C 0.571358 1.182813 -1.470027 0
M  V30 18 C -0.472770 0.383970 -1.880543 0
M  V30 19 C -0.951421 0.490503 -3.168296 0
M  V30 20 N -1.982376 -0.323487 -3.513587 0
M  V30 21 C -2.498829 -1.187583 -2.623871 0
M  V30 22 C -2.004646 -1.276664 -1.342402 0
M  V30 23 C -0.958185 -0.490664 -0.898785 0
M  V30 24 H -1.275458 -4.587234 4.418583 0
M  V30 25 H -2.676707 -3.810533 3.655967 0
M  V30 26 H -1.999372 -5.279467 2.925637 0
M  V30 27 H 0.766054 -3.756578 4.022614 0
M  V30 28 H 1.071486 -2.487707 2.780562 0
M  V30 29 H -0.075511 -2.134746 4.183245 0
M  V30 30 H 0.675741 -3.755911 1.156993 0
M  V30 31 H -0.840157 -4.443604 0.753915 0
M  V30 32 H -2.262484 -1.916710 2.823500 0
M  V30 33 H -2.446607 -2.973684 1.452481 0
M  V30 34 H -0.413944 -1.258556 2.071101 0
M  V30 35 H 2.479427 3.013445 -1.580415 0
M  V30 36 H 4.325848 4.464137 -0.955015 0
M  V30 37 H 5.265146 2.234214 3.357880 0
M  V30 38 H 3.918170 2.994710 4.114846 0
M  V30 39 H 2.309483 1.222568 2.195036 0
M  V30 40 H 0.963920 1.858321 -2.190400 0
M  V30 41 H -0.499436 1.205565 -3.849713 0
M  V30 42 H -3.321163 -1.839354 -2.893504 0
M  V30 43 H -2.424433 -1.970512 -0.638588 0
M  V30 END ATOM
M  V30 BEGIN BOND
M  V30 1 1 1 2
M  V30 2 1 2 3
M  V30 3 1 2 4
M  V30 4 1 2 5
M  V30 5 1 5 6
M  V30 6 1 6 7
M  V30 7 2 7 8
M  V30 8 1 8 9
M  V30 9 1 9 10
M  V30 10 2 10 11
M  V30 11 1 11 12
M  V30 12 2 12 13
M  V30 13 1 13 14
M  V30 14 1 14 15
M  V30 15 2 14 16
M  V30 16 2 9 17
M  V30 17 1 17 18
M  V30 18 2 18 19
M  V30 19 1 19 20
M  V30 20 2 20 21
M  V30 21 1 21 22
M  V30 22 2 22 23
M  V30 23 1 23 7
M  V30 24 1 16 10
M  V30 25 1 23 18
M  V30 26 1 1 24
M  V30 27 1 1 25
M  V30 28 1 1 26
M  V30 29 1 3 27
M  V30 30 1 3 28
M  V30 31 1 3 29
M  V30 32 1 4 30
M  V30 33 1 4 31
M  V30 34 1 5 32
M  V30 35 1 5 33
M  V30 36 1 6 34
M  V30 37 1 11 35
M  V30 38 1 12 36
M  V30 39 1 15 37
M  V30 40 1 15 38
M  V30 41 1 16 39
M  V30 42 1 17 40
M  V30 43 1 19 41
M  V30 44 1 21 42
M  V30 45 1 22 43
M  V30 END BOND
M  V30 END CTAB
M  END
>  <Dataset>  (612) 
ChEMBL_Kinases

>  <Ligand_Instance>  (612) 
nan

>  <PDB_ID>  (612) 
nan

>  <Standardized_SMILES>  (612) 
CC(C)(N)CNc1nc(-c2ccnc(N)c2)cc2cnccc12

>  <Name>  (612) 
nan

>  <Pocket>  (612) 
nan

>  <ATP_Site>  (612) 
nan

>  <Peripheral>  (612) 
nan

>  <Num_H_Atoms_ProtBoundConf>  (612) 
nan

>  <Num_Resolved_Atoms>  (612) 
nan

>  <Num_Not_Resolved_Atoms>  (612) 
nan

$$$$
CHEMBL1803083
     RDKit          3D

  0  0  0  0  0  0  0  0  0  0999 V3000
M  V30 BEGIN CTAB
M  V30 COUNTS 36 39 0 0 0
M  V30 BEGIN ATOM
M  V30 1 O -1.322008 0.030761 4.594413 0
M  V30 2 C -1.240077 -0.757430 3.624834 0
M  V30 3 N -1.356701 -2.120779 3.253911 0
M  V30 4 C -1.098606 -2.274677 1.843240 0
M  V30 5 N -1.157703 -3.530652 1.154688 0
M  V30 6 C -0.445664 -3.578464 -0.101782 0
M  V30 7 C 1.033022 -3.530240 0.055631 0
M  V30 8 C 1.689269 -4.624876 0.837260 0
M  V30 9 C 1.647847 -3.179602 1.330479 0
M  V30 10 N -0.830035 -1.096599 1.326602 0
M  V30 11 C -0.900008 -0.132719 2.352883 0
M  V30 12 C -0.694478 1.093155 1.956575 0
M  V30 13 C -0.350286 1.824399 0.758474 0
M  V30 14 C -1.028919 2.925408 0.320502 0
M  V30 15 C -0.662292 3.629440 -0.823017 0
M  V30 16 C 0.436453 3.182355 -1.531609 0
M  V30 17 C 1.075012 2.087008 -1.054896 0
M  V30 18 C 0.765651 1.316975 0.096547 0
M  V30 19 O 2.170955 1.760134 -1.880726 0
M  V30 20 C 2.286610 2.806472 -2.835646 0
M  V30 21 O 1.113494 3.554736 -2.658144 0
M  V30 22 H -1.597833 -2.782967 4.022008 0
M  V30 23 H -1.707572 -4.274501 1.633289 0
M  V30 24 H -0.776456 -4.472119 -0.693297 0
M  V30 25 H -0.776151 -2.684245 -0.695916 0
M  V30 26 H 1.571975 -3.256496 -0.873202 0
M  V30 27 H 0.979560 -5.345649 1.283996 0
M  V30 28 H 2.685076 -4.980950 0.587516 0
M  V30 29 H 1.155729 -3.086675 2.294786 0
M  V30 30 H 2.601041 -2.606291 1.283483 0
M  V30 31 H -0.793151 1.861171 2.750225 0
M  V30 32 H -1.911224 3.298550 0.863212 0
M  V30 33 H -1.194135 4.490971 -1.172246 0
M  V30 34 H 1.327612 0.456535 0.408493 0
M  V30 35 H 2.335279 2.431189 -3.859936 0
M  V30 36 H 3.182378 3.439800 -2.657646 0
M  V30 END ATOM
M  V30 BEGIN BOND
M  V30 1 2 1 2
M  V30 2 1 2 3
M  V30 3 1 3 4
M  V30 4 1 4 5
M  V30 5 1 5 6
M  V30 6 1 6 7
M  V30 7 1 7 8
M  V30 8 1 8 9
M  V30 9 2 4 10
M  V30 10 1 10 11
M  V30 11 2 11 12
M  V30 12 1 12 13
M  V30 13 2 13 14
M  V30 14 1 14 15
M  V30 15 2 15 16
M  V30 16 1 16 17
M  V30 17 2 17 18
M  V30 18 1 17 19
M  V30 19 1 19 20
M  V30 20 1 20 21
M  V30 21 1 11 2
M  V30 22 1 18 13
M  V30 23 1 9 7
M  V30 24 1 21 16
M  V30 25 1 3 22
M  V30 26 1 5 23
M  V30 27 1 6 24
M  V30 28 1 6 25
M  V30 29 1 7 26
M  V30 30 1 8 27
M  V30 31 1 8 28
M  V30 32 1 9 29
M  V30 33 1 9 30
M  V30 34 1 12 31
M  V30 35 1 14 32
M  V30 36 1 15 33
M  V30 37 1 18 34
M  V30 38 1 20 35
M  V30 39 1 20 36
M  V30 END BOND
M  V30 END CTAB
M  END
>  <Dataset>  (613) 
ChEMBL_Kinases

>  <Ligand_Instance>  (613) 
nan

>  <PDB_ID>  (613) 
nan

>  <Standardized_SMILES>  (613) 
O=C1NC(NCC2CC2)=N/C1=C\c1ccc2c(c1)OCO2

>  <Name>  (613) 
nan

>  <Pocket>  (613) 
nan

>  <ATP_Site>  (613) 
nan

>  <Peripheral>  (613) 
nan

>  <Num_H_Atoms_ProtBoundConf>  (613) 
nan

>  <Num_Resolved_Atoms>  (613) 
nan

>  <Num_Not_Resolved_Atoms>  (613) 
nan

$$$$
CHEMBL4781866
     RDKit          3D

  0  0  0  0  0  0  0  0  0  0999 V3000
M  V30 BEGIN CTAB
M  V30 COUNTS 37 39 0 0 0
M  V30 BEGIN ATOM
M  V30 1 C -0.725430 -4.152986 4.442315 0
M  V30 2 C 0.051387 -4.509993 3.243730 0
M  V30 3 C 0.575138 -5.784995 3.154724 0
M  V30 4 C 1.291791 -6.052485 2.005971 0
M  V30 5 N 1.485140 -5.156237 1.022756 0
M  V30 6 C 0.992284 -3.903750 1.069885 0
M  V30 7 N 1.241218 -3.039162 0.005167 0
M  V30 8 C 0.841739 -1.694916 -0.185299 0
M  V30 9 O 0.164352 -1.138390 0.689476 0
M  V30 10 C 1.170653 -0.872082 -1.369943 0
M  V30 11 C 0.582541 0.482282 -1.215958 0
M  V30 12 C -0.692616 0.690515 -1.696373 0
M  V30 13 C -1.383700 1.897629 -1.630123 0
M  V30 14 C -0.700676 2.947288 -1.026198 0
M  V30 15 C -1.322265 4.186293 -0.920852 0
M  V30 16 C -0.651487 5.250481 -0.317795 0
M  V30 17 C 0.635306 5.088854 0.181482 0
M  V30 18 C 1.225925 3.830669 0.057233 0
M  V30 19 C 0.567250 2.769552 -0.539757 0
M  V30 20 C 1.235976 1.563514 -0.615202 0
M  V30 21 C 0.277595 -3.625622 2.207579 0
M  V30 22 H -1.692371 -4.685084 4.414736 0
M  V30 23 H -0.882831 -3.059754 4.549861 0
M  V30 24 H -0.184515 -4.561207 5.336235 0
M  V30 25 H 0.468397 -6.565257 3.895994 0
M  V30 26 H 1.739874 -7.023938 1.846851 0
M  V30 27 H 1.808515 -3.376174 -0.817174 0
M  V30 28 H 2.270897 -0.805390 -1.537220 0
M  V30 29 H 0.745260 -1.348329 -2.281701 0
M  V30 30 H -1.222553 -0.129831 -2.166715 0
M  V30 31 H -2.375359 1.987903 -2.025122 0
M  V30 32 H -2.310484 4.306528 -1.305444 0
M  V30 33 H -1.126739 6.218497 -0.231070 0
M  V30 34 H 1.191599 5.900230 0.660369 0
M  V30 35 H 2.238916 3.708293 0.451725 0
M  V30 36 H 2.218681 1.371290 -0.254447 0
M  V30 37 H -0.151761 -2.670659 2.343276 0
M  V30 END ATOM
M  V30 BEGIN BOND
M  V30 1 1 1 2
M  V30 2 2 2 3
M  V30 3 1 3 4
M  V30 4 2 4 5
M  V30 5 1 5 6
M  V30 6 1 6 7
M  V30 7 1 7 8
M  V30 8 2 8 9
M  V30 9 1 8 10
M  V30 10 1 10 11
M  V30 11 2 11 12
M  V30 12 1 12 13
M  V30 13 2 13 14
M  V30 14 1 14 15
M  V30 15 2 15 16
M  V30 16 1 16 17
M  V30 17 2 17 18
M  V30 18 1 18 19
M  V30 19 2 19 20
M  V30 20 2 6 21
M  V30 21 1 21 2
M  V30 22 1 20 11
M  V30 23 1 19 14
M  V30 24 1 1 22
M  V30 25 1 1 23
M  V30 26 1 1 24
M  V30 27 1 3 25
M  V30 28 1 4 26
M  V30 29 1 7 27
M  V30 30 1 10 28
M  V30 31 1 10 29
M  V30 32 1 12 30
M  V30 33 1 13 31
M  V30 34 1 15 32
M  V30 35 1 16 33
M  V30 36 1 17 34
M  V30 37 1 18 35
M  V30 38 1 20 36
M  V30 39 1 21 37
M  V30 END BOND
M  V30 END CTAB
M  END
>  <Dataset>  (614) 
ChEMBL_Kinases

>  <Ligand_Instance>  (614) 
nan

>  <PDB_ID>  (614) 
nan

>  <Standardized_SMILES>  (614) 
Cc1ccnc(NC(=O)Cc2ccc3ccccc3c2)c1

>  <Name>  (614) 
nan

>  <Pocket>  (614) 
nan

>  <ATP_Site>  (614) 
nan

>  <Peripheral>  (614) 
nan

>  <Num_H_Atoms_ProtBoundConf>  (614) 
nan

>  <Num_Resolved_Atoms>  (614) 
nan

>  <Num_Not_Resolved_Atoms>  (614) 
nan

$$$$
CHEMBL5075360
     RDKit          3D

  0  0  0  0  0  0  0  0  0  0999 V3000
M  V30 BEGIN CTAB
M  V30 COUNTS 63 66 0 0 0
M  V30 BEGIN ATOM
M  V30 1 O 0.453952 -0.481936 3.850868 0
M  V30 2 C 0.402045 -1.713581 4.054875 0
M  V30 3 N 1.178749 -2.515695 3.190174 0
M  V30 4 C 2.065019 -2.307435 2.084746 0
M  V30 5 C 3.304171 -1.552982 2.281252 0
M  V30 6 C 3.327236 -0.165684 2.726436 0
M  V30 7 N 2.678209 0.850981 2.009046 0
M  V30 8 C 2.789962 1.369174 0.714911 0
M  V30 9 C 3.706242 0.941475 -0.178623 0
M  V30 10 C 3.843530 1.420477 -1.488810 0
M  V30 11 N 2.995513 2.384929 -1.893553 0
M  V30 12 C 2.084920 2.825266 -1.037222 0
M  V30 13 N 1.038975 3.816207 -1.175214 0
M  V30 14 C -0.279971 3.257921 -1.355987 0
M  V30 15 C -1.376872 4.097231 -1.444809 0
M  V30 16 C -2.672906 3.649872 -1.601022 0
M  V30 17 C -2.892388 2.278608 -1.674200 0
M  V30 18 C -1.793389 1.433970 -1.586132 0
M  V30 19 N -2.120578 0.053005 -1.664140 0
M  V30 20 C -2.238325 -0.712059 -2.843306 0
M  V30 21 O -2.027592 -0.074059 -3.902956 0
M  V30 22 N -2.579596 -2.109393 -2.724439 0
M  V30 23 C -2.889093 -3.206600 -1.797978 0
M  V30 24 C -1.773499 -4.193774 -2.166432 0
M  V30 25 C -1.905776 -4.184970 -3.681932 0
M  V30 26 C -2.718130 -2.940798 -3.912551 0
M  V30 27 C -0.524577 1.920434 -1.431221 0
M  V30 28 N 2.013392 2.328663 0.182399 0
M  V30 29 C -0.451612 -2.237633 5.161847 0
M  V30 30 C -1.516970 -3.223299 4.656651 0
M  V30 31 C -2.466656 -2.071945 4.392034 0
M  V30 32 C -1.617574 -1.258624 5.359269 0
M  V30 33 H 1.022760 -3.537411 3.490328 0
M  V30 34 H 1.447520 -1.944877 1.213626 0
M  V30 35 H 2.370186 -3.336168 1.722043 0
M  V30 36 H 3.992659 -1.654947 1.386095 0
M  V30 37 H 3.907823 -2.154628 3.051942 0
M  V30 38 H 3.094324 -0.097300 3.821564 0
M  V30 39 H 4.442356 0.153525 2.740021 0
M  V30 40 H 1.916307 1.378328 2.546099 0
M  V30 41 H 4.447569 0.181152 0.019074 0
M  V30 42 H 4.573752 1.086158 -2.211201 0
M  V30 43 H 1.149036 4.840469 -1.157024 0
M  V30 44 H -1.209195 5.175980 -1.387515 0
M  V30 45 H -3.483568 4.379517 -1.661922 0
M  V30 46 H -3.927468 1.923236 -1.798037 0
M  V30 47 H -2.270753 -0.348387 -0.701209 0
M  V30 48 H -2.825629 -2.897452 -0.739599 0
M  V30 49 H -3.865244 -3.644113 -2.039399 0
M  V30 50 H -1.973734 -5.178945 -1.718517 0
M  V30 51 H -0.803419 -3.754602 -1.909669 0
M  V30 52 H -0.921500 -4.145694 -4.199345 0
M  V30 53 H -2.494341 -5.100462 -3.961590 0
M  V30 54 H -3.797812 -3.175277 -4.106609 0
M  V30 55 H -2.344017 -2.460555 -4.830853 0
M  V30 56 H 0.285380 1.229011 -1.369537 0
M  V30 57 H 0.074234 -2.538448 6.064748 0
M  V30 58 H -1.235332 -3.714898 3.683966 0
M  V30 59 H -1.883152 -3.896110 5.445740 0
M  V30 60 H -3.470625 -2.228142 4.795120 0
M  V30 61 H -2.470913 -1.689170 3.363998 0
M  V30 62 H -1.450489 -0.245248 4.979390 0
M  V30 63 H -1.988593 -1.214857 6.384582 0
M  V30 END ATOM
M  V30 BEGIN BOND
M  V30 1 2 1 2
M  V30 2 1 2 3
M  V30 3 1 3 4
M  V30 4 1 4 5
M  V30 5 1 5 6
M  V30 6 1 6 7
M  V30 7 1 7 8
M  V30 8 2 8 9
M  V30 9 1 9 10
M  V30 10 2 10 11
M  V30 11 1 11 12
M  V30 12 1 12 13
M  V30 13 1 13 14
M  V30 14 2 14 15
M  V30 15 1 15 16
M  V30 16 2 16 17
M  V30 17 1 17 18
M  V30 18 1 18 19
M  V30 19 1 19 20
M  V30 20 2 20 21
M  V30 21 1 20 22
M  V30 22 1 22 23
M  V30 23 1 23 24
M  V30 24 1 24 25
M  V30 25 1 25 26
M  V30 26 2 18 27
M  V30 27 2 12 28
M  V30 28 1 2 29
M  V30 29 1 29 30
M  V30 30 1 30 31
M  V30 31 1 31 32
M  V30 32 1 28 8
M  V30 33 1 32 29
M  V30 34 1 27 14
M  V30 35 1 26 22
M  V30 36 1 3 33
M  V30 37 1 4 34
M  V30 38 1 4 35
M  V30 39 1 5 36
M  V30 40 1 5 37
M  V30 41 1 6 38
M  V30 42 1 6 39
M  V30 43 1 7 40
M  V30 44 1 9 41
M  V30 45 1 10 42
M  V30 46 1 13 43
M  V30 47 1 15 44
M  V30 48 1 16 45
M  V30 49 1 17 46
M  V30 50 1 19 47
M  V30 51 1 23 48
M  V30 52 1 23 49
M  V30 53 1 24 50
M  V30 54 1 24 51
M  V30 55 1 25 52
M  V30 56 1 25 53
M  V30 57 1 26 54
M  V30 58 1 26 55
M  V30 59 1 27 56
M  V30 60 1 29 57
M  V30 61 1 30 58
M  V30 62 1 30 59
M  V30 63 1 31 60
M  V30 64 1 31 61
M  V30 65 1 32 62
M  V30 66 1 32 63
M  V30 END BOND
M  V30 END CTAB
M  END
>  <Dataset>  (615) 
ChEMBL_Kinases

>  <Ligand_Instance>  (615) 
nan

>  <PDB_ID>  (615) 
nan

>  <Standardized_SMILES>  (615) 
O=C(NCCCNc1ccnc(Nc2cccc(NC(=O)N3CCCC3)c2)n1)C1CCC1

>  <Name>  (615) 
nan

>  <Pocket>  (615) 
nan

>  <ATP_Site>  (615) 
nan

>  <Peripheral>  (615) 
nan

>  <Num_H_Atoms_ProtBoundConf>  (615) 
nan

>  <Num_Resolved_Atoms>  (615) 
nan

>  <Num_Not_Resolved_Atoms>  (615) 
nan

$$$$
CHEMBL1673046
     RDKit          3D

  0  0  0  0  0  0  0  0  0  0999 V3000
M  V30 BEGIN CTAB
M  V30 COUNTS 65 69 0 0 0
M  V30 BEGIN ATOM
M  V30 1 C 5.171326 -1.392399 2.931400 0
M  V30 2 C 3.984903 -2.306325 2.725761 0
M  V30 3 O 2.792844 -1.619163 2.432941 0
M  V30 4 C 2.702782 -0.846209 1.300452 0
M  V30 5 C 3.537286 -0.529357 0.252200 0
M  V30 6 C 3.097946 0.308926 -0.750194 0
M  V30 7 N 4.009788 0.574234 -1.804352 0
M  V30 8 C 4.016525 1.780408 -2.605245 0
M  V30 9 C 3.782964 1.445979 -4.045195 0
M  V30 10 C 3.689718 -0.049306 -4.279005 0
M  V30 11 O 3.687579 -0.250549 -5.659930 0
M  V30 12 C 4.860665 -0.779658 -3.667021 0
M  V30 13 C 5.061783 -0.348822 -2.250895 0
M  V30 14 C 1.836436 0.864971 -0.766999 0
M  V30 15 C 0.973660 0.567268 0.268928 0
M  V30 16 C 1.420352 -0.283393 1.286468 0
M  V30 17 N 0.386625 -0.450930 2.278959 0
M  V30 18 C -0.947449 0.031309 2.311403 0
M  V30 19 N -1.406932 1.269847 2.626355 0
M  V30 20 C -2.740352 1.526157 2.612004 0
M  V30 21 C -3.580026 0.497975 2.272380 0
M  V30 22 C -3.142701 -0.765716 1.950481 0
M  V30 23 N -1.809852 -0.970015 1.978723 0
M  V30 24 N -3.883535 -1.951675 1.587348 0
M  V30 25 C -3.094643 -2.980168 0.973568 0
M  V30 26 C -5.269132 -2.217084 1.766661 0
M  V30 27 C -5.522223 -3.569466 1.613409 0
M  V30 28 C -6.848296 -3.994776 1.760642 0
M  V30 29 C -7.864724 -3.099429 2.048008 0
M  V30 30 C -7.578560 -1.742375 2.197319 0
M  V30 31 C -6.269764 -1.312803 2.053592 0
M  V30 32 C -6.155781 0.123997 2.241276 0
M  V30 33 O -7.229735 0.730460 2.374205 0
M  V30 34 N -4.957099 0.922820 2.291982 0
M  V30 35 C -5.134359 2.372117 2.371778 0
M  V30 36 H 5.427783 -1.354135 4.037643 0
M  V30 37 H 6.036046 -1.823656 2.418972 0
M  V30 38 H 4.944068 -0.364171 2.571807 0
M  V30 39 H 4.248402 -3.027629 1.894796 0
M  V30 40 H 3.880478 -2.906073 3.673397 0
M  V30 41 H 4.476934 -1.010560 0.356830 0
M  V30 42 H 3.253088 2.518558 -2.261762 0
M  V30 43 H 5.005151 2.299483 -2.522923 0
M  V30 44 H 4.600876 1.846848 -4.653765 0
M  V30 45 H 2.817428 1.894232 -4.402838 0
M  V30 46 H 2.716082 -0.433627 -3.920917 0
M  V30 47 H 2.827498 0.046097 -6.042462 0
M  V30 48 H 5.771392 -0.573877 -4.253137 0
M  V30 49 H 4.640873 -1.860765 -3.794881 0
M  V30 50 H 5.137087 -1.196627 -1.549259 0
M  V30 51 H 6.015004 0.204781 -2.168830 0
M  V30 52 H 1.609756 1.510417 -1.615099 0
M  V30 53 H 0.021752 1.023935 0.190932 0
M  V30 54 H 0.620439 -1.014431 3.132110 0
M  V30 55 H -3.057480 2.506157 2.865716 0
M  V30 56 H -3.530098 -3.388095 0.024810 0
M  V30 57 H -2.116871 -2.545005 0.628727 0
M  V30 58 H -2.786986 -3.786479 1.683024 0
M  V30 59 H -4.748446 -4.277799 1.391562 0
M  V30 60 H -7.027589 -5.074138 1.635014 0
M  V30 61 H -8.844875 -3.540156 2.138888 0
M  V30 62 H -8.397304 -1.077336 2.421593 0
M  V30 63 H -4.572633 2.907580 1.565944 0
M  V30 64 H -5.010428 2.779657 3.373875 0
M  V30 65 H -6.216513 2.552157 2.105618 0
M  V30 END ATOM
M  V30 BEGIN BOND
M  V30 1 1 1 2
M  V30 2 1 2 3
M  V30 3 1 3 4
M  V30 4 2 4 5
M  V30 5 1 5 6
M  V30 6 1 6 7
M  V30 7 1 7 8
M  V30 8 1 8 9
M  V30 9 1 9 10
M  V30 10 1 10 11
M  V30 11 1 10 12
M  V30 12 1 12 13
M  V30 13 2 6 14
M  V30 14 1 14 15
M  V30 15 2 15 16
M  V30 16 1 16 17
M  V30 17 1 17 18
M  V30 18 2 18 19
M  V30 19 1 19 20
M  V30 20 2 20 21
M  V30 21 1 21 22
M  V30 22 2 22 23
M  V30 23 1 22 24
M  V30 24 1 24 25
M  V30 25 1 24 26
M  V30 26 2 26 27
M  V30 27 1 27 28
M  V30 28 2 28 29
M  V30 29 1 29 30
M  V30 30 2 30 31
M  V30 31 1 31 32
M  V30 32 2 32 33
M  V30 33 1 32 34
M  V30 34 1 34 35
M  V30 35 1 16 4
M  V30 36 1 23 18
M  V30 37 1 31 26
M  V30 38 1 13 7
M  V30 39 1 34 21
M  V30 40 1 1 36
M  V30 41 1 1 37
M  V30 42 1 1 38
M  V30 43 1 2 39
M  V30 44 1 2 40
M  V30 45 1 5 41
M  V30 46 1 8 42
M  V30 47 1 8 43
M  V30 48 1 9 44
M  V30 49 1 9 45
M  V30 50 1 10 46
M  V30 51 1 11 47
M  V30 52 1 12 48
M  V30 53 1 12 49
M  V30 54 1 13 50
M  V30 55 1 13 51
M  V30 56 1 14 52
M  V30 57 1 15 53
M  V30 58 1 17 54
M  V30 59 1 20 55
M  V30 60 1 25 56
M  V30 61 1 25 57
M  V30 62 1 25 58
M  V30 63 1 27 59
M  V30 64 1 28 60
M  V30 65 1 29 61
M  V30 66 1 30 62
M  V30 67 1 35 63
M  V30 68 1 35 64
M  V30 69 1 35 65
M  V30 END BOND
M  V30 END CTAB
M  END
>  <Dataset>  (616) 
ChEMBL_Kinases

>  <Ligand_Instance>  (616) 
nan

>  <PDB_ID>  (616) 
nan

>  <Standardized_SMILES>  (616) 
CCOc1cc(N2CCC(O)CC2)ccc1Nc1ncc2c(n1)N(C)c1ccccc1C(=O)N2C

>  <Name>  (616) 
nan

>  <Pocket>  (616) 
nan

>  <ATP_Site>  (616) 
nan

>  <Peripheral>  (616) 
nan

>  <Num_H_Atoms_ProtBoundConf>  (616) 
nan

>  <Num_Resolved_Atoms>  (616) 
nan

>  <Num_Not_Resolved_Atoms>  (616) 
nan

$$$$
CHEMBL4648204
     RDKit          3D

  0  0  0  0  0  0  0  0  0  0999 V3000
M  V30 BEGIN CTAB
M  V30 COUNTS 47 51 0 0 0
M  V30 BEGIN ATOM
M  V30 1 O -1.894711 1.144466 3.041526 0
M  V30 2 C -1.421755 0.339332 2.216683 0
M  V30 3 C -0.108852 0.690925 1.730944 0
M  V30 4 C 0.454240 1.795856 2.188466 0
M  V30 5 C 1.791132 2.240094 1.754021 0
M  V30 6 N 2.581909 1.630509 0.888263 0
M  V30 7 C 3.736437 2.291044 0.706309 0
M  V30 8 C 4.832624 2.028849 -0.087096 0
M  V30 9 C 5.855758 2.972709 0.001835 0
M  V30 10 Br 7.413574 2.664300 -1.080892 0
M  V30 11 C 5.779569 4.083375 0.819349 0
M  V30 12 C 4.658859 4.297924 1.593159 0
M  V30 13 C 3.624991 3.386544 1.532872 0
M  V30 14 N 2.439258 3.341777 2.161922 0
M  V30 15 C -2.276375 -0.776166 1.914378 0
M  V30 16 C -2.003906 -1.803147 1.047826 0
M  V30 17 C -0.760074 -1.891467 0.300096 0
M  V30 18 C 0.296980 -2.583150 0.904339 0
M  V30 19 C 1.452107 -2.663481 0.156009 0
M  V30 20 C 1.525617 -2.082526 -1.113704 0
M  V30 21 C 0.447343 -1.416612 -1.647390 0
M  V30 22 C -0.745286 -1.290522 -0.964743 0
M  V30 23 C -2.847780 -2.859323 0.778825 0
M  V30 24 C -2.566999 -3.888425 -0.093880 0
M  V30 25 C -3.446482 -4.922371 -0.327681 0
M  V30 26 Cl -3.009445 -6.192406 -1.454809 0
M  V30 27 C -4.661027 -4.954599 0.322186 0
M  V30 28 C -4.968893 -3.935299 1.203053 0
M  V30 29 C -4.068214 -2.914509 1.415951 0
M  V30 30 N -4.362178 -1.922475 2.270117 0
M  V30 31 C -3.513401 -0.915297 2.502223 0
M  V30 32 O -3.923517 -0.039762 3.339495 0
M  V30 33 H 0.565542 0.227007 1.031194 0
M  V30 34 H -0.031798 2.460884 2.923216 0
M  V30 35 H 4.880277 1.163130 -0.717782 0
M  V30 36 H 6.617524 4.797456 0.851046 0
M  V30 37 H 4.588528 5.162695 2.235813 0
M  V30 38 H 2.086788 4.048892 2.851666 0
M  V30 39 H 0.148158 -2.999163 1.889845 0
M  V30 40 H 2.271811 -3.196941 0.618495 0
M  V30 41 H 2.450315 -2.184109 -1.635027 0
M  V30 42 H 0.490421 -0.958237 -2.637367 0
M  V30 43 H -1.623961 -0.786947 -1.318139 0
M  V30 44 H -1.609706 -3.872051 -0.612392 0
M  V30 45 H -5.340420 -5.763528 0.134459 0
M  V30 46 H -5.927582 -3.930655 1.736987 0
M  V30 47 H -5.287312 -1.968870 2.749930 0
M  V30 END ATOM
M  V30 BEGIN BOND
M  V30 1 2 1 2
M  V30 2 1 2 3
M  V30 3 2 3 4
M  V30 4 1 4 5
M  V30 5 2 5 6
M  V30 6 1 6 7
M  V30 7 2 7 8
M  V30 8 1 8 9
M  V30 9 1 9 10
M  V30 10 2 9 11
M  V30 11 1 11 12
M  V30 12 2 12 13
M  V30 13 1 13 14
M  V30 14 1 2 15
M  V30 15 2 15 16
M  V30 16 1 16 17
M  V30 17 2 17 18
M  V30 18 1 18 19
M  V30 19 2 19 20
M  V30 20 1 20 21
M  V30 21 2 21 22
M  V30 22 1 16 23
M  V30 23 2 23 24
M  V30 24 1 24 25
M  V30 25 1 25 26
M  V30 26 2 25 27
M  V30 27 1 27 28
M  V30 28 2 28 29
M  V30 29 1 29 30
M  V30 30 1 30 31
M  V30 31 2 31 32
M  V30 32 1 14 5
M  V30 33 1 31 15
M  V30 34 1 13 7
M  V30 35 1 22 17
M  V30 36 1 29 23
M  V30 37 1 3 33
M  V30 38 1 4 34
M  V30 39 1 8 35
M  V30 40 1 11 36
M  V30 41 1 12 37
M  V30 42 1 14 38
M  V30 43 1 18 39
M  V30 44 1 19 40
M  V30 45 1 20 41
M  V30 46 1 21 42
M  V30 47 1 22 43
M  V30 48 1 24 44
M  V30 49 1 27 45
M  V30 50 1 28 46
M  V30 51 1 30 47
M  V30 END BOND
M  V30 END CTAB
M  END
>  <Dataset>  (617) 
ChEMBL_Kinases

>  <Ligand_Instance>  (617) 
nan

>  <PDB_ID>  (617) 
nan

>  <Standardized_SMILES>  (617) 
O=C(/C=C/c1nc2cc(Br)ccc2[nH]1)c1c(-c2ccccc2)c2cc(Cl)ccc2[nH]c1=O

>  <Name>  (617) 
nan

>  <Pocket>  (617) 
nan

>  <ATP_Site>  (617) 
nan

>  <Peripheral>  (617) 
nan

>  <Num_H_Atoms_ProtBoundConf>  (617) 
nan

>  <Num_Resolved_Atoms>  (617) 
nan

>  <Num_Not_Resolved_Atoms>  (617) 
nan

$$$$
CHEMBL4435393
     RDKit          3D

  0  0  0  0  0  0  0  0  0  0999 V3000
M  V30 BEGIN CTAB
M  V30 COUNTS 71 76 0 0 0
M  V30 BEGIN ATOM
M  V30 1 C 2.344248 -1.447771 4.508088 0
M  V30 2 C 1.122412 -2.322525 4.512439 0 CFG=2
M  V30 3 C 1.379402 -3.586462 3.825696 0
M  V30 4 C 1.845235 -4.677566 4.581164 0
M  V30 5 C 2.149335 -5.945716 4.133443 0
M  V30 6 N 1.979847 -6.164292 2.817526 0
M  V30 7 C 1.538487 -5.191053 1.999664 0
M  V30 8 N 1.346544 -5.397155 0.584339 0
M  V30 9 C 0.873173 -4.359811 -0.268633 0
M  V30 10 N -0.474797 -4.390628 -0.316501 0
M  V30 11 C -0.943358 -3.400880 -1.131572 0
M  V30 12 C -2.149818 -2.919419 -1.580462 0
M  V30 13 C -2.175342 -1.841869 -2.441429 0
M  V30 14 C -0.995425 -1.230312 -2.865649 0
M  V30 15 C -1.158763 -0.102013 -3.773837 0
M  V30 16 C -0.311651 0.327522 -4.788332 0
M  V30 17 N -0.883826 1.419998 -5.366612 0
M  V30 18 N -2.031096 1.678207 -4.760279 0
M  V30 19 C -2.875389 2.779712 -5.149993 0
M  V30 20 C -3.876421 2.383470 -6.210175 0
M  V30 21 C -3.329895 1.875285 -7.499278 0
M  V30 22 C -4.045622 0.953676 -6.572566 0
M  V30 23 C -2.242132 0.786172 -3.790082 0
M  V30 24 C 0.228462 -1.694879 -2.429410 0
M  V30 25 C 0.217939 -2.774712 -1.568696 0
M  V30 26 N 1.314139 -3.355455 -1.046282 0
M  V30 27 C 1.252195 -3.947069 2.504850 0
M  V30 28 N -0.105234 -1.645167 4.190628 0
M  V30 29 C -0.450861 -0.699501 5.234531 0
M  V30 30 C 0.079255 0.673330 5.068393 0
M  V30 31 N 0.069584 1.185594 3.720279 0
M  V30 32 C 0.870338 2.338464 3.527699 0
M  V30 33 O 1.391273 2.605278 4.653582 0
M  V30 34 C 0.942929 2.956761 2.178986 0
M  V30 35 C 1.837293 4.166711 2.167280 0
M  V30 36 F 1.864855 4.699523 0.881698 0
M  V30 37 F 3.135722 3.812569 2.479906 0
M  V30 38 F 1.376432 5.168045 2.992917 0
M  V30 39 C -0.785445 0.350885 2.910692 0
M  V30 40 C -0.141404 -1.038251 2.882855 0
M  V30 41 H 3.224781 -2.138790 4.342477 0
M  V30 42 H 2.403858 -0.724559 3.693681 0
M  V30 43 H 2.560222 -0.983258 5.489997 0
M  V30 44 H 0.984695 -2.577457 5.626549 0
M  V30 45 H 1.992557 -4.527071 5.660772 0
M  V30 46 H 2.501113 -6.703156 4.816201 0
M  V30 47 H 1.576099 -6.350347 0.228420 0
M  V30 48 H -3.006627 -3.450057 -1.203138 0
M  V30 49 H -3.158462 -1.497483 -2.769294 0
M  V30 50 H 0.645459 -0.140152 -5.062516 0
M  V30 51 H -2.303590 3.654591 -5.487502 0
M  V30 52 H -3.485716 3.152417 -4.280843 0
M  V30 53 H -4.780360 3.012493 -6.308436 0
M  V30 54 H -3.820767 2.112122 -8.464621 0
M  V30 55 H -2.222209 1.785991 -7.609506 0
M  V30 56 H -5.057744 0.606339 -6.871720 0
M  V30 57 H -3.439911 0.161103 -6.125365 0
M  V30 58 H -3.120284 0.764106 -3.125468 0
M  V30 59 H 1.133600 -1.210212 -2.768248 0
M  V30 60 H 2.330658 -3.251801 -1.075179 0
M  V30 61 H 0.904774 -3.184573 1.834779 0
M  V30 62 H 0.018356 -1.119875 6.171561 0
M  V30 63 H -1.550031 -0.743873 5.378024 0
M  V30 64 H 1.060147 0.870175 5.582422 0
M  V30 65 H -0.629257 1.355281 5.631533 0
M  V30 66 H -0.077747 3.280956 1.872578 0
M  V30 67 H 1.330758 2.240056 1.435004 0
M  V30 68 H -0.792263 0.701928 1.858807 0
M  V30 69 H -1.771477 0.281674 3.366331 0
M  V30 70 H 0.820243 -0.899367 2.396830 0
M  V30 71 H -0.816223 -1.635325 2.238600 0
M  V30 END ATOM
M  V30 BEGIN BOND
M  V30 1 1 1 2
M  V30 2 1 2 3
M  V30 3 2 3 4
M  V30 4 1 4 5
M  V30 5 2 5 6
M  V30 6 1 6 7
M  V30 7 1 7 8
M  V30 8 1 8 9
M  V30 9 2 9 10
M  V30 10 1 10 11
M  V30 11 2 11 12
M  V30 12 1 12 13
M  V30 13 2 13 14
M  V30 14 1 14 15
M  V30 15 1 15 16
M  V30 16 2 16 17
M  V30 17 1 17 18
M  V30 18 1 18 19
M  V30 19 1 19 20
M  V30 20 1 20 21
M  V30 21 1 21 22
M  V30 22 1 18 23
M  V30 23 1 14 24
M  V30 24 2 24 25
M  V30 25 1 25 26
M  V30 26 2 7 27
M  V30 27 1 2 28
M  V30 28 1 28 29
M  V30 29 1 29 30
M  V30 30 1 30 31
M  V30 31 1 31 32
M  V30 32 2 32 33
M  V30 33 1 32 34
M  V30 34 1 34 35
M  V30 35 1 35 36
M  V30 36 1 35 37
M  V30 37 1 35 38
M  V30 38 1 31 39
M  V30 39 1 39 40
M  V30 40 1 27 3
M  V30 41 1 40 28
M  V30 42 1 26 9
M  V30 43 1 25 11
M  V30 44 2 23 15
M  V30 45 1 22 20
M  V30 46 1 1 41
M  V30 47 1 1 42
M  V30 48 1 1 43
M  V30 49 1 2 44 CFG=1
M  V30 50 1 4 45
M  V30 51 1 5 46
M  V30 52 1 8 47
M  V30 53 1 12 48
M  V30 54 1 13 49
M  V30 55 1 16 50
M  V30 56 1 19 51
M  V30 57 1 19 52
M  V30 58 1 20 53
M  V30 59 1 21 54
M  V30 60 1 21 55
M  V30 61 1 22 56
M  V30 62 1 22 57
M  V30 63 1 23 58
M  V30 64 1 24 59
M  V30 65 1 26 60
M  V30 66 1 27 61
M  V30 67 1 29 62
M  V30 68 1 29 63
M  V30 69 1 30 64
M  V30 70 1 30 65
M  V30 71 1 34 66
M  V30 72 1 34 67
M  V30 73 1 39 68
M  V30 74 1 39 69
M  V30 75 1 40 70
M  V30 76 1 40 71
M  V30 END BOND
M  V30 END CTAB
M  END
>  <Dataset>  (618) 
ChEMBL_Kinases

>  <Ligand_Instance>  (618) 
nan

>  <PDB_ID>  (618) 
nan

>  <Standardized_SMILES>  (618) 
C[C@H](c1ccnc(Nc2nc3ccc(-c4cnn(CC5CC5)c4)cc3[nH]2)c1)N1CCN(C(=O)CC(F)(F)F)CC1

>  <Name>  (618) 
nan

>  <Pocket>  (618) 
nan

>  <ATP_Site>  (618) 
nan

>  <Peripheral>  (618) 
nan

>  <Num_H_Atoms_ProtBoundConf>  (618) 
nan

>  <Num_Resolved_Atoms>  (618) 
nan

>  <Num_Not_Resolved_Atoms>  (618) 
nan

$$$$
CHEMBL213618
     RDKit          3D

  0  0  0  0  0  0  0  0  0  0999 V3000
M  V30 BEGIN CTAB
M  V30 COUNTS 47 49 0 0 0
M  V30 BEGIN ATOM
M  V30 1 C 4.139205 -7.982502 2.161383 0
M  V30 2 N 3.435138 -6.718961 2.261854 0
M  V30 3 C 3.321590 -5.907763 1.099685 0
M  V30 4 N 3.840614 -6.269091 -0.085071 0
M  V30 5 C 3.755692 -5.529303 -1.212164 0
M  V30 6 C 3.081099 -4.313376 -1.119796 0
M  V30 7 C 2.546999 -3.939903 0.095866 0
M  V30 8 C 1.856556 -2.669359 0.138673 0
M  V30 9 C 1.244330 -2.040319 1.148454 0
M  V30 10 C 0.638400 -0.827899 0.998680 0
M  V30 11 C 0.713647 -0.304155 -0.296373 0
M  V30 12 C 0.219063 0.949792 -0.931592 0
M  V30 13 O 0.462394 1.108132 -2.125926 0
M  V30 14 N -0.463902 1.753173 -0.004207 0
M  V30 15 C -1.026535 3.010006 -0.396845 0 CFG=2
M  V30 16 C -0.511627 4.076977 0.547957 0
M  V30 17 N 0.957449 4.130932 0.465483 0
M  V30 18 C -2.524146 3.069166 -0.443609 0
M  V30 19 C -3.220706 2.781020 0.811968 0
M  V30 20 C -3.622392 3.870662 1.597460 0
M  V30 21 C -4.265688 3.771897 2.824120 0
M  V30 22 C -4.532649 2.511979 3.312545 0
M  V30 23 Cl -5.338891 2.375988 4.852885 0
M  V30 24 C -4.157331 1.408491 2.575732 0
M  V30 25 C -3.522269 1.553338 1.364320 0
M  V30 26 Cl -3.104384 0.141058 0.455611 0
M  V30 27 S 1.664368 -1.604892 -1.233092 0
M  V30 28 N 2.666390 -4.711832 1.159992 0
M  V30 29 H 5.212287 -7.877800 2.365830 0
M  V30 30 H 3.975478 -8.455810 1.166618 0
M  V30 31 H 3.729182 -8.722328 2.908139 0
M  V30 32 H 3.009886 -6.385673 3.153764 0
M  V30 33 H 4.194287 -5.877972 -2.130553 0
M  V30 34 H 3.045119 -3.762966 -2.055905 0
M  V30 35 H 1.229570 -2.521410 2.140770 0
M  V30 36 H 0.121340 -0.239923 1.741277 0
M  V30 37 H -0.611002 1.544343 1.005856 0
M  V30 38 H -0.680016 3.282844 -1.451257 0
M  V30 39 H -0.884490 5.079823 0.287762 0
M  V30 40 H -0.728905 3.773772 1.582168 0
M  V30 41 H 1.403483 3.270329 0.854252 0
M  V30 42 H 1.322758 4.938746 0.999682 0
M  V30 43 H -2.832463 2.271794 -1.176285 0
M  V30 44 H -2.856267 4.065165 -0.819914 0
M  V30 45 H -3.419119 4.884679 1.227819 0
M  V30 46 H -4.531037 4.680213 3.346815 0
M  V30 47 H -4.362419 0.414647 2.950762 0
M  V30 END ATOM
M  V30 BEGIN BOND
M  V30 1 1 1 2
M  V30 2 1 2 3
M  V30 3 2 3 4
M  V30 4 1 4 5
M  V30 5 2 5 6
M  V30 6 1 6 7
M  V30 7 1 7 8
M  V30 8 2 8 9
M  V30 9 1 9 10
M  V30 10 2 10 11
M  V30 11 1 11 12
M  V30 12 2 12 13
M  V30 13 1 12 14
M  V30 14 1 14 15
M  V30 15 1 15 16
M  V30 16 1 16 17
M  V30 17 1 15 18
M  V30 18 1 18 19
M  V30 19 2 19 20
M  V30 20 1 20 21
M  V30 21 2 21 22
M  V30 22 1 22 23
M  V30 23 1 22 24
M  V30 24 2 24 25
M  V30 25 1 25 26
M  V30 26 1 11 27
M  V30 27 2 7 28
M  V30 28 1 28 3
M  V30 29 1 27 8
M  V30 30 1 25 19
M  V30 31 1 1 29
M  V30 32 1 1 30
M  V30 33 1 1 31
M  V30 34 1 2 32
M  V30 35 1 5 33
M  V30 36 1 6 34
M  V30 37 1 9 35
M  V30 38 1 10 36
M  V30 39 1 14 37
M  V30 40 1 15 38 CFG=3
M  V30 41 1 16 39
M  V30 42 1 16 40
M  V30 43 1 17 41
M  V30 44 1 17 42
M  V30 45 1 18 43
M  V30 46 1 18 44
M  V30 47 1 20 45
M  V30 48 1 21 46
M  V30 49 1 24 47
M  V30 END BOND
M  V30 END CTAB
M  END
>  <Dataset>  (619) 
ChEMBL_Kinases

>  <Ligand_Instance>  (619) 
nan

>  <PDB_ID>  (619) 
nan

>  <Standardized_SMILES>  (619) 
CNc1nccc(-c2ccc(C(=O)N[C@H](CN)Cc3ccc(Cl)cc3Cl)s2)n1

>  <Name>  (619) 
nan

>  <Pocket>  (619) 
nan

>  <ATP_Site>  (619) 
nan

>  <Peripheral>  (619) 
nan

>  <Num_H_Atoms_ProtBoundConf>  (619) 
nan

>  <Num_Resolved_Atoms>  (619) 
nan

>  <Num_Not_Resolved_Atoms>  (619) 
nan

$$$$
CHEMBL1673047
     RDKit          3D

  0  0  0  0  0  0  0  0  0  0999 V3000
M  V30 BEGIN CTAB
M  V30 COUNTS 47 50 0 0 0
M  V30 BEGIN ATOM
M  V30 1 C 2.037757 -2.487621 5.287663 0
M  V30 2 N 2.259984 -1.959612 3.957486 0
M  V30 3 C 3.599071 -1.673645 3.534024 0
M  V30 4 O 4.486365 -2.085457 4.322578 0
M  V30 5 C 4.062221 -0.972768 2.317222 0
M  V30 6 C 5.436256 -1.026449 2.197937 0
M  V30 7 C 6.030411 -0.412313 1.103277 0
M  V30 8 C 5.274495 0.241797 0.146722 0
M  V30 9 C 3.883057 0.305807 0.251725 0
M  V30 10 C 3.325567 -0.314340 1.350697 0
M  V30 11 N 1.905795 -0.176828 1.339777 0
M  V30 12 C 1.358390 0.903782 0.570190 0
M  V30 13 C 0.944293 -0.988412 2.006279 0
M  V30 14 N -0.254969 -0.961677 1.408532 0
M  V30 15 C -1.328826 -1.638919 1.837747 0
M  V30 16 N -2.615758 -1.645744 1.244865 0
M  V30 17 C -3.030964 -0.947663 0.088415 0
M  V30 18 C -2.266619 -0.119346 -0.699127 0
M  V30 19 C -2.699206 0.548956 -1.822308 0
M  V30 20 C -3.998044 0.393625 -2.211799 0
M  V30 21 S -4.566411 1.234525 -3.636250 0
M  V30 22 N -5.167040 2.769644 -3.119639 0
M  V30 23 O -3.452627 1.450932 -4.601939 0
M  V30 24 O -5.713388 0.465228 -4.243479 0
M  V30 25 C -4.813971 -0.419387 -1.469364 0
M  V30 26 C -4.327593 -1.056282 -0.364502 0
M  V30 27 N -1.127769 -2.374914 2.944145 0
M  V30 28 C 0.032080 -2.463724 3.608832 0
M  V30 29 C 1.114950 -1.753802 3.138873 0
M  V30 30 H 2.959840 -2.202176 5.875119 0
M  V30 31 H 2.008808 -3.578736 5.340805 0
M  V30 32 H 1.224607 -1.958926 5.826127 0
M  V30 33 H 6.053833 -1.533038 2.933910 0
M  V30 34 H 7.120332 -0.443068 0.989289 0
M  V30 35 H 5.702468 0.736492 -0.727416 0
M  V30 36 H 3.227293 0.797890 -0.454781 0
M  V30 37 H 1.930714 1.859877 0.707325 0
M  V30 38 H 0.338082 1.189324 0.965410 0
M  V30 39 H 1.174270 0.657179 -0.498324 0
M  V30 40 H -3.353893 -2.232999 1.708780 0
M  V30 41 H -1.232379 0.039896 -0.438222 0
M  V30 42 H -2.033448 1.184068 -2.389086 0
M  V30 43 H -4.354769 3.334541 -2.773608 0
M  V30 44 H -5.818327 2.663367 -2.312929 0
M  V30 45 H -5.848300 -0.542265 -1.780668 0
M  V30 46 H -5.047347 -1.688563 0.173274 0
M  V30 47 H 0.150797 -3.062528 4.488012 0
M  V30 END ATOM
M  V30 BEGIN BOND
M  V30 1 1 1 2
M  V30 2 1 2 3
M  V30 3 2 3 4
M  V30 4 1 3 5
M  V30 5 2 5 6
M  V30 6 1 6 7
M  V30 7 2 7 8
M  V30 8 1 8 9
M  V30 9 2 9 10
M  V30 10 1 10 11
M  V30 11 1 11 12
M  V30 12 1 11 13
M  V30 13 2 13 14
M  V30 14 1 14 15
M  V30 15 1 15 16
M  V30 16 1 16 17
M  V30 17 2 17 18
M  V30 18 1 18 19
M  V30 19 2 19 20
M  V30 20 1 20 21
M  V30 21 1 21 22
M  V30 22 2 21 23
M  V30 23 2 21 24
M  V30 24 1 20 25
M  V30 25 2 25 26
M  V30 26 2 15 27
M  V30 27 1 27 28
M  V30 28 2 28 29
M  V30 29 1 29 2
M  V30 30 1 10 5
M  V30 31 1 29 13
M  V30 32 1 26 17
M  V30 33 1 1 30
M  V30 34 1 1 31
M  V30 35 1 1 32
M  V30 36 1 6 33
M  V30 37 1 7 34
M  V30 38 1 8 35
M  V30 39 1 9 36
M  V30 40 1 12 37
M  V30 41 1 12 38
M  V30 42 1 12 39
M  V30 43 1 16 40
M  V30 44 1 18 41
M  V30 45 1 19 42
M  V30 46 1 22 43
M  V30 47 1 22 44
M  V30 48 1 25 45
M  V30 49 1 26 46
M  V30 50 1 28 47
M  V30 END BOND
M  V30 END CTAB
M  END
>  <Dataset>  (620) 
ChEMBL_Kinases

>  <Ligand_Instance>  (620) 
nan

>  <PDB_ID>  (620) 
nan

>  <Standardized_SMILES>  (620) 
CN1C(=O)c2ccccc2N(C)c2nc(Nc3ccc(S(N)(=O)=O)cc3)ncc21

>  <Name>  (620) 
nan

>  <Pocket>  (620) 
nan

>  <ATP_Site>  (620) 
nan

>  <Peripheral>  (620) 
nan

>  <Num_H_Atoms_ProtBoundConf>  (620) 
nan

>  <Num_Resolved_Atoms>  (620) 
nan

>  <Num_Not_Resolved_Atoms>  (620) 
nan

$$$$
CHEMBL2147550
     RDKit          3D

  0  0  0  0  0  0  0  0  0  0999 V3000
M  V30 BEGIN CTAB
M  V30 COUNTS 41 43 0 0 0
M  V30 BEGIN ATOM
M  V30 1 C -0.715401 -4.363506 -0.105903 0
M  V30 2 C 0.502428 -3.977686 0.702321 0
M  V30 3 C 0.425386 -4.459236 2.136224 0
M  V30 4 N 1.697219 -4.550858 0.114357 0
M  V30 5 C 0.653660 -2.496807 0.643165 0
M  V30 6 N -0.468098 -1.747997 1.168711 0
M  V30 7 C -0.466554 -0.324839 1.178675 0
M  V30 8 N 0.614693 0.299887 0.682215 0
M  V30 9 C 0.762256 1.632909 0.623828 0
M  V30 10 C 1.995983 2.137917 0.055734 0
M  V30 11 C 2.934110 1.229300 -0.386275 0
M  V30 12 C 4.133851 1.648529 -0.939258 0
M  V30 13 N 4.448766 2.940141 -1.075225 0
M  V30 14 C 3.561280 3.849641 -0.656687 0
M  V30 15 C 2.383635 3.441192 -0.113867 0
M  V30 16 F 1.540725 4.405667 0.284452 0
M  V30 17 C -0.304802 2.333211 1.123664 0
M  V30 18 C -1.443409 1.780419 1.647252 0
M  V30 19 C -2.456080 2.582805 2.122632 0
M  V30 20 N -3.540354 1.993302 2.620744 0
M  V30 21 C -3.628457 0.642788 2.651437 0
M  V30 22 C -2.642766 -0.203166 2.188237 0
M  V30 23 C -1.521836 0.409855 1.673309 0
M  V30 24 H -1.605705 -4.408667 0.531750 0
M  V30 25 H -0.545421 -5.321164 -0.666076 0
M  V30 26 H -0.854334 -3.602086 -0.900725 0
M  V30 27 H 1.332497 -5.059577 2.432514 0
M  V30 28 H -0.441681 -5.145560 2.211413 0
M  V30 29 H 0.388643 -3.621689 2.853326 0
M  V30 30 H 2.512479 -3.905834 0.327571 0
M  V30 31 H 1.624799 -4.539615 -0.945988 0
M  V30 32 H 1.589263 -2.140359 1.147555 0
M  V30 33 H 0.784702 -2.194381 -0.426527 0
M  V30 34 H -1.227918 -2.363278 1.516278 0
M  V30 35 H 2.782207 0.140031 -0.324314 0
M  V30 36 H 4.847226 0.908456 -1.275759 0
M  V30 37 H 3.812701 4.886311 -0.765195 0
M  V30 38 H -0.253919 3.406630 1.108136 0
M  V30 39 H -2.395461 3.677551 2.102753 0
M  V30 40 H -4.537302 0.243120 3.069663 0
M  V30 41 H -2.726176 -1.259413 2.218963 0
M  V30 END ATOM
M  V30 BEGIN BOND
M  V30 1 1 1 2
M  V30 2 1 2 3
M  V30 3 1 2 4
M  V30 4 1 2 5
M  V30 5 1 5 6
M  V30 6 1 6 7
M  V30 7 2 7 8
M  V30 8 1 8 9
M  V30 9 1 9 10
M  V30 10 2 10 11
M  V30 11 1 11 12
M  V30 12 2 12 13
M  V30 13 1 13 14
M  V30 14 2 14 15
M  V30 15 1 15 16
M  V30 16 2 9 17
M  V30 17 1 17 18
M  V30 18 2 18 19
M  V30 19 1 19 20
M  V30 20 2 20 21
M  V30 21 1 21 22
M  V30 22 2 22 23
M  V30 23 1 23 7
M  V30 24 1 15 10
M  V30 25 1 23 18
M  V30 26 1 1 24
M  V30 27 1 1 25
M  V30 28 1 1 26
M  V30 29 1 3 27
M  V30 30 1 3 28
M  V30 31 1 3 29
M  V30 32 1 4 30
M  V30 33 1 4 31
M  V30 34 1 5 32
M  V30 35 1 5 33
M  V30 36 1 6 34
M  V30 37 1 11 35
M  V30 38 1 12 36
M  V30 39 1 14 37
M  V30 40 1 17 38
M  V30 41 1 19 39
M  V30 42 1 21 40
M  V30 43 1 22 41
M  V30 END BOND
M  V30 END CTAB
M  END
>  <Dataset>  (621) 
ChEMBL_Kinases

>  <Ligand_Instance>  (621) 
nan

>  <PDB_ID>  (621) 
nan

>  <Standardized_SMILES>  (621) 
CC(C)(N)CNc1nc(-c2ccncc2F)cc2cnccc12

>  <Name>  (621) 
nan

>  <Pocket>  (621) 
nan

>  <ATP_Site>  (621) 
nan

>  <Peripheral>  (621) 
nan

>  <Num_H_Atoms_ProtBoundConf>  (621) 
nan

>  <Num_Resolved_Atoms>  (621) 
nan

>  <Num_Not_Resolved_Atoms>  (621) 
nan

$$$$
CHEMBL1794070
     RDKit          3D

  0  0  0  0  0  0  0  0  0  0999 V3000
M  V30 BEGIN CTAB
M  V30 COUNTS 62 66 0 0 0
M  V30 BEGIN ATOM
M  V30 1 C 0.493279 1.487518 5.850769 0
M  V30 2 C -0.096995 0.924102 4.551175 0 CFG=1
M  V30 3 O 0.374501 -0.377344 4.397776 0
M  V30 4 C 1.229201 -0.803487 3.389007 0
M  V30 5 C 1.760413 -0.068135 2.387586 0
M  V30 6 C 2.572721 -0.618878 1.483679 0
M  V30 7 N 3.233824 -0.005926 0.353212 0
M  V30 8 C 4.420648 0.622497 0.484939 0
M  V30 9 N 4.800025 1.099587 -0.735600 0
M  V30 10 C 3.857234 0.774504 -1.636523 0
M  V30 11 C 3.661702 0.965816 -3.007780 0
M  V30 12 C 2.525365 0.470113 -3.620245 0
M  V30 13 C 1.560332 -0.226044 -2.881349 0
M  V30 14 O 0.509754 -0.631677 -3.689382 0
M  V30 15 C -0.621365 -1.341351 -3.308052 0
M  V30 16 C -0.644401 -2.711933 -3.952304 0
M  V30 17 C -1.878562 -3.474805 -3.606987 0
M  V30 18 N -3.034618 -2.704707 -4.001532 0
M  V30 19 C -3.100749 -2.565660 -5.423884 0
M  V30 20 C -3.077010 -1.460939 -3.282453 0
M  V30 21 C -1.904668 -0.569681 -3.525035 0
M  V30 22 C 1.776240 -0.401128 -1.532485 0
M  V30 23 C 2.899468 0.093460 -0.948011 0
M  V30 24 S 2.671454 -2.288943 1.973824 0
M  V30 25 C 1.597233 -2.148689 3.389666 0
M  V30 26 C 1.233201 -3.270826 4.307193 0
M  V30 27 N 1.783121 -4.525587 4.024577 0
M  V30 28 O 0.474542 -2.964269 5.229890 0
M  V30 29 C -1.570807 0.979441 4.732523 0
M  V30 30 C -2.138759 -0.157641 5.306170 0
M  V30 31 C -3.510965 -0.246575 5.536996 0
M  V30 32 C -4.267316 0.849188 5.166790 0
M  V30 33 C -3.738070 1.989269 4.597286 0
M  V30 34 C -2.379671 2.038910 4.385471 0
M  V30 35 Cl -1.612243 3.439753 3.668733 0
M  V30 36 H 0.099154 2.529499 5.971751 0
M  V30 37 H 1.592181 1.597724 5.751971 0
M  V30 38 H 0.191596 0.906397 6.735229 0
M  V30 39 H 0.258936 1.642847 3.765926 0
M  V30 40 H 1.526346 1.007807 2.304291 0
M  V30 41 H 5.035586 0.770077 1.367265 0
M  V30 42 H 4.445517 1.510007 -3.510450 0
M  V30 43 H 2.517920 0.700495 -4.693334 0
M  V30 44 H -0.556199 -1.533869 -2.216779 0
M  V30 45 H 0.212351 -3.270169 -3.483009 0
M  V30 46 H -0.506040 -2.715450 -5.031448 0
M  V30 47 H -1.889355 -4.398013 -4.243702 0
M  V30 48 H -1.945138 -3.749323 -2.534420 0
M  V30 49 H -4.139629 -2.600735 -5.795304 0
M  V30 50 H -2.568966 -1.658541 -5.794999 0
M  V30 51 H -2.555300 -3.424159 -5.900861 0
M  V30 52 H -4.008617 -0.918943 -3.540841 0
M  V30 53 H -3.148764 -1.704560 -2.209972 0
M  V30 54 H -1.927110 -0.045255 -4.492606 0
M  V30 55 H -1.935501 0.219870 -2.735052 0
M  V30 56 H 0.999513 -0.936835 -1.049867 0
M  V30 57 H 2.678429 -5.068047 4.085281 0
M  V30 58 H 1.185346 -5.269832 3.600142 0
M  V30 59 H -1.551661 -1.010903 5.594773 0
M  V30 60 H -3.954461 -1.130074 5.982906 0
M  V30 61 H -5.339396 0.746220 5.361836 0
M  V30 62 H -4.375981 2.811597 4.329339 0
M  V30 END ATOM
M  V30 BEGIN BOND
M  V30 1 1 1 2
M  V30 2 1 2 3
M  V30 3 1 3 4
M  V30 4 1 4 5
M  V30 5 2 5 6
M  V30 6 1 6 7
M  V30 7 1 7 8
M  V30 8 2 8 9
M  V30 9 1 9 10
M  V30 10 2 10 11
M  V30 11 1 11 12
M  V30 12 2 12 13
M  V30 13 1 13 14
M  V30 14 1 14 15
M  V30 15 1 15 16
M  V30 16 1 16 17
M  V30 17 1 17 18
M  V30 18 1 18 19
M  V30 19 1 18 20
M  V30 20 1 20 21
M  V30 21 1 13 22
M  V30 22 2 22 23
M  V30 23 1 6 24
M  V30 24 1 24 25
M  V30 25 1 25 26
M  V30 26 1 26 27
M  V30 27 2 26 28
M  V30 28 1 2 29
M  V30 29 2 29 30
M  V30 30 1 30 31
M  V30 31 2 31 32
M  V30 32 1 32 33
M  V30 33 2 33 34
M  V30 34 1 34 35
M  V30 35 2 25 4
M  V30 36 1 34 29
M  V30 37 1 23 7
M  V30 38 1 23 10
M  V30 39 1 21 15
M  V30 40 1 1 36
M  V30 41 1 1 37
M  V30 42 1 1 38
M  V30 43 1 2 39 CFG=3
M  V30 44 1 5 40
M  V30 45 1 8 41
M  V30 46 1 11 42
M  V30 47 1 12 43
M  V30 48 1 15 44
M  V30 49 1 16 45
M  V30 50 1 16 46
M  V30 51 1 17 47
M  V30 52 1 17 48
M  V30 53 1 19 49
M  V30 54 1 19 50
M  V30 55 1 19 51
M  V30 56 1 20 52
M  V30 57 1 20 53
M  V30 58 1 21 54
M  V30 59 1 21 55
M  V30 60 1 22 56
M  V30 61 1 27 57
M  V30 62 1 27 58
M  V30 63 1 30 59
M  V30 64 1 31 60
M  V30 65 1 32 61
M  V30 66 1 33 62
M  V30 END BOND
M  V30 END CTAB
M  END
>  <Dataset>  (622) 
ChEMBL_Kinases

>  <Ligand_Instance>  (622) 
nan

>  <PDB_ID>  (622) 
nan

>  <Standardized_SMILES>  (622) 
C[C@@H](Oc1cc(-n2cnc3ccc(OC4CCN(C)CC4)cc32)sc1C(N)=O)c1ccccc1Cl

>  <Name>  (622) 
GSK-579289A

>  <Pocket>  (622) 
nan

>  <ATP_Site>  (622) 
nan

>  <Peripheral>  (622) 
nan

>  <Num_H_Atoms_ProtBoundConf>  (622) 
nan

>  <Num_Resolved_Atoms>  (622) 
nan

>  <Num_Not_Resolved_Atoms>  (622) 
nan

$$$$
CHEMBL255863
     RDKit          3D

  0  0  0  0  0  0  0  0  0  0999 V3000
M  V30 BEGIN CTAB
M  V30 COUNTS 61 65 0 0 0
M  V30 BEGIN ATOM
M  V30 1 C 4.201973 -4.998479 5.406961 0
M  V30 2 C 3.853459 -3.650299 4.878069 0
M  V30 3 C 3.806771 -3.357975 3.517054 0
M  V30 4 N 3.464526 -2.071044 3.395676 0
M  V30 5 C 3.312346 -1.396776 2.154200 0
M  V30 6 C 2.642818 -0.194376 2.136087 0
M  V30 7 C 2.500385 0.445145 0.926359 0
M  V30 8 N 1.833015 1.703093 0.680980 0
M  V30 9 C 0.469006 1.328863 0.406248 0
M  V30 10 O 0.373981 0.057041 0.487023 0
M  V30 11 C -0.619951 2.259052 0.087704 0
M  V30 12 C -0.520579 3.634245 -0.016072 0
M  V30 13 C -1.685383 4.293216 -0.340654 0
M  V30 14 C -2.912920 3.714342 -0.565290 0
M  V30 15 C -4.122158 4.506601 -0.909575 0
M  V30 16 C -2.973060 2.321536 -0.450774 0
M  V30 17 N -4.211558 1.624962 -0.688432 0
M  V30 18 C -4.264342 0.193953 -0.502261 0
M  V30 19 N -5.142006 -0.056019 0.475686 0
M  V30 20 C -5.342444 -1.355281 0.836603 0
M  V30 21 C -4.606587 -2.308689 0.143875 0
M  V30 22 C -3.707883 -2.035485 -0.860223 0
M  V30 23 C -2.922126 -3.011419 -1.591026 0
M  V30 24 C -2.063571 -2.548642 -2.562312 0
M  V30 25 C -1.337346 -3.540574 -3.219442 0
M  V30 26 C -1.447456 -4.890359 -2.941075 0
M  V30 27 N -2.294962 -5.308448 -1.986858 0
M  V30 28 C -3.018456 -4.359261 -1.327870 0
M  V30 29 N -3.560299 -0.754105 -1.161202 0
M  V30 30 C -1.834796 1.612062 -0.127405 0
M  V30 31 C 3.006300 -0.083099 -0.255415 0
M  V30 32 C 3.679270 -1.295082 -0.226644 0
M  V30 33 C 4.253549 -1.929624 -1.467667 0
M  V30 34 F 3.509407 -1.591706 -2.590427 0
M  V30 35 F 5.593985 -1.596974 -1.615976 0
M  V30 36 F 4.209831 -3.316907 -1.324906 0
M  V30 37 C 3.818861 -1.931245 0.988877 0
M  V30 38 C 3.304828 -1.582846 4.637433 0
M  V30 39 N 3.537215 -2.527368 5.535271 0
M  V30 40 H 4.948449 -5.438710 4.732083 0
M  V30 41 H 4.613196 -4.832117 6.423827 0
M  V30 42 H 3.276463 -5.631408 5.488272 0
M  V30 43 H 4.014226 -4.061752 2.704463 0
M  V30 44 H 2.212732 0.306573 2.982983 0
M  V30 45 H 2.057269 2.743619 0.648053 0
M  V30 46 H 0.443160 4.052551 0.163062 0
M  V30 47 H -1.573252 5.383634 -0.414588 0
M  V30 48 H -4.777850 4.647934 -0.025493 0
M  V30 49 H -3.780622 5.522898 -1.224230 0
M  V30 50 H -4.642926 4.070273 -1.787393 0
M  V30 51 H -5.042687 2.182580 -0.991554 0
M  V30 52 H -6.024082 -1.693310 1.611853 0
M  V30 53 H -4.755177 -3.358962 0.420967 0
M  V30 54 H -1.966738 -1.515596 -2.788087 0
M  V30 55 H -0.658705 -3.157165 -3.989005 0
M  V30 56 H -0.839832 -5.575963 -3.507277 0
M  V30 57 H -3.679655 -4.761087 -0.574568 0
M  V30 58 H -1.949207 0.553563 -0.053075 0
M  V30 59 H 2.929700 0.366405 -1.240460 0
M  V30 60 H 4.352739 -2.881447 0.979300 0
M  V30 61 H 3.031341 -0.585158 4.913695 0
M  V30 END ATOM
M  V30 BEGIN BOND
M  V30 1 1 1 2
M  V30 2 2 2 3
M  V30 3 1 3 4
M  V30 4 1 4 5
M  V30 5 2 5 6
M  V30 6 1 6 7
M  V30 7 1 7 8
M  V30 8 1 8 9
M  V30 9 2 9 10
M  V30 10 1 9 11
M  V30 11 2 11 12
M  V30 12 1 12 13
M  V30 13 2 13 14
M  V30 14 1 14 15
M  V30 15 1 14 16
M  V30 16 1 16 17
M  V30 17 1 17 18
M  V30 18 2 18 19
M  V30 19 1 19 20
M  V30 20 2 20 21
M  V30 21 1 21 22
M  V30 22 1 22 23
M  V30 23 2 23 24
M  V30 24 1 24 25
M  V30 25 2 25 26
M  V30 26 1 26 27
M  V30 27 2 27 28
M  V30 28 2 22 29
M  V30 29 2 16 30
M  V30 30 2 7 31
M  V30 31 1 31 32
M  V30 32 1 32 33
M  V30 33 1 33 34
M  V30 34 1 33 35
M  V30 35 1 33 36
M  V30 36 2 32 37
M  V30 37 1 4 38
M  V30 38 2 38 39
M  V30 39 1 39 2
M  V30 40 1 37 5
M  V30 41 1 30 11
M  V30 42 1 29 18
M  V30 43 1 28 23
M  V30 44 1 1 40
M  V30 45 1 1 41
M  V30 46 1 1 42
M  V30 47 1 3 43
M  V30 48 1 6 44
M  V30 49 1 8 45
M  V30 50 1 12 46
M  V30 51 1 13 47
M  V30 52 1 15 48
M  V30 53 1 15 49
M  V30 54 1 15 50
M  V30 55 1 17 51
M  V30 56 1 20 52
M  V30 57 1 21 53
M  V30 58 1 24 54
M  V30 59 1 25 55
M  V30 60 1 26 56
M  V30 61 1 28 57
M  V30 62 1 30 58
M  V30 63 1 31 59
M  V30 64 1 37 60
M  V30 65 1 38 61
M  V30 END BOND
M  V30 END CTAB
M  END
>  <Dataset>  (623) 
ChEMBL_Kinases

>  <Ligand_Instance>  (623) 
nan

>  <PDB_ID>  (623) 
nan

>  <Standardized_SMILES>  (623) 
Cc1cn(-c2cc(NC(=O)c3ccc(C)c(Nc4nccc(-c5cccnc5)n4)c3)cc(C(F)(F)F)c2)cn1

>  <Name>  (623) 
NILOTINIB

>  <Pocket>  (623) 
nan

>  <ATP_Site>  (623) 
nan

>  <Peripheral>  (623) 
nan

>  <Num_H_Atoms_ProtBoundConf>  (623) 
nan

>  <Num_Resolved_Atoms>  (623) 
nan

>  <Num_Not_Resolved_Atoms>  (623) 
nan

$$$$
CHEMBL4646965
     RDKit          3D

  0  0  0  0  0  0  0  0  0  0999 V3000
M  V30 BEGIN CTAB
M  V30 COUNTS 47 51 0 0 0
M  V30 BEGIN ATOM
M  V30 1 O 0.986368 -0.663764 3.518044 0
M  V30 2 C 0.564405 -1.120281 2.440376 0
M  V30 3 C 1.298994 -0.976299 1.188450 0
M  V30 4 C 2.446961 -0.323941 1.286212 0
M  V30 5 C 3.225182 -0.149566 0.064874 0
M  V30 6 N 2.862061 -0.603957 -1.158305 0
M  V30 7 C 3.823647 -0.262008 -2.059435 0
M  V30 8 C 3.873381 -0.516939 -3.416490 0
M  V30 9 C 4.984774 -0.053454 -4.129912 0
M  V30 10 C 5.986665 0.631194 -3.490434 0
M  V30 11 C 5.877698 0.850237 -2.149122 0
M  V30 12 C 4.825446 0.431982 -1.374801 0
M  V30 13 N 4.409114 0.468840 -0.095818 0
M  V30 14 C -0.726202 -1.808434 2.548070 0
M  V30 15 C -1.864843 -1.016734 2.368422 0
M  V30 16 C -1.729369 0.411379 2.090896 0
M  V30 17 C -1.670761 1.469185 2.972460 0
M  V30 18 C -1.540314 2.743325 2.474534 0
M  V30 19 C -1.464858 3.013425 1.123200 0
M  V30 20 C -1.524169 1.944732 0.235240 0
M  V30 21 C -1.656875 0.638755 0.719499 0
M  V30 22 C -3.070245 -1.687960 2.474610 0
M  V30 23 C -4.218071 -0.915572 2.298528 0
M  V30 24 C -5.417731 -1.599929 2.407384 0
M  V30 25 C -5.454717 -2.956319 2.672932 0
M  V30 26 C -4.281382 -3.663445 2.836744 0
M  V30 27 C -3.053766 -3.035819 2.739621 0
M  V30 28 N -1.937088 -3.734840 2.900607 0
M  V30 29 C -0.739957 -3.161059 2.813376 0
M  V30 30 O 0.338010 -3.781242 2.958058 0
M  V30 31 H 0.883337 -1.393519 0.282888 0
M  V30 32 H 2.819375 0.075385 2.220216 0
M  V30 33 H 3.067655 -1.059983 -3.894494 0
M  V30 34 H 5.025835 -0.249114 -5.179055 0
M  V30 35 H 6.867342 1.007998 -4.009965 0
M  V30 36 H 6.656735 1.391929 -1.607036 0
M  V30 37 H 4.975128 0.936539 0.654406 0
M  V30 38 H -1.737151 1.156638 3.990823 0
M  V30 39 H -1.499070 3.543474 3.221786 0
M  V30 40 H -1.362316 4.033515 0.774129 0
M  V30 41 H -1.463407 2.175137 -0.823780 0
M  V30 42 H -1.690828 -0.097962 -0.073025 0
M  V30 43 H -4.176807 0.136302 2.092868 0
M  V30 44 H -6.350923 -1.096060 2.288586 0
M  V30 45 H -6.344189 -3.563823 2.773279 0
M  V30 46 H -4.268272 -4.743629 3.049130 0
M  V30 47 H -1.964716 -4.768590 3.103021 0
M  V30 END ATOM
M  V30 BEGIN BOND
M  V30 1 2 1 2
M  V30 2 1 2 3
M  V30 3 2 3 4
M  V30 4 1 4 5
M  V30 5 2 5 6
M  V30 6 1 6 7
M  V30 7 2 7 8
M  V30 8 1 8 9
M  V30 9 2 9 10
M  V30 10 1 10 11
M  V30 11 2 11 12
M  V30 12 1 12 13
M  V30 13 1 2 14
M  V30 14 2 14 15
M  V30 15 1 15 16
M  V30 16 2 16 17
M  V30 17 1 17 18
M  V30 18 2 18 19
M  V30 19 1 19 20
M  V30 20 2 20 21
M  V30 21 1 15 22
M  V30 22 2 22 23
M  V30 23 1 23 24
M  V30 24 2 24 25
M  V30 25 1 25 26
M  V30 26 2 26 27
M  V30 27 1 27 28
M  V30 28 1 28 29
M  V30 29 2 29 30
M  V30 30 1 13 5
M  V30 31 1 29 14
M  V30 32 1 12 7
M  V30 33 1 21 16
M  V30 34 1 27 22
M  V30 35 1 3 31
M  V30 36 1 4 32
M  V30 37 1 8 33
M  V30 38 1 9 34
M  V30 39 1 10 35
M  V30 40 1 11 36
M  V30 41 1 13 37
M  V30 42 1 17 38
M  V30 43 1 18 39
M  V30 44 1 19 40
M  V30 45 1 20 41
M  V30 46 1 21 42
M  V30 47 1 23 43
M  V30 48 1 24 44
M  V30 49 1 25 45
M  V30 50 1 26 46
M  V30 51 1 28 47
M  V30 END BOND
M  V30 END CTAB
M  END
>  <Dataset>  (624) 
ChEMBL_Kinases

>  <Ligand_Instance>  (624) 
nan

>  <PDB_ID>  (624) 
nan

>  <Standardized_SMILES>  (624) 
O=C(/C=C/c1nc2ccccc2[nH]1)c1c(-c2ccccc2)c2ccccc2[nH]c1=O

>  <Name>  (624) 
nan

>  <Pocket>  (624) 
nan

>  <ATP_Site>  (624) 
nan

>  <Peripheral>  (624) 
nan

>  <Num_H_Atoms_ProtBoundConf>  (624) 
nan

>  <Num_Resolved_Atoms>  (624) 
nan

>  <Num_Not_Resolved_Atoms>  (624) 
nan

$$$$
CHEMBL177308
     RDKit          3D

  0  0  0  0  0  0  0  0  0  0999 V3000
M  V30 BEGIN CTAB
M  V30 COUNTS 65 69 0 0 0
M  V30 BEGIN ATOM
M  V30 1 O -0.098553 3.796870 3.507813 0
M  V30 2 C 1.018201 3.340900 3.863855 0
M  V30 3 N 1.365501 1.986766 3.623729 0
M  V30 4 C 0.614870 0.945942 2.994519 0 CFG=2
M  V30 5 C 0.475126 -0.259706 3.877169 0
M  V30 6 C -0.452357 -0.600583 4.840339 0
M  V30 7 C -0.367786 -1.790423 5.532616 0
M  V30 8 C 0.688799 -2.619339 5.213122 0
M  V30 9 C 1.626260 -2.288032 4.248050 0
M  V30 10 C 1.544537 -1.101507 3.555603 0
M  V30 11 C 2.379195 -0.506232 2.504440 0
M  V30 12 C 1.402639 0.441174 1.806195 0
M  V30 13 O 0.582242 -0.315691 0.941064 0
M  V30 14 C 0.455690 -0.144486 -0.408591 0
M  V30 15 O 1.142416 0.784607 -0.932709 0
M  V30 16 C -0.417883 -0.974035 -1.230121 0
M  V30 17 C -1.134687 -1.962865 -0.601509 0
M  V30 18 C -1.981407 -2.782564 -1.344579 0
M  V30 19 O -2.658493 -3.750555 -0.603755 0
M  V30 20 C -2.126804 -2.635812 -2.701463 0
M  V30 21 C -3.061146 -3.450484 -3.423884 0
M  V30 22 O -3.954520 -3.826124 -2.577665 0
M  V30 23 C -3.357437 -3.981279 -4.697076 0
M  V30 24 C -4.664166 -4.292653 -5.008012 0
M  V30 25 O -5.723711 -4.047656 -4.112248 0
M  V30 26 C -5.009910 -4.862100 -6.214781 0
M  V30 27 C -4.060227 -5.139545 -7.150955 0
M  V30 28 C -2.739873 -4.865287 -6.924284 0
M  V30 29 C -2.475440 -4.301541 -5.701624 0
M  V30 30 C -1.044195 -4.160746 -5.503303 0
M  V30 31 O -0.095421 -4.389770 -6.288232 0
M  V30 32 O 0.179313 -3.902759 -4.940129 0
M  V30 33 C -1.387480 -1.629727 -3.273306 0
M  V30 34 O -1.388027 -1.294209 -4.620997 0
M  V30 35 C -0.533840 -0.789257 -2.590178 0
M  V30 36 C 1.933416 4.261104 4.530097 0
M  V30 37 C 1.509817 5.565768 4.722625 0
M  V30 38 C 2.364466 6.467670 5.357114 0
M  V30 39 C 3.622506 6.135054 5.810537 0
M  V30 40 O 4.419304 7.084880 6.433602 0
M  V30 41 C 4.019303 4.831479 5.606614 0
M  V30 42 C 3.180166 3.933264 4.979980 0
M  V30 43 H 2.288900 1.596451 3.914270 0
M  V30 44 H -0.380163 1.226851 2.640807 0
M  V30 45 H -1.245974 0.134098 5.008642 0
M  V30 46 H -1.113754 -2.012622 6.274055 0
M  V30 47 H 0.729127 -3.556601 5.779598 0
M  V30 48 H 2.440690 -2.965917 4.026646 0
M  V30 49 H 3.221132 0.111437 2.871337 0
M  V30 50 H 2.708616 -1.247824 1.741067 0
M  V30 51 H 1.970579 1.226948 1.299399 0
M  V30 52 H -1.032575 -2.093477 0.466155 0
M  V30 53 H -3.535804 -3.472982 -0.144958 0
M  V30 54 H -6.507288 -4.712762 -4.078241 0
M  V30 55 H -6.032822 -5.086755 -6.413175 0
M  V30 56 H -4.403688 -5.582467 -8.072440 0
M  V30 57 H -2.028125 -5.103774 -7.696375 0
M  V30 58 H 0.380599 -3.822648 -3.948902 0
M  V30 59 H -0.541419 -1.257636 -5.150193 0
M  V30 60 H 0.066324 0.006633 -2.978609 0
M  V30 61 H 0.552222 5.970095 4.421264 0
M  V30 62 H 2.054144 7.507852 5.522578 0
M  V30 63 H 5.410531 7.188258 6.242197 0
M  V30 64 H 4.995129 4.507708 5.939272 0
M  V30 65 H 3.532150 2.920814 4.840716 0
M  V30 END ATOM
M  V30 BEGIN BOND
M  V30 1 2 1 2
M  V30 2 1 2 3
M  V30 3 1 3 4
M  V30 4 1 4 5
M  V30 5 2 5 6
M  V30 6 1 6 7
M  V30 7 2 7 8
M  V30 8 1 8 9
M  V30 9 2 9 10
M  V30 10 1 10 11
M  V30 11 1 11 12
M  V30 12 1 12 13
M  V30 13 1 13 14
M  V30 14 2 14 15
M  V30 15 1 14 16
M  V30 16 2 16 17
M  V30 17 1 17 18
M  V30 18 1 18 19
M  V30 19 2 18 20
M  V30 20 1 20 21
M  V30 21 2 21 22
M  V30 22 1 21 23
M  V30 23 2 23 24
M  V30 24 1 24 25
M  V30 25 1 24 26
M  V30 26 2 26 27
M  V30 27 1 27 28
M  V30 28 2 28 29
M  V30 29 1 29 30
M  V30 30 2 30 31
M  V30 31 1 30 32
M  V30 32 1 20 33
M  V30 33 1 33 34
M  V30 34 2 33 35
M  V30 35 1 2 36
M  V30 36 2 36 37
M  V30 37 1 37 38
M  V30 38 2 38 39
M  V30 39 1 39 40
M  V30 40 1 39 41
M  V30 41 2 41 42
M  V30 42 1 12 4
M  V30 43 1 35 16
M  V30 44 1 42 36
M  V30 45 1 10 5
M  V30 46 1 29 23
M  V30 47 1 3 43
M  V30 48 1 4 44 CFG=3
M  V30 49 1 6 45
M  V30 50 1 7 46
M  V30 51 1 8 47
M  V30 52 1 9 48
M  V30 53 1 11 49
M  V30 54 1 11 50
M  V30 55 1 12 51
M  V30 56 1 17 52
M  V30 57 1 19 53
M  V30 58 1 25 54
M  V30 59 1 26 55
M  V30 60 1 27 56
M  V30 61 1 28 57
M  V30 62 1 32 58
M  V30 63 1 34 59
M  V30 64 1 35 60
M  V30 65 1 37 61
M  V30 66 1 38 62
M  V30 67 1 40 63
M  V30 68 1 41 64
M  V30 69 1 42 65
M  V30 END BOND
M  V30 END CTAB
M  END
>  <Dataset>  (625) 
ChEMBL_Kinases

>  <Ligand_Instance>  (625) 
nan

>  <PDB_ID>  (625) 
nan

>  <Standardized_SMILES>  (625) 
O=C(N[C@@H]1c2ccccc2CC1OC(=O)c1cc(O)c(C(=O)c2c(O)cccc2C(=O)O)c(O)c1)c1ccc(O)cc1

>  <Name>  (625) 
nan

>  <Pocket>  (625) 
nan

>  <ATP_Site>  (625) 
nan

>  <Peripheral>  (625) 
nan

>  <Num_H_Atoms_ProtBoundConf>  (625) 
nan

>  <Num_Resolved_Atoms>  (625) 
nan

>  <Num_Not_Resolved_Atoms>  (625) 
nan

$$$$
CHEMBL4845770
     RDKit          3D

  0  0  0  0  0  0  0  0  0  0999 V3000
M  V30 BEGIN CTAB
M  V30 COUNTS 48 52 0 0 0
M  V30 BEGIN ATOM
M  V30 1 C -2.706506 -0.208012 0.704906 0
M  V30 2 C -1.516195 -0.792010 0.015064 0
M  V30 3 N -0.403020 -0.057146 -0.165776 0
M  V30 4 C 0.683754 -0.560729 -0.784888 0
M  V30 5 C 0.696207 -1.872946 -1.265507 0
M  V30 6 C 1.914322 -2.155764 -1.857376 0
M  V30 7 N 2.614204 -1.017650 -1.726030 0
M  V30 8 N 1.924095 -0.095519 -1.114559 0
M  V30 9 C 2.260439 1.248908 -0.762382 0
M  V30 10 C 2.703207 2.117752 -1.788518 0
M  V30 11 S 3.011191 3.706258 -0.875059 0
M  V30 12 C 2.544285 3.074313 0.677038 0
M  V30 13 C 2.558252 3.874543 1.922501 0
M  V30 14 O 2.936102 5.070718 1.798661 0
M  V30 15 N 2.160381 3.257380 3.115094 0
M  V30 16 C 2.148993 3.980085 4.373433 0
M  V30 17 C 0.907269 3.670346 5.176916 0
M  V30 18 O 1.594920 2.689976 5.912674 0
M  V30 19 C 2.816430 3.125952 5.448766 0
M  V30 20 C 2.200160 1.804564 0.491652 0
M  V30 21 C -0.462020 -2.630165 -1.074676 0
M  V30 22 C -1.554655 -2.089637 -0.439818 0
M  V30 23 N -2.727928 -2.872335 -0.252175 0
M  V30 24 C -2.821780 -4.202984 -0.696755 0
M  V30 25 C -2.394584 -5.097333 0.291025 0
M  V30 26 F -1.943279 -4.758515 1.525811 0
M  V30 27 C -2.407953 -6.475192 0.050605 0
M  V30 28 C -2.850411 -6.923059 -1.177256 0
M  V30 29 C -3.280604 -6.041874 -2.174866 0
M  V30 30 C -3.255791 -4.693974 -1.908880 0
M  V30 31 Cl -3.758609 -3.466226 -3.045450 0
M  V30 32 H -3.522537 0.011729 -0.022865 0
M  V30 33 H -3.031503 -0.827154 1.560048 0
M  V30 34 H -2.417074 0.798481 1.111899 0
M  V30 35 H 2.202468 -3.095571 -2.313782 0
M  V30 36 H 2.826554 1.894613 -2.843590 0
M  V30 37 H 1.852182 2.257955 3.176896 0
M  V30 38 H 2.467290 5.029360 4.338147 0
M  V30 39 H 0.081071 3.172297 4.624769 0
M  V30 40 H 0.615783 4.481745 5.864184 0
M  V30 41 H 3.459271 3.688734 6.152078 0
M  V30 42 H 3.390246 2.249644 5.057895 0
M  V30 43 H 1.872401 1.213006 1.336620 0
M  V30 44 H -0.495455 -3.641586 -1.427834 0
M  V30 45 H -3.559962 -2.468948 0.228275 0
M  V30 46 H -2.088322 -7.191854 0.782599 0
M  V30 47 H -2.872827 -7.974381 -1.392734 0
M  V30 48 H -3.626435 -6.375008 -3.132056 0
M  V30 END ATOM
M  V30 BEGIN BOND
M  V30 1 1 1 2
M  V30 2 2 2 3
M  V30 3 1 3 4
M  V30 4 2 4 5
M  V30 5 1 5 6
M  V30 6 2 6 7
M  V30 7 1 7 8
M  V30 8 1 8 9
M  V30 9 2 9 10
M  V30 10 1 10 11
M  V30 11 1 11 12
M  V30 12 1 12 13
M  V30 13 2 13 14
M  V30 14 1 13 15
M  V30 15 1 15 16
M  V30 16 1 16 17
M  V30 17 1 17 18
M  V30 18 1 18 19
M  V30 19 2 12 20
M  V30 20 1 5 21
M  V30 21 2 21 22
M  V30 22 1 22 23
M  V30 23 1 23 24
M  V30 24 2 24 25
M  V30 25 1 25 26
M  V30 26 1 25 27
M  V30 27 2 27 28
M  V30 28 1 28 29
M  V30 29 2 29 30
M  V30 30 1 30 31
M  V30 31 1 22 2
M  V30 32 1 30 24
M  V30 33 1 8 4
M  V30 34 1 20 9
M  V30 35 1 19 16
M  V30 36 1 1 32
M  V30 37 1 1 33
M  V30 38 1 1 34
M  V30 39 1 6 35
M  V30 40 1 10 36
M  V30 41 1 15 37
M  V30 42 1 16 38
M  V30 43 1 17 39
M  V30 44 1 17 40
M  V30 45 1 19 41
M  V30 46 1 19 42
M  V30 47 1 20 43
M  V30 48 1 21 44
M  V30 49 1 23 45
M  V30 50 1 27 46
M  V30 51 1 28 47
M  V30 52 1 29 48
M  V30 END BOND
M  V30 END CTAB
M  END
>  <Dataset>  (626) 
ChEMBL_Kinases

>  <Ligand_Instance>  (626) 
nan

>  <PDB_ID>  (626) 
nan

>  <Standardized_SMILES>  (626) 
Cc1nc2c(cnn2-c2csc(C(=O)NC3COC3)c2)cc1Nc1c(F)cccc1Cl

>  <Name>  (626) 
nan

>  <Pocket>  (626) 
nan

>  <ATP_Site>  (626) 
nan

>  <Peripheral>  (626) 
nan

>  <Num_H_Atoms_ProtBoundConf>  (626) 
nan

>  <Num_Resolved_Atoms>  (626) 
nan

>  <Num_Not_Resolved_Atoms>  (626) 
nan

$$$$
CHEMBL4646743
     RDKit          3D

  0  0  0  0  0  0  0  0  0  0999 V3000
M  V30 BEGIN CTAB
M  V30 COUNTS 50 54 0 0 0
M  V30 BEGIN ATOM
M  V30 1 C 3.364100 -4.120144 0.051950 0
M  V30 2 N 2.034238 -3.559932 0.219217 0
M  V30 3 C 1.743641 -2.918236 1.367180 0
M  V30 4 O 2.549958 -2.769061 2.312011 0
M  V30 5 C 0.482241 -2.397061 1.504035 0
M  V30 6 C 0.008123 -1.667421 2.697779 0
M  V30 7 O -0.535497 -2.301815 3.645938 0
M  V30 8 C 0.196395 -0.204090 2.724971 0
M  V30 9 C 0.763031 0.431169 1.729230 0
M  V30 10 C 0.955062 1.878071 1.743908 0
M  V30 11 N 0.586009 2.697619 2.744963 0
M  V30 12 C 0.919928 3.979475 2.417670 0
M  V30 13 C 0.757427 5.170648 3.095825 0
M  V30 14 C 1.235443 6.293445 2.423685 0
M  V30 15 F 1.125923 7.530833 3.004983 0
M  V30 16 C 1.829631 6.261792 1.180147 0
M  V30 17 C 1.959575 5.036112 0.559762 0
M  V30 18 C 1.505440 3.874511 1.171190 0
M  V30 19 N 1.527760 2.592930 0.758422 0
M  V30 20 C -0.461877 -2.523167 0.501677 0
M  V30 21 C -1.832272 -2.014984 0.526177 0
M  V30 22 C -2.321644 -0.792490 0.112082 0
M  V30 23 C -3.673121 -0.541604 0.237921 0
M  V30 24 C -4.532030 -1.475268 0.761903 0
M  V30 25 C -4.058953 -2.698652 1.179105 0
M  V30 26 C -2.691198 -2.957042 1.053571 0
M  V30 27 C -0.121118 -3.189075 -0.659196 0
M  V30 28 C -1.007319 -3.360373 -1.713398 0
M  V30 29 C -0.668526 -4.024768 -2.872602 0
M  V30 30 Cl -1.869420 -4.181037 -4.138751 0
M  V30 31 C 0.612873 -4.544418 -2.990675 0
M  V30 32 C 1.522664 -4.385494 -1.944652 0
M  V30 33 C 1.155761 -3.714328 -0.792768 0
M  V30 34 H 3.246745 -5.205448 -0.100209 0
M  V30 35 H 3.795360 -3.611330 -0.843161 0
M  V30 36 H 4.012854 -3.864172 0.914540 0
M  V30 37 H -0.153425 0.326213 3.603481 0
M  V30 38 H 1.086498 -0.162387 0.887428 0
M  V30 39 H 0.296861 5.238105 4.072001 0
M  V30 40 H 2.182900 7.172106 0.706440 0
M  V30 41 H 2.419504 4.953320 -0.419458 0
M  V30 42 H 1.922981 2.257735 -0.158531 0
M  V30 43 H -1.549687 -0.145920 -0.280639 0
M  V30 44 H -3.994010 0.419081 -0.098228 0
M  V30 45 H -5.578993 -1.248077 0.846060 0
M  V30 46 H -4.771933 -3.409768 1.588104 0
M  V30 47 H -2.440419 -3.956585 1.417307 0
M  V30 48 H -2.015042 -2.947663 -1.611888 0
M  V30 49 H 0.858606 -5.062659 -3.909282 0
M  V30 50 H 2.520473 -4.800131 -2.057959 0
M  V30 END ATOM
M  V30 BEGIN BOND
M  V30 1 1 1 2
M  V30 2 1 2 3
M  V30 3 2 3 4
M  V30 4 1 3 5
M  V30 5 1 5 6
M  V30 6 2 6 7
M  V30 7 1 6 8
M  V30 8 2 8 9
M  V30 9 1 9 10
M  V30 10 2 10 11
M  V30 11 1 11 12
M  V30 12 2 12 13
M  V30 13 1 13 14
M  V30 14 1 14 15
M  V30 15 2 14 16
M  V30 16 1 16 17
M  V30 17 2 17 18
M  V30 18 1 18 19
M  V30 19 2 5 20
M  V30 20 1 20 21
M  V30 21 2 21 22
M  V30 22 1 22 23
M  V30 23 2 23 24
M  V30 24 1 24 25
M  V30 25 2 25 26
M  V30 26 1 20 27
M  V30 27 2 27 28
M  V30 28 1 28 29
M  V30 29 1 29 30
M  V30 30 2 29 31
M  V30 31 1 31 32
M  V30 32 2 32 33
M  V30 33 1 33 2
M  V30 34 1 19 10
M  V30 35 1 26 21
M  V30 36 1 33 27
M  V30 37 1 18 12
M  V30 38 1 1 34
M  V30 39 1 1 35
M  V30 40 1 1 36
M  V30 41 1 8 37
M  V30 42 1 9 38
M  V30 43 1 13 39
M  V30 44 1 16 40
M  V30 45 1 17 41
M  V30 46 1 19 42
M  V30 47 1 22 43
M  V30 48 1 23 44
M  V30 49 1 24 45
M  V30 50 1 25 46
M  V30 51 1 26 47
M  V30 52 1 28 48
M  V30 53 1 31 49
M  V30 54 1 32 50
M  V30 END BOND
M  V30 END CTAB
M  END
>  <Dataset>  (627) 
ChEMBL_Kinases

>  <Ligand_Instance>  (627) 
nan

>  <PDB_ID>  (627) 
nan

>  <Standardized_SMILES>  (627) 
Cn1c(=O)c(C(=O)/C=C/c2nc3cc(F)ccc3[nH]2)c(-c2ccccc2)c2cc(Cl)ccc21

>  <Name>  (627) 
nan

>  <Pocket>  (627) 
nan

>  <ATP_Site>  (627) 
nan

>  <Peripheral>  (627) 
nan

>  <Num_H_Atoms_ProtBoundConf>  (627) 
nan

>  <Num_Resolved_Atoms>  (627) 
nan

>  <Num_Not_Resolved_Atoms>  (627) 
nan

$$$$
CHEMBL4105195
     RDKit          3D

  0  0  0  0  0  0  0  0  0  0999 V3000
M  V30 BEGIN CTAB
M  V30 COUNTS 39 41 0 0 0
M  V30 BEGIN ATOM
M  V30 1 C -1.039238 -5.548301 0.869177 0
M  V30 2 C -1.034691 -5.800479 2.352207 0
M  V30 3 O -1.593705 -4.712083 3.050322 0
M  V30 4 C -1.105214 -3.417130 3.017835 0
M  V30 5 C -0.007293 -2.982335 2.312873 0
M  V30 6 C 0.364208 -1.657634 2.370407 0
M  V30 7 C 1.554959 -1.245452 1.589332 0
M  V30 8 C 1.307005 -0.124837 0.898714 0
M  V30 9 O 0.191108 0.669041 0.796330 0
M  V30 10 C 0.376990 1.750188 -0.052756 0
M  V30 11 C -0.611663 2.677219 -0.301016 0
M  V30 12 C -0.209201 3.683183 -1.189744 0
M  V30 13 C 1.074130 3.715630 -1.750934 0
M  V30 14 O 1.411987 4.739808 -2.627218 0
M  V30 15 C 2.738272 4.728303 -3.172590 0
M  V30 16 C 1.962685 2.714297 -1.405617 0
M  V30 17 C 1.666895 1.674867 -0.537733 0
M  V30 18 C 2.311559 0.500210 0.035756 0
M  V30 19 O 3.496880 0.183178 -0.226673 0
M  V30 20 C -0.316800 -0.694743 3.119702 0
M  V30 21 C -1.416548 -1.190773 3.811411 0
M  V30 22 C -1.808005 -2.492085 3.774108 0
M  V30 23 O -2.942448 -2.726017 4.558026 0
M  V30 24 H -1.753425 -6.254744 0.352905 0
M  V30 25 H -1.393844 -4.549383 0.601990 0
M  V30 26 H -0.002397 -5.657543 0.445571 0
M  V30 27 H -0.012716 -5.969869 2.701108 0
M  V30 28 H -1.698936 -6.687559 2.567966 0
M  V30 29 H 0.536590 -3.706127 1.731275 0
M  V30 30 H 2.547742 -1.711137 1.510825 0
M  V30 31 H -1.602725 2.671651 0.116622 0
M  V30 32 H -0.877873 4.487276 -1.485240 0
M  V30 33 H 2.882716 5.503696 -3.926218 0
M  V30 34 H 2.821816 3.739775 -3.681153 0
M  V30 35 H 3.484661 4.716825 -2.364010 0
M  V30 36 H 2.973593 2.705276 -1.817881 0
M  V30 37 H 0.039452 0.325531 3.111337 0
M  V30 38 H -1.910283 -0.390040 4.380703 0
M  V30 39 H -3.819277 -2.308488 4.208391 0
M  V30 END ATOM
M  V30 BEGIN BOND
M  V30 1 1 1 2
M  V30 2 1 2 3
M  V30 3 1 3 4
M  V30 4 2 4 5
M  V30 5 1 5 6
M  V30 6 1 6 7
M  V30 7 2 7 8
M  V30 8 1 8 9
M  V30 9 1 9 10
M  V30 10 2 10 11
M  V30 11 1 11 12
M  V30 12 2 12 13
M  V30 13 1 13 14
M  V30 14 1 14 15
M  V30 15 1 13 16
M  V30 16 2 16 17
M  V30 17 1 17 18
M  V30 18 2 18 19
M  V30 19 2 6 20
M  V30 20 1 20 21
M  V30 21 2 21 22
M  V30 22 1 22 23
M  V30 23 1 22 4
M  V30 24 1 18 8
M  V30 25 1 17 10
M  V30 26 1 1 24
M  V30 27 1 1 25
M  V30 28 1 1 26
M  V30 29 1 2 27
M  V30 30 1 2 28
M  V30 31 1 5 29
M  V30 32 1 7 30
M  V30 33 1 11 31
M  V30 34 1 12 32
M  V30 35 1 15 33
M  V30 36 1 15 34
M  V30 37 1 15 35
M  V30 38 1 16 36
M  V30 39 1 20 37
M  V30 40 1 21 38
M  V30 41 1 23 39
M  V30 END BOND
M  V30 END CTAB
M  END
>  <Dataset>  (628) 
ChEMBL_Kinases

>  <Ligand_Instance>  (628) 
nan

>  <PDB_ID>  (628) 
nan

>  <Standardized_SMILES>  (628) 
CCOc1cc(/C=C2\Oc3ccc(OC)cc3C2=O)ccc1O

>  <Name>  (628) 
nan

>  <Pocket>  (628) 
nan

>  <ATP_Site>  (628) 
nan

>  <Peripheral>  (628) 
nan

>  <Num_H_Atoms_ProtBoundConf>  (628) 
nan

>  <Num_Resolved_Atoms>  (628) 
nan

>  <Num_Not_Resolved_Atoms>  (628) 
nan

$$$$
CHEMBL1615278
     RDKit          3D

  0  0  0  0  0  0  0  0  0  0999 V3000
M  V30 BEGIN CTAB
M  V30 COUNTS 65 69 0 0 0
M  V30 BEGIN ATOM
M  V30 1 C 3.364333 0.063058 4.857804 0
M  V30 2 C 2.146352 0.011452 3.927624 0 CFG=1
M  V30 3 O 2.144757 -1.266874 3.345368 0
M  V30 4 C 2.329531 -1.534718 1.997491 0
M  V30 5 C 2.546812 -0.696455 0.946080 0
M  V30 6 C 2.698920 -1.147558 -0.270561 0
M  V30 7 N 2.938939 -0.351699 -1.493287 0
M  V30 8 C 4.112374 0.139884 -1.929005 0
M  V30 9 N 3.887822 0.801134 -3.077433 0
M  V30 10 C 2.597589 0.738906 -3.378307 0
M  V30 11 C 1.788461 1.218783 -4.413452 0
M  V30 12 C 0.416080 0.944346 -4.394104 0
M  V30 13 C -0.162110 0.199018 -3.358856 0
M  V30 14 O -1.519964 0.087603 -3.600824 0
M  V30 15 C -2.419355 -0.600464 -2.758366 0
M  V30 16 C -3.518069 0.352953 -2.343709 0
M  V30 17 C -4.687718 -0.384528 -1.747563 0
M  V30 18 N -5.352824 -1.191660 -2.740626 0
M  V30 19 C -5.722343 -2.465117 -2.162577 0
M  V30 20 C -4.492401 -1.374506 -3.876444 0
M  V30 21 C -3.076273 -1.748777 -3.519966 0
M  V30 22 C 0.652644 -0.264229 -2.349108 0
M  V30 23 C 2.002195 0.018260 -2.388745 0
M  V30 24 S 2.556507 -2.869847 -0.124438 0
M  V30 25 C 2.285761 -2.875680 1.666803 0
M  V30 26 C 2.077179 -4.139908 2.464299 0
M  V30 27 N 2.096641 -5.353881 1.773272 0
M  V30 28 O 1.908708 -3.950146 3.668719 0
M  V30 29 C 0.903437 0.303876 4.669921 0
M  V30 30 C 0.240390 -0.787874 5.225858 0
M  V30 31 C -0.941909 -0.643793 5.952707 0
M  V30 32 C -1.475894 0.633967 6.127602 0
M  V30 33 C -0.796068 1.710018 5.563014 0
M  V30 34 C 0.377498 1.562983 4.841963 0
M  V30 35 C 1.062775 2.736138 4.257842 0
M  V30 36 F 1.186444 2.707299 2.899055 0
M  V30 37 F 2.307585 2.922636 4.874413 0
M  V30 38 F 0.352762 3.891261 4.556732 0
M  V30 39 H 3.059877 0.406961 5.873014 0
M  V30 40 H 4.166426 0.702837 4.429601 0
M  V30 41 H 3.819758 -0.945286 4.996810 0
M  V30 42 H 2.316367 0.749112 3.141348 0
M  V30 43 H 2.589045 0.385108 1.166507 0
M  V30 44 H 5.078225 0.014807 -1.423677 0
M  V30 45 H 2.292413 1.779455 -5.170590 0
M  V30 46 H -0.070170 1.387047 -5.267859 0
M  V30 47 H -1.893945 -1.033544 -1.887134 0
M  V30 48 H -3.074188 1.005505 -1.563134 0
M  V30 49 H -3.860372 0.937450 -3.196839 0
M  V30 50 H -4.392091 -1.013656 -0.879251 0
M  V30 51 H -5.383407 0.398920 -1.333076 0
M  V30 52 H -5.845342 -2.366886 -1.047753 0
M  V30 53 H -6.684755 -2.865743 -2.526403 0
M  V30 54 H -4.944098 -3.226768 -2.360452 0
M  V30 55 H -4.448990 -0.484453 -4.533845 0
M  V30 56 H -4.910792 -2.188993 -4.532681 0
M  V30 57 H -2.537181 -1.880033 -4.485900 0
M  V30 58 H -3.012824 -2.670754 -2.946217 0
M  V30 59 H 0.098035 -0.815851 -1.622566 0
M  V30 60 H 3.145148 -5.436768 1.884511 0
M  V30 61 H 1.514273 -6.077272 1.271628 0
M  V30 62 H 0.566650 -1.825913 5.151607 0
M  V30 63 H -1.469177 -1.470411 6.389681 0
M  V30 64 H -2.400342 0.822942 6.686269 0
M  V30 65 H -1.217176 2.708520 5.701998 0
M  V30 END ATOM
M  V30 BEGIN BOND
M  V30 1 1 1 2
M  V30 2 1 2 3
M  V30 3 1 3 4
M  V30 4 1 4 5
M  V30 5 2 5 6
M  V30 6 1 6 7
M  V30 7 1 7 8
M  V30 8 2 8 9
M  V30 9 1 9 10
M  V30 10 2 10 11
M  V30 11 1 11 12
M  V30 12 2 12 13
M  V30 13 1 13 14
M  V30 14 1 14 15
M  V30 15 1 15 16
M  V30 16 1 16 17
M  V30 17 1 17 18
M  V30 18 1 18 19
M  V30 19 1 18 20
M  V30 20 1 20 21
M  V30 21 1 13 22
M  V30 22 2 22 23
M  V30 23 1 6 24
M  V30 24 1 24 25
M  V30 25 1 25 26
M  V30 26 1 26 27
M  V30 27 2 26 28
M  V30 28 1 2 29
M  V30 29 2 29 30
M  V30 30 1 30 31
M  V30 31 2 31 32
M  V30 32 1 32 33
M  V30 33 2 33 34
M  V30 34 1 34 35
M  V30 35 1 35 36
M  V30 36 1 35 37
M  V30 37 1 35 38
M  V30 38 2 25 4
M  V30 39 1 34 29
M  V30 40 1 23 7
M  V30 41 1 23 10
M  V30 42 1 21 15
M  V30 43 1 1 39
M  V30 44 1 1 40
M  V30 45 1 1 41
M  V30 46 1 2 42 CFG=3
M  V30 47 1 5 43
M  V30 48 1 8 44
M  V30 49 1 11 45
M  V30 50 1 12 46
M  V30 51 1 15 47
M  V30 52 1 16 48
M  V30 53 1 16 49
M  V30 54 1 17 50
M  V30 55 1 17 51
M  V30 56 1 19 52
M  V30 57 1 19 53
M  V30 58 1 19 54
M  V30 59 1 20 55
M  V30 60 1 20 56
M  V30 61 1 21 57
M  V30 62 1 21 58
M  V30 63 1 22 59
M  V30 64 1 27 60
M  V30 65 1 27 61
M  V30 66 1 30 62
M  V30 67 1 31 63
M  V30 68 1 32 64
M  V30 69 1 33 65
M  V30 END BOND
M  V30 END CTAB
M  END
>  <Dataset>  (629) 
ChEMBL_Kinases

>  <Ligand_Instance>  (629) 
nan

>  <PDB_ID>  (629) 
nan

>  <Standardized_SMILES>  (629) 
C[C@@H](Oc1cc(-n2cnc3ccc(OC4CCN(C)CC4)cc32)sc1C(N)=O)c1ccccc1C(F)(F)F

>  <Name>  (629) 
nan

>  <Pocket>  (629) 
nan

>  <ATP_Site>  (629) 
nan

>  <Peripheral>  (629) 
nan

>  <Num_H_Atoms_ProtBoundConf>  (629) 
nan

>  <Num_Resolved_Atoms>  (629) 
nan

>  <Num_Not_Resolved_Atoms>  (629) 
nan

$$$$
CHEMBL5092606
     RDKit          3D

  0  0  0  0  0  0  0  0  0  0999 V3000
M  V30 BEGIN CTAB
M  V30 COUNTS 55 57 0 0 0
M  V30 BEGIN ATOM
M  V30 1 C 4.205755 -3.666623 -1.267989 0
M  V30 2 N 4.676130 -3.504068 0.081540 0
M  V30 3 C 5.352665 -4.570148 0.754567 0
M  V30 4 C 4.509567 -2.310463 0.833736 0
M  V30 5 O 4.920745 -2.157646 2.021314 0
M  V30 6 C 3.880410 -1.007896 0.526137 0
M  V30 7 C 2.751742 -0.630950 1.201754 0
M  V30 8 C 2.153364 0.573705 0.942262 0
M  V30 9 C 2.739945 1.362458 -0.014898 0
M  V30 10 N 2.132472 2.599624 -0.361568 0
M  V30 11 C 0.779081 3.006993 -0.229426 0
M  V30 12 N 0.060111 4.095918 -0.415387 0
M  V30 13 C -1.254958 4.147695 -0.235356 0
M  V30 14 C -2.003327 3.056264 0.167280 0
M  V30 15 C -3.458785 3.287793 0.261831 0
M  V30 16 F -3.995304 2.904088 1.487505 0
M  V30 17 F -4.159792 2.679625 -0.738534 0
M  V30 18 F -3.721451 4.682603 0.238303 0
M  V30 19 C -1.271106 1.905194 0.370513 0
M  V30 20 N -2.045335 0.773396 0.789691 0
M  V30 21 C -2.678999 -0.405266 1.210086 0 CFG=1
M  V30 22 C -4.198478 -0.292104 1.240441 0
M  V30 23 C -4.866862 -1.598459 1.020002 0
M  V30 24 C -4.228191 -2.788780 1.695175 0 CFG=1
M  V30 25 N -4.800623 -3.984743 1.114536 0
M  V30 26 C -2.724273 -2.802332 1.459169 0
M  V30 27 C -2.378768 -1.683025 0.464050 0
M  V30 28 N 0.033902 2.015873 0.148207 0
M  V30 29 C 3.866035 0.989676 -0.689081 0
M  V30 30 C 4.508223 -0.221557 -0.460441 0
M  V30 31 H 4.765252 -4.477067 -1.797545 0
M  V30 32 H 4.327939 -2.770887 -1.884953 0
M  V30 33 H 3.103712 -3.904508 -1.252035 0
M  V30 34 H 5.304737 -4.471224 1.843446 0
M  V30 35 H 4.913973 -5.538272 0.417820 0
M  V30 36 H 6.414694 -4.601913 0.468773 0
M  V30 37 H 2.369206 -1.336165 1.940263 0
M  V30 38 H 1.285182 0.751014 1.545794 0
M  V30 39 H 2.695527 3.348836 -0.770785 0
M  V30 40 H -1.699120 5.138384 -0.434804 0
M  V30 41 H -1.178478 0.153031 0.913209 0
M  V30 42 H -2.433265 -0.616004 2.301107 0
M  V30 43 H -4.508357 0.174981 2.208683 0
M  V30 44 H -4.493577 0.381051 0.433284 0
M  V30 45 H -5.897848 -1.530405 1.476107 0
M  V30 46 H -5.029669 -1.840901 -0.067035 0
M  V30 47 H -4.504935 -2.792398 2.760118 0
M  V30 48 H -4.759726 -3.889832 0.063300 0
M  V30 49 H -4.270059 -4.844762 1.388555 0
M  V30 50 H -2.333603 -3.773866 1.139115 0
M  V30 51 H -2.277734 -2.471541 2.436356 0
M  V30 52 H -1.311162 -1.792986 0.216589 0
M  V30 53 H -3.023954 -1.812412 -0.410140 0
M  V30 54 H 4.311577 1.612198 -1.431826 0
M  V30 55 H 5.390878 -0.492131 -1.011566 0
M  V30 END ATOM
M  V30 BEGIN BOND
M  V30 1 1 1 2
M  V30 2 1 2 3
M  V30 3 1 2 4
M  V30 4 2 4 5
M  V30 5 1 4 6
M  V30 6 2 6 7
M  V30 7 1 7 8
M  V30 8 2 8 9
M  V30 9 1 9 10
M  V30 10 1 10 11
M  V30 11 2 11 12
M  V30 12 1 12 13
M  V30 13 2 13 14
M  V30 14 1 14 15
M  V30 15 1 15 16
M  V30 16 1 15 17
M  V30 17 1 15 18
M  V30 18 1 14 19
M  V30 19 1 19 20
M  V30 20 1 20 21
M  V30 21 1 21 22
M  V30 22 1 22 23
M  V30 23 1 23 24
M  V30 24 1 24 25
M  V30 25 1 24 26
M  V30 26 1 26 27
M  V30 27 2 19 28
M  V30 28 1 9 29
M  V30 29 2 29 30
M  V30 30 1 30 6
M  V30 31 1 28 11
M  V30 32 1 27 21
M  V30 33 1 1 31
M  V30 34 1 1 32
M  V30 35 1 1 33
M  V30 36 1 3 34
M  V30 37 1 3 35
M  V30 38 1 3 36
M  V30 39 1 7 37
M  V30 40 1 8 38
M  V30 41 1 10 39
M  V30 42 1 13 40
M  V30 43 1 20 41
M  V30 44 1 21 42 CFG=1
M  V30 45 1 22 43
M  V30 46 1 22 44
M  V30 47 1 23 45
M  V30 48 1 23 46
M  V30 49 1 24 47 CFG=1
M  V30 50 1 25 48
M  V30 51 1 25 49
M  V30 52 1 26 50
M  V30 53 1 26 51
M  V30 54 1 27 52
M  V30 55 1 27 53
M  V30 56 1 29 54
M  V30 57 1 30 55
M  V30 END BOND
M  V30 END CTAB
M  END
>  <Dataset>  (630) 
ChEMBL_Kinases

>  <Ligand_Instance>  (630) 
nan

>  <PDB_ID>  (630) 
nan

>  <Standardized_SMILES>  (630) 
CN(C)C(=O)c1ccc(Nc2ncc(C(F)(F)F)c(N[C@H]3CC[C@@H](N)CC3)n2)cc1

>  <Name>  (630) 
nan

>  <Pocket>  (630) 
nan

>  <ATP_Site>  (630) 
nan

>  <Peripheral>  (630) 
nan

>  <Num_H_Atoms_ProtBoundConf>  (630) 
nan

>  <Num_Resolved_Atoms>  (630) 
nan

>  <Num_Not_Resolved_Atoms>  (630) 
nan

$$$$
CHEMBL2409175
     RDKit          3D

  0  0  0  0  0  0  0  0  0  0999 V3000
M  V30 BEGIN CTAB
M  V30 COUNTS 46 49 0 0 0
M  V30 BEGIN ATOM
M  V30 1 C 0.693898 -4.568227 3.026698 0
M  V30 2 C 0.049951 -3.910810 1.878555 0
M  V30 3 O -1.025130 -3.234805 1.945373 0
M  V30 4 N 0.636208 -4.015511 0.592745 0
M  V30 5 C 0.007012 -3.383609 -0.543446 0
M  V30 6 C 0.378611 -2.070417 -0.750082 0
M  V30 7 C -0.162168 -1.391940 -1.803183 0
M  V30 8 N 0.063598 -0.004344 -2.142734 0
M  V30 9 C 0.210522 0.784805 -0.984656 0
M  V30 10 C 1.301252 1.325108 -0.367432 0
M  V30 11 C 1.243375 2.079378 0.802308 0
M  V30 12 N 2.421168 2.591132 1.356283 0
M  V30 13 C 3.008272 3.362790 2.372799 0
M  V30 14 C 2.643651 2.868250 3.802111 0
M  V30 15 C 2.363225 4.240451 3.354247 0
M  V30 16 N -0.005443 2.262597 1.328300 0
M  V30 17 N -0.438738 2.892538 2.398435 0
M  V30 18 C -1.763051 2.777489 2.495769 0
M  V30 19 C -2.258173 2.038064 1.447714 0
M  V30 20 C -3.609658 1.691338 1.179797 0
M  V30 21 N -4.731715 1.412903 0.940101 0
M  V30 22 C -1.113473 1.741625 0.747083 0
M  V30 23 N -0.971950 1.028362 -0.378689 0
M  V30 24 C -1.077655 -2.047768 -2.644454 0
M  V30 25 C -1.423182 -3.356841 -2.405367 0
M  V30 26 C -0.897736 -4.087727 -1.343335 0
M  V30 27 C -1.244861 -5.492669 -1.028956 0
M  V30 28 H 1.806154 -4.510689 3.019143 0
M  V30 29 H 0.355216 -4.117794 3.972638 0
M  V30 30 H 0.427200 -5.653148 3.064823 0
M  V30 31 H 1.525802 -4.536909 0.373009 0
M  V30 32 H 1.079465 -1.529787 -0.135159 0
M  V30 33 H 0.114803 0.321028 -3.136544 0
M  V30 34 H 2.235315 1.095599 -0.903999 0
M  V30 35 H 3.272719 2.264591 0.786120 0
M  V30 36 H 4.129135 3.565242 2.245010 0
M  V30 37 H 3.510548 2.574137 4.419836 0
M  V30 38 H 1.788075 2.185864 3.910098 0
M  V30 39 H 1.348507 4.614344 3.340095 0
M  V30 40 H 3.046461 5.013552 3.846223 0
M  V30 41 H -2.336390 3.230376 3.312332 0
M  V30 42 H -1.525866 -1.510623 -3.496498 0
M  V30 43 H -2.144799 -3.894580 -3.042978 0
M  V30 44 H -0.392705 -6.178406 -1.309147 0
M  V30 45 H -2.110277 -5.841960 -1.666161 0
M  V30 46 H -1.538876 -5.669470 0.013075 0
M  V30 END ATOM
M  V30 BEGIN BOND
M  V30 1 1 1 2
M  V30 2 2 2 3
M  V30 3 1 2 4
M  V30 4 1 4 5
M  V30 5 2 5 6
M  V30 6 1 6 7
M  V30 7 1 7 8
M  V30 8 1 8 9
M  V30 9 1 9 10
M  V30 10 2 10 11
M  V30 11 1 11 12
M  V30 12 1 12 13
M  V30 13 1 13 14
M  V30 14 1 14 15
M  V30 15 1 11 16
M  V30 16 1 16 17
M  V30 17 2 17 18
M  V30 18 1 18 19
M  V30 19 1 19 20
M  V30 20 3 20 21
M  V30 21 2 19 22
M  V30 22 1 22 23
M  V30 23 2 7 24
M  V30 24 1 24 25
M  V30 25 2 25 26
M  V30 26 1 26 27
M  V30 27 1 26 5
M  V30 28 2 23 9
M  V30 29 1 15 13
M  V30 30 1 22 16
M  V30 31 1 1 28
M  V30 32 1 1 29
M  V30 33 1 1 30
M  V30 34 1 4 31
M  V30 35 1 6 32
M  V30 36 1 8 33
M  V30 37 1 10 34
M  V30 38 1 12 35
M  V30 39 1 13 36
M  V30 40 1 14 37
M  V30 41 1 14 38
M  V30 42 1 15 39
M  V30 43 1 15 40
M  V30 44 1 18 41
M  V30 45 1 24 42
M  V30 46 1 25 43
M  V30 47 1 27 44
M  V30 48 1 27 45
M  V30 49 1 27 46
M  V30 END BOND
M  V30 END CTAB
M  END
>  <Dataset>  (631) 
ChEMBL_Kinases

>  <Ligand_Instance>  (631) 
nan

>  <PDB_ID>  (631) 
nan

>  <Standardized_SMILES>  (631) 
CC(=O)Nc1cc(Nc2cc(NC3CC3)n3ncc(C#N)c3n2)ccc1C

>  <Name>  (631) 
nan

>  <Pocket>  (631) 
nan

>  <ATP_Site>  (631) 
nan

>  <Peripheral>  (631) 
nan

>  <Num_H_Atoms_ProtBoundConf>  (631) 
nan

>  <Num_Resolved_Atoms>  (631) 
nan

>  <Num_Not_Resolved_Atoms>  (631) 
nan

$$$$
CHEMBL126077
     RDKit          3D

  0  0  0  0  0  0  0  0  0  0999 V3000
M  V30 BEGIN CTAB
M  V30 COUNTS 32 35 0 0 0
M  V30 BEGIN ATOM
M  V30 1 O -0.484567 -3.548569 0.117857 0
M  V30 2 N -1.125040 -2.477374 -0.049516 0
M  V30 3 C -1.063883 -1.503965 0.948885 0
M  V30 4 C -0.109444 -0.538060 1.052243 0
M  V30 5 C 1.078006 -0.099063 0.372923 0
M  V30 6 C 2.036187 0.727240 0.918890 0
M  V30 7 O 2.132617 1.303398 2.200026 0
M  V30 8 N 3.020526 1.000550 0.049623 0
M  V30 9 C 2.767745 0.375136 -1.110804 0
M  V30 10 C 3.439589 0.334664 -2.312727 0
M  V30 11 C 2.929294 -0.390413 -3.368112 0
M  V30 12 C 1.740080 -1.063197 -3.180871 0
M  V30 13 C 1.112921 -0.988450 -1.961003 0
M  V30 14 C 1.580595 -0.283860 -0.883379 0
M  V30 15 N -0.488193 0.089457 2.187410 0
M  V30 16 C -1.586885 -0.427299 2.758167 0
M  V30 17 C -2.357672 -0.170984 3.876427 0
M  V30 18 C -3.466211 -0.935848 4.167358 0
M  V30 19 C -3.874992 -1.987522 3.380159 0
M  V30 20 C -3.102227 -2.230534 2.275172 0
M  V30 21 C -1.990952 -1.479011 1.965778 0
M  V30 22 H 2.572568 0.796239 2.978011 0
M  V30 23 H 3.873618 1.589048 0.175143 0
M  V30 24 H 4.377371 0.871653 -2.444869 0
M  V30 25 H 3.447310 -0.430359 -4.316367 0
M  V30 26 H 1.358146 -1.624871 -4.022743 0
M  V30 27 H 0.195696 -1.521207 -1.922965 0
M  V30 28 H -0.074665 0.915428 2.700865 0
M  V30 29 H -2.073876 0.644907 4.521800 0
M  V30 30 H -4.049979 -0.702357 5.060066 0
M  V30 31 H -4.747324 -2.546146 3.659419 0
M  V30 32 H -3.368476 -3.042929 1.614511 0
M  V30 END ATOM
M  V30 BEGIN BOND
M  V30 1 2 1 2
M  V30 2 1 2 3
M  V30 3 2 3 4
M  V30 4 1 4 5
M  V30 5 2 5 6
M  V30 6 1 6 7
M  V30 7 1 6 8
M  V30 8 1 8 9
M  V30 9 2 9 10
M  V30 10 1 10 11
M  V30 11 2 11 12
M  V30 12 1 12 13
M  V30 13 2 13 14
M  V30 14 1 4 15
M  V30 15 1 15 16
M  V30 16 2 16 17
M  V30 17 1 17 18
M  V30 18 2 18 19
M  V30 19 1 19 20
M  V30 20 2 20 21
M  V30 21 1 21 3
M  V30 22 1 14 5
M  V30 23 1 21 16
M  V30 24 1 14 9
M  V30 25 1 7 22
M  V30 26 1 8 23
M  V30 27 1 10 24
M  V30 28 1 11 25
M  V30 29 1 12 26
M  V30 30 1 13 27
M  V30 31 1 15 28
M  V30 32 1 17 29
M  V30 33 1 18 30
M  V30 34 1 19 31
M  V30 35 1 20 32
M  V30 END BOND
M  V30 END CTAB
M  END
>  <Dataset>  (632) 
ChEMBL_Kinases

>  <Ligand_Instance>  (632) 
nan

>  <PDB_ID>  (632) 
nan

>  <Standardized_SMILES>  (632) 
O=Nc1c(-c2c(O)[nH]c3ccccc23)[nH]c2ccccc12

>  <Name>  (632) 
INDIRUBIN-3-MONOXIME

>  <Pocket>  (632) 
nan

>  <ATP_Site>  (632) 
nan

>  <Peripheral>  (632) 
nan

>  <Num_H_Atoms_ProtBoundConf>  (632) 
nan

>  <Num_Resolved_Atoms>  (632) 
nan

>  <Num_Not_Resolved_Atoms>  (632) 
nan

$$$$
CHEMBL4594167
     RDKit          3D

  0  0  0  0  0  0  0  0  0  0999 V3000
M  V30 BEGIN CTAB
M  V30 COUNTS 64 68 0 0 0
M  V30 BEGIN ATOM
M  V30 1 C 4.257865 -2.775086 3.890446 0
M  V30 2 N 4.271630 -1.404008 3.571342 0
M  V30 3 C 4.307147 0.001193 3.238172 0
M  V30 4 C 3.865342 0.378650 1.956853 0
M  V30 5 C 3.764266 1.744204 1.566626 0
M  V30 6 C 3.013371 1.688945 0.302822 0
M  V30 7 C 2.835218 0.764492 -0.658578 0
M  V30 8 C 1.807709 0.750866 -1.547511 0
M  V30 9 C 0.913185 1.794926 -1.386608 0
M  V30 10 N -0.264456 1.937540 -2.099780 0
M  V30 11 C -0.856664 3.048929 -1.533398 0
M  V30 12 N -2.194408 3.396830 -1.944513 0
M  V30 13 C -3.102719 2.578876 -1.136796 0
M  V30 14 C -2.612919 1.655505 -0.214361 0
M  V30 15 C -3.288068 0.757979 0.606735 0
M  V30 16 C -2.470054 -0.148898 1.479551 0
M  V30 17 N -2.059756 -1.360749 0.852544 0
M  V30 18 C -1.377069 -1.194537 -0.421883 0
M  V30 19 C -1.582806 -2.537881 -1.158270 0
M  V30 20 N -1.382184 -3.558057 -0.152702 0
M  V30 21 C -1.936322 -4.844737 -0.529523 0
M  V30 22 O -1.902449 -5.949956 0.088005 0
M  V30 23 C -2.688067 -5.070646 -1.763389 0
M  V30 24 C -2.131799 -6.264996 -2.507897 0
M  V30 25 F -2.159676 -7.429902 -1.801761 0
M  V30 26 F -2.883683 -6.376940 -3.682171 0
M  V30 27 F -0.826439 -6.009110 -2.888741 0
M  V30 28 C -0.669798 -3.327541 1.109635 0
M  V30 29 C -1.001587 -1.972628 1.711349 0
M  V30 30 C -4.686411 0.782267 0.502055 0
M  V30 31 C -5.154220 1.720959 -0.437674 0
M  V30 32 N -4.413891 2.540355 -1.187139 0
M  V30 33 N -0.131144 3.570382 -0.561525 0
M  V30 34 C 0.998698 2.793026 -0.439549 0
M  V30 35 C 2.105900 2.755485 0.458074 0
M  V30 36 N 4.136481 2.520218 2.567103 0
M  V30 37 C 4.551570 2.222612 3.769019 0
M  V30 38 N 4.661987 0.948290 4.173591 0
M  V30 39 H 3.330319 -3.135252 4.362646 0
M  V30 40 H 4.344177 -3.415065 2.946775 0
M  V30 41 H 5.094847 -3.044175 4.592904 0
M  V30 42 H 3.240142 -1.242247 3.898062 0
M  V30 43 H 3.650622 -0.511493 1.353090 0
M  V30 44 H 3.663800 0.075253 -0.559757 0
M  V30 45 H 1.845191 -0.070387 -2.214914 0
M  V30 46 H -2.635853 4.042034 -2.619879 0
M  V30 47 H -1.528261 1.582220 -0.033821 0
M  V30 48 H -1.562274 0.404379 1.784270 0
M  V30 49 H -3.038077 -0.350079 2.434970 0
M  V30 50 H -1.698163 -0.384448 -1.068466 0
M  V30 51 H -0.264159 -1.138498 -0.301554 0
M  V30 52 H -0.943348 -2.642296 -2.030538 0
M  V30 53 H -2.676386 -2.506449 -1.416525 0
M  V30 54 H -3.786686 -5.268815 -1.516586 0
M  V30 55 H -2.599004 -4.198481 -2.487599 0
M  V30 56 H -0.964774 -4.077586 1.870834 0
M  V30 57 H 0.420426 -3.398019 0.895191 0
M  V30 58 H -0.088347 -1.339010 1.656402 0
M  V30 59 H -1.359421 -1.982276 2.719442 0
M  V30 60 H -5.212569 0.103983 1.130349 0
M  V30 61 H -6.246987 1.718760 -0.535589 0
M  V30 62 H -0.301113 4.391955 0.023128 0
M  V30 63 H 2.055964 3.577828 1.129646 0
M  V30 64 H 4.756623 3.095925 4.331078 0
M  V30 END ATOM
M  V30 BEGIN BOND
M  V30 1 1 1 2
M  V30 2 1 2 3
M  V30 3 2 3 4
M  V30 4 1 4 5
M  V30 5 1 5 6
M  V30 6 2 6 7
M  V30 7 1 7 8
M  V30 8 2 8 9
M  V30 9 1 9 10
M  V30 10 2 10 11
M  V30 11 1 11 12
M  V30 12 1 12 13
M  V30 13 2 13 14
M  V30 14 1 14 15
M  V30 15 1 15 16
M  V30 16 1 16 17
M  V30 17 1 17 18
M  V30 18 1 18 19
M  V30 19 1 19 20
M  V30 20 1 20 21
M  V30 21 2 21 22
M  V30 22 1 21 23
M  V30 23 1 23 24
M  V30 24 1 24 25
M  V30 25 1 24 26
M  V30 26 1 24 27
M  V30 27 1 20 28
M  V30 28 1 28 29
M  V30 29 2 15 30
M  V30 30 1 30 31
M  V30 31 2 31 32
M  V30 32 1 11 33
M  V30 33 1 33 34
M  V30 34 2 34 35
M  V30 35 2 5 36
M  V30 36 1 36 37
M  V30 37 2 37 38
M  V30 38 1 38 3
M  V30 39 1 35 6
M  V30 40 1 34 9
M  V30 41 1 32 13
M  V30 42 1 29 17
M  V30 43 1 1 39
M  V30 44 1 1 40
M  V30 45 1 1 41
M  V30 46 1 2 42
M  V30 47 1 4 43
M  V30 48 1 7 44
M  V30 49 1 8 45
M  V30 50 1 12 46
M  V30 51 1 14 47
M  V30 52 1 16 48
M  V30 53 1 16 49
M  V30 54 1 18 50
M  V30 55 1 18 51
M  V30 56 1 19 52
M  V30 57 1 19 53
M  V30 58 1 23 54
M  V30 59 1 23 55
M  V30 60 1 28 56
M  V30 61 1 28 57
M  V30 62 1 29 58
M  V30 63 1 29 59
M  V30 64 1 30 60
M  V30 65 1 31 61
M  V30 66 1 33 62
M  V30 67 1 35 63
M  V30 68 1 37 64
M  V30 END BOND
M  V30 END CTAB
M  END
>  <Dataset>  (633) 
ChEMBL_Kinases

>  <Ligand_Instance>  (633) 
nan

>  <PDB_ID>  (633) 
nan

>  <Standardized_SMILES>  (633) 
CNc1cc(-c2ccc3nc(Nc4cc(CN5CCN(C(=O)CC(F)(F)F)CC5)ccn4)[nH]c3c2)ncn1

>  <Name>  (633) 
nan

>  <Pocket>  (633) 
nan

>  <ATP_Site>  (633) 
nan

>  <Peripheral>  (633) 
nan

>  <Num_H_Atoms_ProtBoundConf>  (633) 
nan

>  <Num_Resolved_Atoms>  (633) 
nan

>  <Num_Not_Resolved_Atoms>  (633) 
nan

$$$$
CHEMBL4080906
     RDKit          3D

  0  0  0  0  0  0  0  0  0  0999 V3000
M  V30 BEGIN CTAB
M  V30 COUNTS 71 77 0 0 0
M  V30 BEGIN ATOM
M  V30 1 C 6.598417 0.611846 0.746371 0
M  V30 2 N 6.072138 -0.678042 0.421404 0
M  V30 3 C 5.786123 -1.438793 1.646279 0
M  V30 4 C 4.826863 -0.611171 -0.313017 0 CFG=1
M  V30 5 C 3.732007 0.113424 0.475717 0
M  V30 6 C 2.438010 -0.303093 -0.150765 0 CFG=1
M  V30 7 C 2.139492 -1.698503 0.388073 0
M  V30 8 C 0.603861 -1.709509 0.422515 0
M  V30 9 C 0.258257 -0.375399 -0.100128 0 CFG=1
M  V30 10 O 1.355113 0.418315 0.283585 0
M  V30 11 C 0.111762 -0.323608 -1.603334 0
M  V30 12 C -1.036411 -0.102642 -2.161703 0
M  V30 13 C -2.356473 0.131381 -1.544855 0
M  V30 14 C -2.255414 -0.320341 -0.087522 0 CFG=2
M  V30 15 C -2.360202 -1.799906 -0.104021 0
M  V30 16 C -3.265221 0.381947 0.790210 0 CFG=1
M  V30 17 C -4.361515 -0.472532 1.261181 0
M  V30 18 C -4.227123 -1.493846 2.194060 0
M  V30 19 C -5.257891 -2.294545 2.628793 0
M  V30 20 C -6.521225 -2.092764 2.121779 0
M  V30 21 C -7.597753 -2.860309 2.515440 0
M  V30 22 C -8.850069 -2.596460 1.956791 0
M  V30 23 N -9.036430 -1.618238 1.048451 0
M  V30 24 C -7.998275 -0.835635 0.631537 0
M  V30 25 C -6.762479 -1.104133 1.189959 0
M  V30 26 C -5.679674 -0.341672 0.802319 0
M  V30 27 C -2.505343 1.073658 1.861065 0
M  V30 28 C -1.159960 0.376859 1.857367 0
M  V30 29 C -0.967954 0.257428 0.396713 0 CFG=1
M  V30 30 C 1.372610 -0.533636 -2.307948 0
M  V30 31 C 2.484160 -0.285741 -1.619700 0
M  V30 32 C 3.707196 -0.008131 -2.416988 0 CFG=1
M  V30 33 O 3.557292 1.141399 -3.186295 0
M  V30 34 C 4.952224 0.118474 -1.609727 0 CFG=2
M  V30 35 O 6.023483 -0.443768 -2.324513 0
M  V30 36 H 7.528748 0.431821 1.346223 0
M  V30 37 H 5.948733 1.243764 1.366756 0
M  V30 38 H 6.888390 1.097881 -0.215724 0
M  V30 39 H 5.553327 -0.744036 2.478769 0
M  V30 40 H 4.903051 -2.088599 1.505441 0
M  V30 41 H 6.634658 -2.071394 1.940053 0
M  V30 42 H 4.449980 -1.635579 -0.504409 0
M  V30 43 H 3.751250 -0.280502 1.514338 0
M  V30 44 H 3.893204 1.205235 0.474486 0
M  V30 45 H 2.556841 -2.418919 -0.316058 0
M  V30 46 H 2.519604 -1.809646 1.427749 0
M  V30 47 H 0.250828 -1.832404 1.467486 0
M  V30 48 H 0.309701 -2.576673 -0.170723 0
M  V30 49 H -1.006519 -0.090652 -3.261680 0
M  V30 50 H -2.572196 1.234504 -1.574904 0
M  V30 51 H -3.188800 -0.409947 -2.007786 0
M  V30 52 H -1.965019 -2.345421 0.743885 0
M  V30 53 H -3.464770 -2.035917 -0.129595 0
M  V30 54 H -2.015650 -2.194770 -1.093054 0
M  V30 55 H -3.760943 1.177574 0.150783 0
M  V30 56 H -3.279023 -1.689165 2.617814 0
M  V30 57 H -5.103210 -3.068213 3.349097 0
M  V30 58 H -7.476267 -3.660488 3.250375 0
M  V30 59 H -9.715729 -3.164164 2.229846 0
M  V30 60 H -8.102885 -0.046434 -0.089338 0
M  V30 61 H -5.852040 0.448025 0.063323 0
M  V30 62 H -2.980571 1.098295 2.845199 0
M  V30 63 H -2.286256 2.128177 1.553249 0
M  V30 64 H -0.378496 1.045604 2.274475 0
M  V30 65 H -1.159148 -0.622522 2.303241 0
M  V30 66 H -0.944808 1.323683 0.016029 0
M  V30 67 H 1.323560 -0.875169 -3.342278 0
M  V30 68 H 3.825683 -0.899602 -3.088791 0
M  V30 69 H 3.717186 0.938575 -4.145034 0
M  V30 70 H 5.195762 1.190622 -1.401292 0
M  V30 71 H 5.819501 -1.415287 -2.417446 0
M  V30 END ATOM
M  V30 BEGIN BOND
M  V30 1 1 1 2
M  V30 2 1 2 3
M  V30 3 1 2 4
M  V30 4 1 4 5
M  V30 5 1 6 5 CFG=1
M  V30 6 1 6 7
M  V30 7 1 7 8
M  V30 8 1 9 8 CFG=1
M  V30 9 1 9 10
M  V30 10 1 9 11
M  V30 11 2 11 12
M  V30 12 1 12 13
M  V30 13 1 13 14
M  V30 14 1 14 15 CFG=3
M  V30 15 1 14 16
M  V30 16 1 16 17
M  V30 17 2 17 18
M  V30 18 1 18 19
M  V30 19 2 19 20
M  V30 20 1 20 21
M  V30 21 2 21 22
M  V30 22 1 22 23
M  V30 23 2 23 24
M  V30 24 1 24 25
M  V30 25 2 25 26
M  V30 26 1 16 27
M  V30 27 1 27 28
M  V30 28 1 28 29
M  V30 29 1 11 30
M  V30 30 2 30 31
M  V30 31 1 31 32
M  V30 32 1 32 33
M  V30 33 1 32 34
M  V30 34 1 34 35
M  V30 35 1 34 4
M  V30 36 1 10 6
M  V30 37 1 29 14
M  V30 38 1 31 6
M  V30 39 1 29 9
M  V30 40 1 26 17
M  V30 41 1 25 20
M  V30 42 1 1 36
M  V30 43 1 1 37
M  V30 44 1 1 38
M  V30 45 1 3 39
M  V30 46 1 3 40
M  V30 47 1 3 41
M  V30 48 1 4 42 CFG=3
M  V30 49 1 5 43
M  V30 50 1 5 44
M  V30 51 1 7 45
M  V30 52 1 7 46
M  V30 53 1 8 47
M  V30 54 1 8 48
M  V30 55 1 12 49
M  V30 56 1 13 50
M  V30 57 1 13 51
M  V30 58 1 15 52
M  V30 59 1 15 53
M  V30 60 1 15 54
M  V30 61 1 16 55 CFG=3
M  V30 62 1 18 56
M  V30 63 1 19 57
M  V30 64 1 21 58
M  V30 65 1 22 59
M  V30 66 1 24 60
M  V30 67 1 26 61
M  V30 68 1 27 62
M  V30 69 1 27 63
M  V30 70 1 28 64
M  V30 71 1 28 65
M  V30 72 1 29 66 CFG=3
M  V30 73 1 30 67
M  V30 74 1 32 68 CFG=3
M  V30 75 1 33 69
M  V30 76 1 34 70 CFG=1
M  V30 77 1 35 71
M  V30 END BOND
M  V30 END CTAB
M  END
>  <Dataset>  (634) 
ChEMBL_Kinases

>  <Ligand_Instance>  (634) 
nan

>  <PDB_ID>  (634) 
nan

>  <Standardized_SMILES>  (634) 
CN(C)[C@H]1C[C@@]23CC[C@@]4(O2)C(=CC[C@]2(C)[C@@H](c5ccc6ccncc6c5)CC[C@H]24)C=C3[C@@H](O)[C@@H]1O

>  <Name>  (634) 
nan

>  <Pocket>  (634) 
nan

>  <ATP_Site>  (634) 
nan

>  <Peripheral>  (634) 
nan

>  <Num_H_Atoms_ProtBoundConf>  (634) 
nan

>  <Num_Resolved_Atoms>  (634) 
nan

>  <Num_Not_Resolved_Atoms>  (634) 
nan

$$$$
CHEMBL4074015
     RDKit          3D

  0  0  0  0  0  0  0  0  0  0999 V3000
M  V30 BEGIN CTAB
M  V30 COUNTS 32 34 0 0 0
M  V30 BEGIN ATOM
M  V30 1 C -1.933127 -6.047363 3.751117 0
M  V30 2 C -1.837474 -4.982634 3.209761 0
M  V30 3 C -1.700856 -3.714343 2.556095 0
M  V30 4 N -0.529045 -3.349650 2.028428 0
M  V30 5 C -0.309430 -2.182801 1.398873 0
M  V30 6 N 0.973156 -1.889350 0.872394 0
M  V30 7 C 1.390026 -0.722996 0.183895 0
M  V30 8 C 0.610334 0.371195 -0.110818 0
M  V30 9 C 1.018257 1.504103 -0.780485 0
M  V30 10 C 2.331790 1.549202 -1.196295 0
M  V30 11 S 2.925928 2.945838 -2.049237 0
M  V30 12 N 3.559286 4.121572 -0.940127 0
M  V30 13 O 1.831817 3.624464 -2.824443 0
M  V30 14 O 4.017928 2.484822 -2.974306 0
M  V30 15 C 3.161690 0.480537 -0.928974 0
M  V30 16 C 2.687510 -0.609053 -0.260358 0
M  V30 17 N -1.385594 -1.398359 1.342725 0
M  V30 18 C -2.599110 -1.663357 1.834742 0
M  V30 19 N -3.770006 -0.988760 1.860075 0
M  V30 20 C -4.684202 -1.756630 2.505235 0
M  V30 21 N -4.062088 -2.897211 2.869620 0
M  V30 22 C -2.780798 -2.865792 2.470112 0
M  V30 23 H -2.008419 -6.989353 4.229133 0
M  V30 24 H 1.711767 -2.631295 1.009272 0
M  V30 25 H -0.423442 0.376598 0.196676 0
M  V30 26 H 0.341810 2.324866 -0.974075 0
M  V30 27 H 4.412298 3.716480 -0.480427 0
M  V30 28 H 2.838588 4.242747 -0.182923 0
M  V30 29 H 4.188877 0.543581 -1.267555 0
M  V30 30 H 3.409220 -1.400528 -0.094490 0
M  V30 31 H -3.952135 -0.035589 1.454248 0
M  V30 32 H -5.736672 -1.505237 2.699485 0
M  V30 END ATOM
M  V30 BEGIN BOND
M  V30 1 3 1 2
M  V30 2 1 2 3
M  V30 3 2 3 4
M  V30 4 1 4 5
M  V30 5 1 5 6
M  V30 6 1 6 7
M  V30 7 2 7 8
M  V30 8 1 8 9
M  V30 9 2 9 10
M  V30 10 1 10 11
M  V30 11 1 11 12
M  V30 12 2 11 13
M  V30 13 2 11 14
M  V30 14 1 10 15
M  V30 15 2 15 16
M  V30 16 2 5 17
M  V30 17 1 17 18
M  V30 18 1 18 19
M  V30 19 1 19 20
M  V30 20 2 20 21
M  V30 21 1 21 22
M  V30 22 1 22 3
M  V30 23 1 16 7
M  V30 24 2 22 18
M  V30 25 1 1 23
M  V30 26 1 6 24
M  V30 27 1 8 25
M  V30 28 1 9 26
M  V30 29 1 12 27
M  V30 30 1 12 28
M  V30 31 1 15 29
M  V30 32 1 16 30
M  V30 33 1 19 31
M  V30 34 1 20 32
M  V30 END BOND
M  V30 END CTAB
M  END
>  <Dataset>  (635) 
ChEMBL_Kinases

>  <Ligand_Instance>  (635) 
nan

>  <PDB_ID>  (635) 
nan

>  <Standardized_SMILES>  (635) 
C#Cc1nc(Nc2ccc(S(N)(=O)=O)cc2)nc2[nH]cnc12

>  <Name>  (635) 
nan

>  <Pocket>  (635) 
nan

>  <ATP_Site>  (635) 
nan

>  <Peripheral>  (635) 
nan

>  <Num_H_Atoms_ProtBoundConf>  (635) 
nan

>  <Num_Resolved_Atoms>  (635) 
nan

>  <Num_Not_Resolved_Atoms>  (635) 
nan

$$$$
CHEMBL316239
     RDKit          3D

  0  0  0  0  0  0  0  0  0  0999 V3000
M  V30 BEGIN CTAB
M  V30 COUNTS 57 62 0 0 0
M  V30 BEGIN ATOM
M  V30 1 N 2.277900 -1.888300 2.466335 0
M  V30 2 C 3.194023 -2.030863 1.403621 0
M  V30 3 C 3.003496 -1.090369 0.221421 0 CFG=2
M  V30 4 C 3.316678 0.318285 0.543429 0
M  V30 5 C 2.479182 0.984508 1.580671 0
M  V30 6 N 1.094758 1.149535 1.285882 0
M  V30 7 C 0.056094 0.360271 1.615676 0
M  V30 8 C -1.126948 0.884047 1.142359 0
M  V30 9 C -0.804443 2.076820 0.475293 0
M  V30 10 C -1.557862 3.028138 -0.193424 0
M  V30 11 C -0.974991 4.134272 -0.773425 0
M  V30 12 C 0.391066 4.295794 -0.684675 0
M  V30 13 C 1.112256 3.333796 -0.013922 0
M  V30 14 C 0.565635 2.201416 0.586665 0
M  V30 15 C -2.472044 0.343569 1.273651 0
M  V30 16 C -2.939995 -0.843020 0.849366 0
M  V30 17 C -4.341620 -0.984521 1.183469 0
M  V30 18 O -5.177241 -1.898818 0.990814 0
M  V30 19 N -4.757309 0.196969 1.858687 0
M  V30 20 C -3.610853 1.024595 1.920082 0
M  V30 21 O -3.613016 2.181676 2.465157 0
M  V30 22 C -2.149270 -1.817866 0.162070 0
M  V30 23 C -1.182921 -1.450295 -0.754859 0
M  V30 24 N -0.527520 -2.529471 -1.304656 0
M  V30 25 C -1.098033 -3.596894 -0.719453 0
M  V30 26 C -0.732001 -4.890421 -0.986976 0
M  V30 27 C -1.434489 -5.872827 -0.277624 0
M  V30 28 C -2.433800 -5.517867 0.632618 0
M  V30 29 C -2.748258 -4.176745 0.849361 0
M  V30 30 C -2.071719 -3.192632 0.163222 0
M  V30 31 C 0.484439 -2.071515 -2.235861 0
M  V30 32 C 1.836849 -1.968975 -1.558840 0
M  V30 33 O 1.757596 -1.259443 -0.366718 0
M  V30 34 H 1.534479 -2.644771 2.477577 0
M  V30 35 H 2.703987 -1.796480 3.411213 0
M  V30 36 H 3.122271 -3.086463 1.018800 0
M  V30 37 H 4.223373 -1.960635 1.809172 0
M  V30 38 H 3.730814 -1.478126 -0.522882 0
M  V30 39 H 3.163937 0.902932 -0.411435 0
M  V30 40 H 4.379412 0.406059 0.760141 0
M  V30 41 H 2.524599 0.472062 2.572450 0
M  V30 42 H 2.938885 1.980119 1.776245 0
M  V30 43 H -0.072895 -0.549019 2.143979 0
M  V30 44 H -2.628598 2.926870 -0.278083 0
M  V30 45 H -1.559187 4.861146 -1.285521 0
M  V30 46 H 0.874696 5.153660 -1.130248 0
M  V30 47 H 2.179073 3.504358 0.028920 0
M  V30 48 H -5.712087 0.451636 2.251929 0
M  V30 49 H -1.025589 -0.372743 -0.967373 0
M  V30 50 H 0.050340 -5.164212 -1.699568 0
M  V30 51 H -1.214256 -6.920675 -0.423544 0
M  V30 52 H -2.986889 -6.266143 1.189960 0
M  V30 53 H -3.519495 -3.932859 1.563282 0
M  V30 54 H 0.170486 -1.153903 -2.744385 0
M  V30 55 H 0.598030 -2.852349 -3.025901 0
M  V30 56 H 2.514750 -1.456482 -2.267713 0
M  V30 57 H 2.256239 -2.970586 -1.355341 0
M  V30 END ATOM
M  V30 BEGIN BOND
M  V30 1 1 1 2
M  V30 2 1 2 3
M  V30 3 1 3 4
M  V30 4 1 4 5
M  V30 5 1 5 6
M  V30 6 1 6 7
M  V30 7 2 7 8
M  V30 8 1 8 9
M  V30 9 2 9 10
M  V30 10 1 10 11
M  V30 11 2 11 12
M  V30 12 1 12 13
M  V30 13 2 13 14
M  V30 14 1 8 15
M  V30 15 2 15 16
M  V30 16 1 16 17
M  V30 17 2 17 18
M  V30 18 1 17 19
M  V30 19 1 19 20
M  V30 20 2 20 21
M  V30 21 1 16 22
M  V30 22 2 22 23
M  V30 23 1 23 24
M  V30 24 1 24 25
M  V30 25 2 25 26
M  V30 26 1 26 27
M  V30 27 2 27 28
M  V30 28 1 28 29
M  V30 29 2 29 30
M  V30 30 1 24 31
M  V30 31 1 31 32
M  V30 32 1 32 33
M  V30 33 1 33 3
M  V30 34 1 14 6
M  V30 35 1 20 15
M  V30 36 1 30 22
M  V30 37 1 14 9
M  V30 38 1 30 25
M  V30 39 1 1 34
M  V30 40 1 1 35
M  V30 41 1 2 36
M  V30 42 1 2 37
M  V30 43 1 3 38 CFG=3
M  V30 44 1 4 39
M  V30 45 1 4 40
M  V30 46 1 5 41
M  V30 47 1 5 42
M  V30 48 1 7 43
M  V30 49 1 10 44
M  V30 50 1 11 45
M  V30 51 1 12 46
M  V30 52 1 13 47
M  V30 53 1 19 48
M  V30 54 1 23 49
M  V30 55 1 26 50
M  V30 56 1 27 51
M  V30 57 1 28 52
M  V30 58 1 29 53
M  V30 59 1 31 54
M  V30 60 1 31 55
M  V30 61 1 32 56
M  V30 62 1 32 57
M  V30 END BOND
M  V30 END CTAB
M  END
>  <Dataset>  (636) 
ChEMBL_Kinases

>  <Ligand_Instance>  (636) 
nan

>  <PDB_ID>  (636) 
nan

>  <Standardized_SMILES>  (636) 
NC[C@@H]1CCn2cc(c3ccccc32)C2=C(C(=O)NC2=O)c2cn(c3ccccc23)CCO1

>  <Name>  (636) 
nan

>  <Pocket>  (636) 
nan

>  <ATP_Site>  (636) 
nan

>  <Peripheral>  (636) 
nan

>  <Num_H_Atoms_ProtBoundConf>  (636) 
nan

>  <Num_Resolved_Atoms>  (636) 
nan

>  <Num_Not_Resolved_Atoms>  (636) 
nan

$$$$
CHEMBL362558
     RDKit          3D

  0  0  0  0  0  0  0  0  0  0999 V3000
M  V30 BEGIN CTAB
M  V30 COUNTS 63 69 0 0 0
M  V30 BEGIN ATOM
M  V30 1 O -0.745765 -1.208464 6.269749 0
M  V30 2 C -0.030040 -0.353698 5.695093 0
M  V30 3 N 0.829308 0.564299 6.365429 0
M  V30 4 C 1.460203 1.358443 5.351310 0
M  V30 5 O 2.276272 2.250630 5.697639 0
M  V30 6 C 0.946805 0.881785 4.059676 0
M  V30 7 C 1.393308 1.444113 2.784595 0
M  V30 8 C 1.802165 0.704544 1.671162 0
M  V30 9 N 2.125647 1.546030 0.674749 0
M  V30 10 C 1.912052 2.790213 1.186201 0
M  V30 11 C 2.081951 4.028079 0.575307 0
M  V30 12 C 1.819809 5.229182 1.209201 0
M  V30 13 C 1.364694 5.156890 2.522984 0
M  V30 14 C 1.208302 3.910662 3.094138 0
M  V30 15 N 1.470094 2.766330 2.457368 0
M  V30 16 C 0.076807 -0.117087 4.258625 0
M  V30 17 C -0.609739 -0.758697 3.142261 0
M  V30 18 C -1.109166 0.014908 2.088822 0
M  V30 19 N -1.697586 -0.849823 1.195287 0
M  V30 20 C -1.573153 -2.091186 1.665736 0
M  V30 21 C -1.994317 -3.328853 1.151167 0
M  V30 22 C -1.745360 -4.494015 1.832525 0
M  V30 23 C -1.070267 -4.409773 3.032175 0
M  V30 24 F -0.817062 -5.550792 3.716894 0
M  V30 25 C -0.632379 -3.219208 3.586376 0
M  V30 26 C -0.903758 -2.070779 2.870754 0
M  V30 27 C -2.741985 -3.527065 -0.148472 0
M  V30 28 N -2.248898 -2.460777 -1.005406 0
M  V30 29 C -1.169885 -2.880119 -1.819326 0
M  V30 30 O -1.073988 -4.075416 -1.469036 0
M  V30 31 N -0.277982 -2.379964 -2.800587 0
M  V30 32 C -0.114109 -1.055801 -3.408603 0
M  V30 33 C -0.580864 -1.196231 -4.842432 0
M  V30 34 C 0.493228 -2.015866 -5.529828 0
M  V30 35 C 0.695351 -3.350674 -4.860912 0
M  V30 36 C 0.688401 -3.302447 -3.370238 0
M  V30 37 C -2.830031 -1.131448 -0.984582 0
M  V30 38 C -2.278007 -0.195634 0.018621 0
M  V30 39 H 0.937528 0.603967 7.421207 0
M  V30 40 H 1.828747 -0.371111 1.682460 0
M  V30 41 H 2.442859 4.049609 -0.463245 0
M  V30 42 H 1.943931 6.188039 0.758503 0
M  V30 43 H 1.133009 6.059820 3.097053 0
M  V30 44 H 0.850043 3.878172 4.089791 0
M  V30 45 H -1.031755 1.102943 2.016772 0
M  V30 46 H -2.081191 -5.430530 1.412596 0
M  V30 47 H -0.104265 -3.160295 4.519037 0
M  V30 48 H -2.604294 -4.533907 -0.542993 0
M  V30 49 H -3.815917 -3.335207 0.116304 0
M  V30 50 H 0.988136 -0.810478 -3.476053 0
M  V30 51 H -0.603522 -0.260213 -2.858411 0
M  V30 52 H -1.546057 -1.713990 -4.890395 0
M  V30 53 H -0.603885 -0.195038 -5.303419 0
M  V30 54 H 0.167048 -2.171424 -6.575356 0
M  V30 55 H 1.404841 -1.383364 -5.549587 0
M  V30 56 H 1.738132 -3.670728 -5.155104 0
M  V30 57 H 0.013389 -4.070141 -5.327494 0
M  V30 58 H 1.708857 -2.988567 -3.000130 0
M  V30 59 H 0.518736 -4.341654 -2.996110 0
M  V30 60 H -3.949118 -1.237074 -0.838991 0
M  V30 61 H -2.761718 -0.750704 -2.032133 0
M  V30 62 H -1.512459 0.499000 -0.365504 0
M  V30 63 H -3.116597 0.488016 0.347070 0
M  V30 END ATOM
M  V30 BEGIN BOND
M  V30 1 2 1 2
M  V30 2 1 2 3
M  V30 3 1 3 4
M  V30 4 2 4 5
M  V30 5 1 4 6
M  V30 6 1 6 7
M  V30 7 2 7 8
M  V30 8 1 8 9
M  V30 9 2 9 10
M  V30 10 1 10 11
M  V30 11 2 11 12
M  V30 12 1 12 13
M  V30 13 2 13 14
M  V30 14 1 14 15
M  V30 15 2 6 16
M  V30 16 1 16 17
M  V30 17 2 17 18
M  V30 18 1 18 19
M  V30 19 1 19 20
M  V30 20 2 20 21
M  V30 21 1 21 22
M  V30 22 2 22 23
M  V30 23 1 23 24
M  V30 24 1 23 25
M  V30 25 2 25 26
M  V30 26 1 21 27
M  V30 27 1 27 28
M  V30 28 1 28 29
M  V30 29 2 29 30
M  V30 30 1 29 31
M  V30 31 1 31 32
M  V30 32 1 32 33
M  V30 33 1 33 34
M  V30 34 1 34 35
M  V30 35 1 35 36
M  V30 36 1 28 37
M  V30 37 1 37 38
M  V30 38 1 16 2
M  V30 39 1 26 17
M  V30 40 1 36 31
M  V30 41 1 15 7
M  V30 42 1 38 19
M  V30 43 1 15 10
M  V30 44 1 26 20
M  V30 45 1 3 39
M  V30 46 1 8 40
M  V30 47 1 11 41
M  V30 48 1 12 42
M  V30 49 1 13 43
M  V30 50 1 14 44
M  V30 51 1 18 45
M  V30 52 1 22 46
M  V30 53 1 25 47
M  V30 54 1 27 48
M  V30 55 1 27 49
M  V30 56 1 32 50
M  V30 57 1 32 51
M  V30 58 1 33 52
M  V30 59 1 33 53
M  V30 60 1 34 54
M  V30 61 1 34 55
M  V30 62 1 35 56
M  V30 63 1 35 57
M  V30 64 1 36 58
M  V30 65 1 36 59
M  V30 66 1 37 60
M  V30 67 1 37 61
M  V30 68 1 38 62
M  V30 69 1 38 63
M  V30 END BOND
M  V30 END CTAB
M  END
>  <Dataset>  (637) 
ChEMBL_Kinases

>  <Ligand_Instance>  (637) 
nan

>  <PDB_ID>  (637) 
nan

>  <Standardized_SMILES>  (637) 
O=C1NC(=O)C(c2cnc3ccccn23)=C1c1cn2c3c(cc(F)cc13)CN(C(=O)N1CCCCC1)CC2

>  <Name>  (637) 
LY-2090314

>  <Pocket>  (637) 
nan

>  <ATP_Site>  (637) 
nan

>  <Peripheral>  (637) 
nan

>  <Num_H_Atoms_ProtBoundConf>  (637) 
nan

>  <Num_Resolved_Atoms>  (637) 
nan

>  <Num_Not_Resolved_Atoms>  (637) 
nan

$$$$
CHEMBL203567
     RDKit          3D

  0  0  0  0  0  0  0  0  0  0999 V3000
M  V30 BEGIN CTAB
M  V30 COUNTS 45 47 0 0 0
M  V30 BEGIN ATOM
M  V30 1 N -0.562331 -3.221895 3.251958 0
M  V30 2 C -0.713017 -3.104433 1.851657 0
M  V30 3 C -0.245587 -2.219431 0.877283 0
M  V30 4 C 0.584830 -1.109119 1.292351 0
M  V30 5 O 0.756597 -0.935688 2.533676 0
M  V30 6 C 1.284188 -0.116013 0.492211 0
M  V30 7 C 1.689729 -0.425020 -0.782981 0
M  V30 8 C 2.328909 0.494347 -1.585961 0
M  V30 9 C 2.553071 1.748906 -1.065968 0
M  V30 10 C 2.183767 2.144091 0.192712 0
M  V30 11 O 2.287181 3.289620 0.910666 0
M  V30 12 C 2.801336 4.537409 0.654691 0
M  V30 13 C 2.066156 5.196925 -0.483877 0 CFG=1
M  V30 14 O 0.717839 5.278120 -0.115184 0
M  V30 15 C 2.619926 6.617391 -0.694896 0
M  V30 16 O 2.480885 7.320076 0.499896 0
M  V30 17 C 1.536334 1.174988 0.973331 0
M  V30 18 C -0.749886 -2.647041 -0.329514 0
M  V30 19 N -1.489342 -3.746613 -0.080968 0
M  V30 20 N -1.471292 -4.023355 1.212272 0
M  V30 21 C -2.219248 -5.167941 1.600656 0
M  V30 22 C -1.570355 -6.380311 1.542658 0
M  V30 23 C -2.255845 -7.545754 1.910681 0
M  V30 24 C -3.564827 -7.359441 2.311431 0
M  V30 25 F -4.267409 -8.483221 2.679893 0
M  V30 26 C -4.263509 -6.144281 2.385045 0
M  V30 27 C -3.528927 -5.014264 2.005545 0
M  V30 28 H -1.309783 -2.858894 3.901202 0
M  V30 29 H 0.377578 -3.705201 3.370536 0
M  V30 30 H 1.578632 -1.374974 -1.283649 0
M  V30 31 H 2.690253 0.353769 -2.606925 0
M  V30 32 H 3.057191 2.512120 -1.629941 0
M  V30 33 H 3.889613 4.537769 0.397009 0
M  V30 34 H 2.666557 5.203350 1.542062 0
M  V30 35 H 2.243378 4.648427 -1.404210 0
M  V30 36 H 0.422881 4.505396 0.430665 0
M  V30 37 H 3.697643 6.520553 -0.986483 0
M  V30 38 H 2.098772 7.150919 -1.490360 0
M  V30 39 H 1.557771 7.103978 0.830269 0
M  V30 40 H 1.176867 1.312665 1.985645 0
M  V30 41 H -0.585193 -2.177695 -1.275244 0
M  V30 42 H -0.546085 -6.500417 1.226100 0
M  V30 43 H -1.840457 -8.539876 1.900255 0
M  V30 44 H -5.290937 -6.156391 2.719257 0
M  V30 45 H -4.045019 -4.066554 2.054694 0
M  V30 END ATOM
M  V30 BEGIN BOND
M  V30 1 1 1 2
M  V30 2 2 2 3
M  V30 3 1 3 4
M  V30 4 2 4 5
M  V30 5 1 4 6
M  V30 6 2 6 7
M  V30 7 1 7 8
M  V30 8 2 8 9
M  V30 9 1 9 10
M  V30 10 1 10 11
M  V30 11 1 11 12
M  V30 12 1 12 13
M  V30 13 1 13 14
M  V30 14 1 13 15
M  V30 15 1 15 16
M  V30 16 2 10 17
M  V30 17 1 3 18
M  V30 18 2 18 19
M  V30 19 1 19 20
M  V30 20 1 20 21
M  V30 21 2 21 22
M  V30 22 1 22 23
M  V30 23 2 23 24
M  V30 24 1 24 25
M  V30 25 1 24 26
M  V30 26 2 26 27
M  V30 27 1 20 2
M  V30 28 1 27 21
M  V30 29 1 17 6
M  V30 30 1 1 28
M  V30 31 1 1 29
M  V30 32 1 7 30
M  V30 33 1 8 31
M  V30 34 1 9 32
M  V30 35 1 12 33
M  V30 36 1 12 34
M  V30 37 1 13 35 CFG=3
M  V30 38 1 14 36
M  V30 39 1 15 37
M  V30 40 1 15 38
M  V30 41 1 16 39
M  V30 42 1 17 40
M  V30 43 1 18 41
M  V30 44 1 22 42
M  V30 45 1 23 43
M  V30 46 1 26 44
M  V30 47 1 27 45
M  V30 END BOND
M  V30 END CTAB
M  END
>  <Dataset>  (638) 
ChEMBL_Kinases

>  <Ligand_Instance>  (638) 
nan

>  <PDB_ID>  (638) 
nan

>  <Standardized_SMILES>  (638) 
Nc1c(C(=O)c2cccc(OC[C@@H](O)CO)c2)cnn1-c1ccc(F)cc1

>  <Name>  (638) 
RO-3201195

>  <Pocket>  (638) 
nan

>  <ATP_Site>  (638) 
nan

>  <Peripheral>  (638) 
nan

>  <Num_H_Atoms_ProtBoundConf>  (638) 
nan

>  <Num_Resolved_Atoms>  (638) 
nan

>  <Num_Not_Resolved_Atoms>  (638) 
nan

$$$$
CHEMBL3884570
     RDKit          3D

  0  0  0  0  0  0  0  0  0  0999 V3000
M  V30 BEGIN CTAB
M  V30 COUNTS 33 35 0 0 0
M  V30 BEGIN ATOM
M  V30 1 C -3.549065 -5.303954 2.972706 0
M  V30 2 O -2.572735 -4.338571 3.293863 0
M  V30 3 C -2.050624 -3.471841 2.351359 0
M  V30 4 C -1.097470 -2.548680 2.730483 0
M  V30 5 C -0.541934 -1.660764 1.838385 0
M  V30 6 C -0.931618 -1.674863 0.528869 0
M  V30 7 C -0.511261 -0.896959 -0.512368 0
M  V30 8 C 0.398997 0.209319 -0.703767 0
M  V30 9 C 0.637294 0.657309 -2.072146 0
M  V30 10 N 0.824609 1.001272 -3.187070 0
M  V30 11 C 1.110419 0.919381 0.105563 0
M  V30 12 C 2.029143 2.027428 -0.034090 0
M  V30 13 C 3.232137 2.143660 0.633725 0
M  V30 14 C 4.073573 3.226160 0.479480 0
M  V30 15 C 3.694427 4.234660 -0.379322 0
M  V30 16 N 2.516511 4.179626 -1.069536 0
M  V30 17 C 1.710660 3.088859 -0.888222 0
M  V30 18 C -1.268759 -1.398427 -1.579822 0
M  V30 19 N -2.049480 -2.384733 -1.139907 0
M  V30 20 C -1.882735 -2.603733 0.172971 0
M  V30 21 N -2.429193 -3.473633 1.038579 0
M  V30 22 H -4.558367 -4.824437 2.817233 0
M  V30 23 H -3.292046 -5.909894 2.075457 0
M  V30 24 H -3.624726 -6.038085 3.804051 0
M  V30 25 H -0.770437 -2.521362 3.779644 0
M  V30 26 H 0.195160 -0.969877 2.164103 0
M  V30 27 H 1.045954 0.696500 1.147667 0
M  V30 28 H 3.477343 1.313356 1.299711 0
M  V30 29 H 4.971083 3.181088 1.059526 0
M  V30 30 H 4.371011 5.078051 -0.487083 0
M  V30 31 H 0.823857 3.158273 -1.466782 0
M  V30 32 H -1.310231 -1.120110 -2.639480 0
M  V30 33 H -2.730518 -2.957091 -1.698668 0
M  V30 END ATOM
M  V30 BEGIN BOND
M  V30 1 1 1 2
M  V30 2 1 2 3
M  V30 3 2 3 4
M  V30 4 1 4 5
M  V30 5 2 5 6
M  V30 6 1 6 7
M  V30 7 1 7 8
M  V30 8 1 8 9
M  V30 9 3 9 10
M  V30 10 2 8 11
M  V30 11 1 11 12
M  V30 12 2 12 13
M  V30 13 1 13 14
M  V30 14 2 14 15
M  V30 15 1 15 16
M  V30 16 2 16 17
M  V30 17 2 7 18
M  V30 18 1 18 19
M  V30 19 1 19 20
M  V30 20 2 20 21
M  V30 21 1 21 3
M  V30 22 1 20 6
M  V30 23 1 17 12
M  V30 24 1 1 22
M  V30 25 1 1 23
M  V30 26 1 1 24
M  V30 27 1 4 25
M  V30 28 1 5 26
M  V30 29 1 11 27
M  V30 30 1 13 28
M  V30 31 1 14 29
M  V30 32 1 15 30
M  V30 33 1 17 31
M  V30 34 1 18 32
M  V30 35 1 19 33
M  V30 END BOND
M  V30 END CTAB
M  END
>  <Dataset>  (639) 
ChEMBL_Kinases

>  <Ligand_Instance>  (639) 
nan

>  <PDB_ID>  (639) 
nan

>  <Standardized_SMILES>  (639) 
COc1ccc2c(/C(C#N)=C/c3cccnc3)c[nH]c2n1

>  <Name>  (639) 
nan

>  <Pocket>  (639) 
nan

>  <ATP_Site>  (639) 
nan

>  <Peripheral>  (639) 
nan

>  <Num_H_Atoms_ProtBoundConf>  (639) 
nan

>  <Num_Resolved_Atoms>  (639) 
nan

>  <Num_Not_Resolved_Atoms>  (639) 
nan

$$$$
CHEMBL559147
     RDKit          3D

  0  0  0  0  0  0  0  0  0  0999 V3000
M  V30 BEGIN CTAB
M  V30 COUNTS 39 40 0 0 0
M  V30 BEGIN ATOM
M  V30 1 C -2.860720 -0.829779 2.234884 0
M  V30 2 C -2.077770 -2.106094 2.006805 0 CFG=1
M  V30 3 N -2.692064 -2.959683 1.034968 0
M  V30 4 C -0.633499 -1.794583 1.678603 0 CFG=1
M  V30 5 C 0.039223 -1.034820 2.797285 0
M  V30 6 C 1.533028 -1.103383 2.698061 0
M  V30 7 C 2.028352 -1.329458 1.279698 0 CFG=2
M  V30 8 C 1.755165 -0.116987 0.512429 0
M  V30 9 O 1.187360 0.823231 1.168449 0
M  V30 10 N 2.028737 0.152493 -0.832955 0
M  V30 11 C 1.600585 1.477728 -1.216295 0
M  V30 12 C 0.302640 1.640515 -1.705899 0
M  V30 13 C -0.043969 2.934502 -2.054813 0
M  V30 14 N 0.802024 3.973442 -1.935458 0
M  V30 15 C 2.044426 3.757205 -1.456264 0
M  V30 16 C 2.504619 2.510731 -1.075280 0
M  V30 17 C 1.493551 -2.604465 0.785121 0
M  V30 18 C 0.181528 -3.015881 1.423695 0
M  V30 19 H -2.498254 -0.128722 1.436237 0
M  V30 20 H -2.590720 -0.366508 3.197031 0
M  V30 21 H -3.935997 -0.956015 2.085084 0
M  V30 22 H -2.086222 -2.656655 2.983461 0
M  V30 23 H -2.663625 -2.524895 0.072859 0
M  V30 24 H -3.707987 -3.003450 1.273776 0
M  V30 25 H -0.667959 -1.195641 0.743809 0
M  V30 26 H -0.235846 -1.542868 3.766774 0
M  V30 27 H -0.296258 0.016041 2.784408 0
M  V30 28 H 1.959762 -0.119255 3.040725 0
M  V30 29 H 1.987233 -1.852700 3.381006 0
M  V30 30 H 3.152508 -1.375763 1.384183 0
M  V30 31 H 2.493949 -0.623592 -1.362269 0
M  V30 32 H -0.372499 0.801625 -1.799446 0
M  V30 33 H -1.061041 3.078568 -2.441355 0
M  V30 34 H 2.723871 4.596781 -1.361309 0
M  V30 35 H 3.481637 2.296907 -0.690800 0
M  V30 36 H 1.397059 -2.715041 -0.304177 0
M  V30 37 H 2.226874 -3.415388 1.072717 0
M  V30 38 H -0.307792 -3.757050 0.759658 0
M  V30 39 H 0.395057 -3.571897 2.380710 0
M  V30 END ATOM
M  V30 BEGIN BOND
M  V30 1 1 1 2
M  V30 2 1 2 3
M  V30 3 1 2 4
M  V30 4 1 4 5
M  V30 5 1 5 6
M  V30 6 1 6 7
M  V30 7 1 7 8
M  V30 8 2 8 9
M  V30 9 1 8 10
M  V30 10 1 10 11
M  V30 11 2 11 12
M  V30 12 1 12 13
M  V30 13 2 13 14
M  V30 14 1 14 15
M  V30 15 2 15 16
M  V30 16 1 7 17
M  V30 17 1 17 18
M  V30 18 1 18 4
M  V30 19 1 16 11
M  V30 20 1 1 19
M  V30 21 1 1 20
M  V30 22 1 1 21
M  V30 23 1 2 22 CFG=1
M  V30 24 1 3 23
M  V30 25 1 3 24
M  V30 26 1 4 25 CFG=3
M  V30 27 1 5 26
M  V30 28 1 5 27
M  V30 29 1 6 28
M  V30 30 1 6 29
M  V30 31 1 7 30 CFG=1
M  V30 32 1 10 31
M  V30 33 1 12 32
M  V30 34 1 13 33
M  V30 35 1 15 34
M  V30 36 1 16 35
M  V30 37 1 17 36
M  V30 38 1 17 37
M  V30 39 1 18 38
M  V30 40 1 18 39
M  V30 END BOND
M  V30 END CTAB
M  END
>  <Dataset>  (640) 
ChEMBL_Kinases

>  <Ligand_Instance>  (640) 
nan

>  <PDB_ID>  (640) 
nan

>  <Standardized_SMILES>  (640) 
C[C@@H](N)[C@H]1CC[C@H](C(=O)Nc2ccncc2)CC1

>  <Name>  (640) 
Y-27632

>  <Pocket>  (640) 
nan

>  <ATP_Site>  (640) 
nan

>  <Peripheral>  (640) 
nan

>  <Num_H_Atoms_ProtBoundConf>  (640) 
nan

>  <Num_Resolved_Atoms>  (640) 
nan

>  <Num_Not_Resolved_Atoms>  (640) 
nan

$$$$
CHEMBL266487
     RDKit          3D

  0  0  0  0  0  0  0  0  0  0999 V3000
M  V30 BEGIN CTAB
M  V30 COUNTS 38 42 0 0 0
M  V30 BEGIN ATOM
M  V30 1 O -0.983770 -4.768993 0.546017 0
M  V30 2 C 0.085269 -4.144131 0.516222 0
M  V30 3 N 1.441193 -4.569026 0.395807 0
M  V30 4 C 2.242711 -3.382714 0.421468 0
M  V30 5 O 3.479588 -3.531426 0.328986 0
M  V30 6 C 1.331056 -2.248248 0.558033 0
M  V30 7 C 1.941410 -0.927392 0.539485 0
M  V30 8 C 2.979770 -0.355533 1.255838 0
M  V30 9 N 3.196303 0.902701 0.850301 0
M  V30 10 C 2.333515 1.230905 -0.137835 0
M  V30 11 C 2.151320 2.366874 -0.881907 0
M  V30 12 C 1.185126 2.439593 -1.862308 0
M  V30 13 C 0.395564 1.338610 -2.084839 0
M  V30 14 C 0.609100 0.215986 -1.316575 0
M  V30 15 C 1.562216 0.093525 -0.322920 0
M  V30 16 C 0.064006 -2.669279 0.617447 0
M  V30 17 C -1.094336 -1.793315 0.801981 0
M  V30 18 C -2.299158 -1.757368 0.088981 0
M  V30 19 N -3.095471 -0.795357 0.620134 0
M  V30 20 C -2.469261 -0.193903 1.654209 0
M  V30 21 C -2.914700 0.832646 2.486853 0
M  V30 22 C -2.054998 1.261456 3.497474 0
M  V30 23 C -0.797307 0.676263 3.659894 0
M  V30 24 C -0.453883 -0.331084 2.782599 0
M  V30 25 C -1.233860 -0.814961 1.761367 0
M  V30 26 H 1.676377 -5.572852 0.312193 0
M  V30 27 H 3.511866 -0.908437 2.035177 0
M  V30 28 H 3.914341 1.575589 1.210089 0
M  V30 29 H 2.742680 3.256577 -0.748405 0
M  V30 30 H 1.010794 3.322296 -2.473793 0
M  V30 31 H -0.365654 1.392218 -2.855152 0
M  V30 32 H -0.054937 -0.603660 -1.568325 0
M  V30 33 H -2.522574 -2.403310 -0.740412 0
M  V30 34 H -4.063609 -0.588219 0.239554 0
M  V30 35 H -3.892735 1.272989 2.345524 0
M  V30 36 H -2.440213 2.061081 4.119775 0
M  V30 37 H -0.167072 1.039618 4.453067 0
M  V30 38 H 0.524050 -0.740851 2.976176 0
M  V30 END ATOM
M  V30 BEGIN BOND
M  V30 1 2 1 2
M  V30 2 1 2 3
M  V30 3 1 3 4
M  V30 4 2 4 5
M  V30 5 1 4 6
M  V30 6 1 6 7
M  V30 7 2 7 8
M  V30 8 1 8 9
M  V30 9 1 9 10
M  V30 10 2 10 11
M  V30 11 1 11 12
M  V30 12 2 12 13
M  V30 13 1 13 14
M  V30 14 2 14 15
M  V30 15 2 6 16
M  V30 16 1 16 17
M  V30 17 2 17 18
M  V30 18 1 18 19
M  V30 19 1 19 20
M  V30 20 2 20 21
M  V30 21 1 21 22
M  V30 22 2 22 23
M  V30 23 1 23 24
M  V30 24 2 24 25
M  V30 25 1 16 2
M  V30 26 1 25 17
M  V30 27 1 15 7
M  V30 28 1 25 20
M  V30 29 1 15 10
M  V30 30 1 3 26
M  V30 31 1 8 27
M  V30 32 1 9 28
M  V30 33 1 11 29
M  V30 34 1 12 30
M  V30 35 1 13 31
M  V30 36 1 14 32
M  V30 37 1 18 33
M  V30 38 1 19 34
M  V30 39 1 21 35
M  V30 40 1 22 36
M  V30 41 1 23 37
M  V30 42 1 24 38
M  V30 END BOND
M  V30 END CTAB
M  END
>  <Dataset>  (641) 
ChEMBL_Kinases

>  <Ligand_Instance>  (641) 
nan

>  <PDB_ID>  (641) 
nan

>  <Standardized_SMILES>  (641) 
O=C1NC(=O)C(c2c[nH]c3ccccc23)=C1c1c[nH]c2ccccc12

>  <Name>  (641) 
RO-316233

>  <Pocket>  (641) 
nan

>  <ATP_Site>  (641) 
nan

>  <Peripheral>  (641) 
nan

>  <Num_H_Atoms_ProtBoundConf>  (641) 
nan

>  <Num_Resolved_Atoms>  (641) 
nan

>  <Num_Not_Resolved_Atoms>  (641) 
nan

$$$$
CHEMBL91959
     RDKit          3D

  0  0  0  0  0  0  0  0  0  0999 V3000
M  V30 BEGIN CTAB
M  V30 COUNTS 72 78 0 0 0
M  V30 BEGIN ATOM
M  V30 1 C 2.803711 3.424810 -3.054366 0
M  V30 2 N 1.839228 3.243544 -2.025029 0
M  V30 3 C 1.124798 4.447656 -1.637001 0
M  V30 4 C 0.265091 4.117445 -0.435447 0
M  V30 5 N -0.102107 2.703279 -0.579284 0
M  V30 6 C -1.303447 2.397579 0.120017 0
M  V30 7 C -1.742699 0.980219 -0.263669 0 CFG=2
M  V30 8 C -1.791579 1.041491 -1.793882 0
M  V30 9 C -2.330507 -0.155745 -2.463986 0
M  V30 10 N -1.698028 -1.414959 -2.190161 0
M  V30 11 C -0.486562 -1.648526 -1.679320 0
M  V30 12 C -0.304525 -3.007286 -1.557117 0
M  V30 13 C -1.451198 -3.609245 -2.016703 0
M  V30 14 C -1.884958 -4.935503 -2.155904 0
M  V30 15 C -3.112921 -5.307893 -2.658165 0
M  V30 16 C -3.970809 -4.304343 -3.048938 0
M  V30 17 C -3.555704 -3.003101 -2.916354 0
M  V30 18 C -2.313025 -2.615777 -2.408721 0
M  V30 19 C 0.835807 -3.740386 -1.022555 0
M  V30 20 C 1.315328 -3.457170 0.207545 0
M  V30 21 C 2.463238 -4.340320 0.505036 0
M  V30 22 O 3.159220 -4.376450 1.531383 0
M  V30 23 N 2.635773 -5.179700 -0.649164 0
M  V30 24 C 1.634565 -4.814472 -1.595588 0
M  V30 25 O 1.438233 -5.318018 -2.756674 0
M  V30 26 C 0.699611 -2.407907 1.001616 0
M  V30 27 C -0.633178 -2.183308 1.206510 0
M  V30 28 N -0.787886 -1.078183 2.001999 0
M  V30 29 C 0.452544 -0.629064 2.286551 0
M  V30 30 C 0.735683 0.455389 3.060056 0
M  V30 31 C 2.077954 0.763883 3.240940 0
M  V30 32 C 3.092236 0.008529 2.664821 0
M  V30 33 C 2.698702 -1.068174 1.901101 0
M  V30 34 C 1.395979 -1.433668 1.678505 0
M  V30 35 C -2.186257 -0.815521 2.228239 0
M  V30 36 C -2.998943 -0.517975 1.012184 0
M  V30 37 O -2.872444 0.587799 0.306116 0
M  V30 38 C 1.068541 1.961297 -0.139248 0
M  V30 39 C 2.284668 2.485482 -0.884653 0
M  V30 40 H 2.760106 4.408410 -3.577757 0
M  V30 41 H 3.849773 3.214526 -2.771260 0
M  V30 42 H 2.579531 2.679593 -3.867353 0
M  V30 43 H 1.804511 5.290609 -1.480373 0
M  V30 44 H 0.427871 4.688653 -2.475052 0
M  V30 45 H 0.891734 4.235010 0.466706 0
M  V30 46 H -0.607118 4.760842 -0.353049 0
M  V30 47 H -2.073566 3.139471 -0.193084 0
M  V30 48 H -1.121352 2.466629 1.225557 0
M  V30 49 H -0.914260 0.308198 0.013581 0
M  V30 50 H -2.393893 1.943209 -2.110183 0
M  V30 51 H -0.772149 1.276730 -2.125158 0
M  V30 52 H -3.459078 -0.228853 -2.371395 0
M  V30 53 H -2.213930 -0.024964 -3.588107 0
M  V30 54 H 0.362299 -1.089945 -1.356805 0
M  V30 55 H -1.232854 -5.742958 -1.857755 0
M  V30 56 H -3.400911 -6.347433 -2.745702 0
M  V30 57 H -4.951424 -4.518698 -3.453382 0
M  V30 58 H -4.256867 -2.243504 -3.233315 0
M  V30 59 H 3.343345 -5.910445 -0.782654 0
M  V30 60 H -1.326533 -2.873753 0.750337 0
M  V30 61 H -0.024783 1.079019 3.532749 0
M  V30 62 H 2.406116 1.600424 3.834306 0
M  V30 63 H 4.139522 0.208596 2.778154 0
M  V30 64 H 3.474778 -1.665231 1.445143 0
M  V30 65 H -2.613597 -1.779101 2.645481 0
M  V30 66 H -2.260901 -0.009150 2.997411 0
M  V30 67 H -4.122225 -0.627828 1.272833 0
M  V30 68 H -2.880295 -1.475774 0.384214 0
M  V30 69 H 0.985957 0.886723 -0.254998 0
M  V30 70 H 1.232672 2.266849 0.923471 0
M  V30 71 H 2.960003 3.094492 -0.232752 0
M  V30 72 H 2.894324 1.637306 -1.251802 0
M  V30 END ATOM
M  V30 BEGIN BOND
M  V30 1 1 1 2
M  V30 2 1 2 3
M  V30 3 1 3 4
M  V30 4 1 4 5
M  V30 5 1 5 6
M  V30 6 1 6 7
M  V30 7 1 7 8
M  V30 8 1 8 9
M  V30 9 1 9 10
M  V30 10 1 10 11
M  V30 11 2 11 12
M  V30 12 1 12 13
M  V30 13 2 13 14
M  V30 14 1 14 15
M  V30 15 2 15 16
M  V30 16 1 16 17
M  V30 17 2 17 18
M  V30 18 1 12 19
M  V30 19 2 19 20
M  V30 20 1 20 21
M  V30 21 2 21 22
M  V30 22 1 21 23
M  V30 23 1 23 24
M  V30 24 2 24 25
M  V30 25 1 20 26
M  V30 26 2 26 27
M  V30 27 1 27 28
M  V30 28 1 28 29
M  V30 29 2 29 30
M  V30 30 1 30 31
M  V30 31 2 31 32
M  V30 32 1 32 33
M  V30 33 2 33 34
M  V30 34 1 28 35
M  V30 35 1 35 36
M  V30 36 1 36 37
M  V30 37 1 5 38
M  V30 38 1 38 39
M  V30 39 1 39 2
M  V30 40 1 37 7
M  V30 41 1 18 10
M  V30 42 1 24 19
M  V30 43 1 34 26
M  V30 44 1 18 13
M  V30 45 1 34 29
M  V30 46 1 1 40
M  V30 47 1 1 41
M  V30 48 1 1 42
M  V30 49 1 3 43
M  V30 50 1 3 44
M  V30 51 1 4 45
M  V30 52 1 4 46
M  V30 53 1 6 47
M  V30 54 1 6 48
M  V30 55 1 7 49 CFG=3
M  V30 56 1 8 50
M  V30 57 1 8 51
M  V30 58 1 9 52
M  V30 59 1 9 53
M  V30 60 1 11 54
M  V30 61 1 14 55
M  V30 62 1 15 56
M  V30 63 1 16 57
M  V30 64 1 17 58
M  V30 65 1 23 59
M  V30 66 1 27 60
M  V30 67 1 30 61
M  V30 68 1 31 62
M  V30 69 1 32 63
M  V30 70 1 33 64
M  V30 71 1 35 65
M  V30 72 1 35 66
M  V30 73 1 36 67
M  V30 74 1 36 68
M  V30 75 1 38 69
M  V30 76 1 38 70
M  V30 77 1 39 71
M  V30 78 1 39 72
M  V30 END BOND
M  V30 END CTAB
M  END
>  <Dataset>  (642) 
ChEMBL_Kinases

>  <Ligand_Instance>  (642) 
nan

>  <PDB_ID>  (642) 
nan

>  <Standardized_SMILES>  (642) 
CN1CCN(C[C@@H]2CCn3cc(c4ccccc43)C3=C(C(=O)NC3=O)c3cn(c4ccccc34)CCO2)CC1

>  <Name>  (642) 
nan

>  <Pocket>  (642) 
nan

>  <ATP_Site>  (642) 
nan

>  <Peripheral>  (642) 
nan

>  <Num_H_Atoms_ProtBoundConf>  (642) 
nan

>  <Num_Resolved_Atoms>  (642) 
nan

>  <Num_Not_Resolved_Atoms>  (642) 
nan

$$$$
CHEMBL4073198
     RDKit          3D

  0  0  0  0  0  0  0  0  0  0999 V3000
M  V30 BEGIN CTAB
M  V30 COUNTS 44 46 0 0 0
M  V30 BEGIN ATOM
M  V30 1 C -0.231262 -6.265197 -1.500611 0
M  V30 2 O 0.195760 -5.373523 -2.508956 0
M  V30 3 C -0.908058 -4.645778 -2.898328 0
M  V30 4 C -0.598779 -3.634784 -3.989366 0
M  V30 5 N 0.397635 -2.680077 -3.546482 0
M  V30 6 C 0.159166 -1.501545 -2.923216 0
M  V30 7 C 1.411272 -0.946935 -2.701034 0
M  V30 8 N 1.425745 0.335342 -2.037164 0
M  V30 9 C 1.492654 0.134222 -0.630992 0
M  V30 10 O 1.520806 -1.092045 -0.349010 0
M  V30 11 C 1.522862 1.238406 0.327818 0
M  V30 12 C 1.488037 2.548516 -0.075599 0
M  V30 13 S 1.551009 3.473748 1.548543 0
M  V30 14 C 1.614315 1.819524 2.479373 0
M  V30 15 C 1.685427 1.648695 3.982805 0
M  V30 16 N 2.863963 1.256061 4.528991 0
M  V30 17 N 2.670695 1.180223 5.841079 0
M  V30 18 C 1.414465 1.513747 6.108513 0
M  V30 19 N 0.750256 1.819567 4.955682 0
M  V30 20 C -0.593355 2.238789 4.616982 0
M  V30 21 C -0.692896 3.739356 4.443041 0
M  V30 22 C -1.506565 1.858618 5.770210 0
M  V30 23 N 1.585082 1.057188 1.635032 0
M  V30 24 C 2.373227 -1.804971 -3.195903 0
M  V30 25 N 1.697954 -2.865333 -3.710287 0
M  V30 26 H 0.619398 -6.885092 -1.142199 0
M  V30 27 H -1.023331 -6.914273 -1.962254 0
M  V30 28 H -0.711873 -5.719312 -0.661604 0
M  V30 29 H -1.332419 -4.148160 -2.005185 0
M  V30 30 H -1.679240 -5.370704 -3.225771 0
M  V30 31 H -1.580311 -3.141305 -4.216900 0
M  V30 32 H -0.229721 -4.149425 -4.887472 0
M  V30 33 H -0.853570 -1.165086 -2.696034 0
M  V30 34 H 1.396082 1.328864 -2.414853 0
M  V30 35 H 1.435118 2.912552 -1.130524 0
M  V30 36 H 0.866467 1.577854 7.038723 0
M  V30 37 H -0.910553 1.727238 3.678919 0
M  V30 38 H -1.283145 4.004928 3.547072 0
M  V30 39 H 0.322060 4.139509 4.425119 0
M  V30 40 H -1.207148 4.217173 5.297650 0
M  V30 41 H -1.632251 0.749902 5.837529 0
M  V30 42 H -2.470183 2.386575 5.627329 0
M  V30 43 H -1.030809 2.246767 6.699709 0
M  V30 44 H 3.413900 -1.520641 -3.102786 0
M  V30 END ATOM
M  V30 BEGIN BOND
M  V30 1 1 1 2
M  V30 2 1 2 3
M  V30 3 1 3 4
M  V30 4 1 4 5
M  V30 5 1 5 6
M  V30 6 2 6 7
M  V30 7 1 7 8
M  V30 8 1 8 9
M  V30 9 2 9 10
M  V30 10 1 9 11
M  V30 11 2 11 12
M  V30 12 1 12 13
M  V30 13 1 13 14
M  V30 14 1 14 15
M  V30 15 2 15 16
M  V30 16 1 16 17
M  V30 17 2 17 18
M  V30 18 1 18 19
M  V30 19 1 19 20
M  V30 20 1 20 21
M  V30 21 1 20 22
M  V30 22 2 14 23
M  V30 23 1 7 24
M  V30 24 2 24 25
M  V30 25 1 25 5
M  V30 26 1 23 11
M  V30 27 1 19 15
M  V30 28 1 1 26
M  V30 29 1 1 27
M  V30 30 1 1 28
M  V30 31 1 3 29
M  V30 32 1 3 30
M  V30 33 1 4 31
M  V30 34 1 4 32
M  V30 35 1 6 33
M  V30 36 1 8 34
M  V30 37 1 12 35
M  V30 38 1 18 36
M  V30 39 1 20 37
M  V30 40 1 21 38
M  V30 41 1 21 39
M  V30 42 1 21 40
M  V30 43 1 22 41
M  V30 44 1 22 42
M  V30 45 1 22 43
M  V30 46 1 24 44
M  V30 END BOND
M  V30 END CTAB
M  END
>  <Dataset>  (643) 
ChEMBL_Kinases

>  <Ligand_Instance>  (643) 
nan

>  <PDB_ID>  (643) 
nan

>  <Standardized_SMILES>  (643) 
COCCn1cc(NC(=O)c2csc(-c3nncn3C(C)C)n2)cn1

>  <Name>  (643) 
nan

>  <Pocket>  (643) 
nan

>  <ATP_Site>  (643) 
nan

>  <Peripheral>  (643) 
nan

>  <Num_H_Atoms_ProtBoundConf>  (643) 
nan

>  <Num_Resolved_Atoms>  (643) 
nan

>  <Num_Not_Resolved_Atoms>  (643) 
nan

$$$$
CHEMBL483158
     RDKit          3D

  0  0  0  0  0  0  0  0  0  0999 V3000
M  V30 BEGIN CTAB
M  V30 COUNTS 57 61 0 0 0
M  V30 BEGIN ATOM
M  V30 1 C 6.622524 0.053006 4.167274 0
M  V30 2 O 6.246730 -1.055532 3.393818 0
M  V30 3 C 5.277353 -0.961427 2.416698 0
M  V30 4 C 4.559159 0.152554 2.052041 0
M  V30 5 C 3.604269 0.159842 1.061218 0
M  V30 6 N 2.900461 1.346782 0.726942 0
M  V30 7 C 1.879833 1.266340 -0.257355 0
M  V30 8 N 1.986003 1.356047 -1.602167 0
M  V30 9 C 0.891237 1.260829 -2.396891 0
M  V30 10 C -0.393784 1.066936 -1.874259 0
M  V30 11 C -0.453077 0.980645 -0.475930 0
M  V30 12 N 0.644191 1.077237 0.295589 0
M  V30 13 C -1.702278 0.786506 0.255884 0
M  V30 14 C -1.540362 1.220581 1.550772 0
M  V30 15 C -2.610474 1.133453 2.433916 0
M  V30 16 C -3.827308 0.607754 1.990075 0
M  V30 17 Cl -5.215449 0.471853 3.056690 0
M  V30 18 C -3.968402 0.172804 0.669343 0
M  V30 19 C -2.897253 0.263735 -0.201455 0
M  V30 20 C -3.166493 -0.222237 -1.551024 0
M  V30 21 C -4.281156 -1.185081 -1.597488 0
M  V30 22 C -5.361179 -0.896592 -2.414759 0
M  V30 23 F -5.397844 0.237628 -3.151819 0
M  V30 24 C -6.404498 -1.799558 -2.457469 0
M  V30 25 C -6.359114 -2.960653 -1.697072 0
M  V30 26 C -5.256431 -3.187511 -0.905724 0
M  V30 27 C -4.190855 -2.343145 -0.812621 0
M  V30 28 O -3.053397 -2.510690 -0.037900 0
M  V30 29 C -2.904217 -3.642679 0.764613 0
M  V30 30 N -2.529437 0.119517 -2.621315 0
M  V30 31 C -1.443740 0.991431 -2.916156 0
M  V30 32 C 3.381255 -1.034627 0.418905 0
M  V30 33 C 4.057588 -2.198494 0.722175 0
M  V30 34 C 5.003503 -2.119221 1.733364 0
M  V30 35 C 5.702966 -3.357744 2.033786 0
M  V30 36 O 6.607043 -3.488965 2.926748 0
M  V30 37 O 5.526055 -4.588751 1.425419 0
M  V30 38 H 6.868146 -0.228111 5.216802 0
M  V30 39 H 7.525513 0.525159 3.699280 0
M  V30 40 H 5.851900 0.843759 4.232485 0
M  V30 41 H 4.756488 1.073091 2.571568 0
M  V30 42 H 3.151895 2.231733 1.210470 0
M  V30 43 H 1.038181 1.339588 -3.460537 0
M  V30 44 H -0.572857 1.627203 1.860198 0
M  V30 45 H -2.519977 1.459735 3.442319 0
M  V30 46 H -4.881201 -0.242096 0.263195 0
M  V30 47 H -7.280610 -1.634796 -3.074611 0
M  V30 48 H -7.152634 -3.695619 -1.699328 0
M  V30 49 H -5.224420 -4.082080 -0.320986 0
M  V30 50 H -1.824977 -3.849005 0.964268 0
M  V30 51 H -3.444656 -3.459959 1.715988 0
M  V30 52 H -3.301399 -4.515700 0.188868 0
M  V30 53 H -1.846576 1.979436 -3.192920 0
M  V30 54 H -0.953572 0.581815 -3.847893 0
M  V30 55 H 2.636445 -1.047902 -0.357349 0
M  V30 56 H 3.854935 -3.132488 0.189536 0
M  V30 57 H 5.447967 -5.460089 1.965869 0
M  V30 END ATOM
M  V30 BEGIN BOND
M  V30 1 1 1 2
M  V30 2 1 2 3
M  V30 3 2 3 4
M  V30 4 1 4 5
M  V30 5 1 5 6
M  V30 6 1 6 7
M  V30 7 2 7 8
M  V30 8 1 8 9
M  V30 9 2 9 10
M  V30 10 1 10 11
M  V30 11 2 11 12
M  V30 12 1 11 13
M  V30 13 2 13 14
M  V30 14 1 14 15
M  V30 15 2 15 16
M  V30 16 1 16 17
M  V30 17 1 16 18
M  V30 18 2 18 19
M  V30 19 1 19 20
M  V30 20 1 20 21
M  V30 21 2 21 22
M  V30 22 1 22 23
M  V30 23 1 22 24
M  V30 24 2 24 25
M  V30 25 1 25 26
M  V30 26 2 26 27
M  V30 27 1 27 28
M  V30 28 1 28 29
M  V30 29 2 20 30
M  V30 30 1 30 31
M  V30 31 2 5 32
M  V30 32 1 32 33
M  V30 33 2 33 34
M  V30 34 1 34 35
M  V30 35 2 35 36
M  V30 36 1 35 37
M  V30 37 1 34 3
M  V30 38 1 12 7
M  V30 39 1 19 13
M  V30 40 1 27 21
M  V30 41 1 31 10
M  V30 42 1 1 38
M  V30 43 1 1 39
M  V30 44 1 1 40
M  V30 45 1 4 41
M  V30 46 1 6 42
M  V30 47 1 9 43
M  V30 48 1 14 44
M  V30 49 1 15 45
M  V30 50 1 18 46
M  V30 51 1 24 47
M  V30 52 1 25 48
M  V30 53 1 26 49
M  V30 54 1 29 50
M  V30 55 1 29 51
M  V30 56 1 29 52
M  V30 57 1 31 53
M  V30 58 1 31 54
M  V30 59 1 32 55
M  V30 60 1 33 56
M  V30 61 1 37 57
M  V30 END BOND
M  V30 END CTAB
M  END
>  <Dataset>  (644) 
ChEMBL_Kinases

>  <Ligand_Instance>  (644) 
nan

>  <PDB_ID>  (644) 
nan

>  <Standardized_SMILES>  (644) 
COc1cc(Nc2ncc3c(n2)-c2ccc(Cl)cc2C(c2c(F)cccc2OC)=NC3)ccc1C(=O)O

>  <Name>  (644) 
ALISERTIB

>  <Pocket>  (644) 
nan

>  <ATP_Site>  (644) 
nan

>  <Peripheral>  (644) 
nan

>  <Num_H_Atoms_ProtBoundConf>  (644) 
nan

>  <Num_Resolved_Atoms>  (644) 
nan

>  <Num_Not_Resolved_Atoms>  (644) 
nan

$$$$
CHEMBL26501
     RDKit          3D

  0  0  0  0  0  0  0  0  0  0999 V3000
M  V30 BEGIN CTAB
M  V30 COUNTS 62 67 0 0 0
M  V30 BEGIN ATOM
M  V30 1 C 1.719786 1.444860 3.318564 0
M  V30 2 N 0.333559 1.667993 3.403723 0
M  V30 3 C -0.239522 1.932510 4.669978 0
M  V30 4 C -0.509743 1.193548 2.376134 0
M  V30 5 C -0.625254 -0.308301 2.266984 0 CFG=1
M  V30 6 C -1.141922 -0.961307 3.495399 0
M  V30 7 C -1.305374 -2.440510 3.232910 0
M  V30 8 N -1.139875 -2.805625 1.841905 0
M  V30 9 C -1.281784 -2.024500 0.747492 0
M  V30 10 C -1.065080 -2.748294 -0.415347 0
M  V30 11 C -1.143699 -2.206734 -1.765378 0
M  V30 12 C -0.717306 -1.205697 -2.484805 0
M  V30 13 C 0.144233 -0.130116 -2.017392 0
M  V30 14 C 1.285308 -0.443756 -1.332228 0
M  V30 15 N 1.965302 0.673344 -0.944314 0
M  V30 16 C 3.221721 0.739941 -0.213699 0
M  V30 17 C 1.209590 1.690858 -1.409567 0
M  V30 18 C 1.357980 3.054120 -1.317044 0
M  V30 19 C 0.416215 3.879206 -1.869143 0
M  V30 20 C -0.729487 3.423546 -2.548731 0
M  V30 21 C -0.872465 2.031493 -2.636970 0
M  V30 22 C 0.096194 1.243292 -2.066842 0
M  V30 23 C -1.206877 -1.249978 -3.843749 0
M  V30 24 O -0.963880 -0.418541 -4.778538 0
M  V30 25 N -2.029950 -2.413869 -3.966774 0
M  V30 26 C -1.998624 -3.024230 -2.665867 0
M  V30 27 O -2.703011 -4.094872 -2.617413 0
M  V30 28 C -0.776681 -4.024710 0.024670 0
M  V30 29 C -0.467762 -5.159218 -0.692752 0
M  V30 30 C -0.192206 -6.379306 -0.076504 0
M  V30 31 C -0.244089 -6.396009 1.299817 0
M  V30 32 C -0.549617 -5.275721 2.041163 0
M  V30 33 C -0.823172 -4.059663 1.399816 0
M  V30 34 C -1.614896 -0.651309 1.131888 0
M  V30 35 H 2.170760 2.193050 2.606911 0
M  V30 36 H 2.177225 1.673546 4.324376 0
M  V30 37 H 2.022230 0.421515 3.031633 0
M  V30 38 H -1.353084 2.001768 4.513418 0
M  V30 39 H 0.095475 2.936196 5.009845 0
M  V30 40 H 0.023375 1.197071 5.467346 0
M  V30 41 H -0.025185 1.502663 1.397071 0
M  V30 42 H -1.497602 1.660709 2.401855 0
M  V30 43 H 0.338428 -0.756910 1.978204 0
M  V30 44 H -2.080235 -0.456510 3.807550 0
M  V30 45 H -0.452980 -0.864976 4.362459 0
M  V30 46 H -2.384895 -2.656947 3.509185 0
M  V30 47 H -0.650309 -3.066767 3.877525 0
M  V30 48 H 1.699404 -1.414086 -1.070280 0
M  V30 49 H 3.035944 0.792845 0.861709 0
M  V30 50 H 3.790779 1.643380 -0.528479 0
M  V30 51 H 3.849392 -0.151016 -0.471919 0
M  V30 52 H 2.221444 3.506191 -0.807645 0
M  V30 53 H 0.478271 4.974613 -1.827394 0
M  V30 54 H -1.446777 4.109718 -2.970197 0
M  V30 55 H -1.719274 1.610025 -3.136060 0
M  V30 56 H -2.490031 -2.640037 -4.872574 0
M  V30 57 H -0.407022 -5.184636 -1.767440 0
M  V30 58 H 0.059892 -7.322329 -0.536844 0
M  V30 59 H -0.042227 -7.303748 1.864458 0
M  V30 60 H -0.581076 -5.327011 3.124837 0
M  V30 61 H -1.402676 0.131113 0.387495 0
M  V30 62 H -2.638038 -0.584113 1.559274 0
M  V30 END ATOM
M  V30 BEGIN BOND
M  V30 1 1 1 2
M  V30 2 1 2 3
M  V30 3 1 2 4
M  V30 4 1 4 5
M  V30 5 1 5 6
M  V30 6 1 6 7
M  V30 7 1 7 8
M  V30 8 1 8 9
M  V30 9 2 9 10
M  V30 10 1 10 11
M  V30 11 2 11 12
M  V30 12 1 12 13
M  V30 13 2 13 14
M  V30 14 1 14 15
M  V30 15 1 15 16
M  V30 16 1 15 17
M  V30 17 2 17 18
M  V30 18 1 18 19
M  V30 19 2 19 20
M  V30 20 1 20 21
M  V30 21 2 21 22
M  V30 22 1 12 23
M  V30 23 2 23 24
M  V30 24 1 23 25
M  V30 25 1 25 26
M  V30 26 2 26 27
M  V30 27 1 10 28
M  V30 28 2 28 29
M  V30 29 1 29 30
M  V30 30 2 30 31
M  V30 31 1 31 32
M  V30 32 2 32 33
M  V30 33 1 9 34
M  V30 34 1 34 5
M  V30 35 1 33 8
M  V30 36 1 26 11
M  V30 37 1 33 28
M  V30 38 1 22 13
M  V30 39 1 22 17
M  V30 40 1 1 35
M  V30 41 1 1 36
M  V30 42 1 1 37
M  V30 43 1 3 38
M  V30 44 1 3 39
M  V30 45 1 3 40
M  V30 46 1 4 41
M  V30 47 1 4 42
M  V30 48 1 5 43 CFG=3
M  V30 49 1 6 44
M  V30 50 1 6 45
M  V30 51 1 7 46
M  V30 52 1 7 47
M  V30 53 1 14 48
M  V30 54 1 16 49
M  V30 55 1 16 50
M  V30 56 1 16 51
M  V30 57 1 18 52
M  V30 58 1 19 53
M  V30 59 1 20 54
M  V30 60 1 21 55
M  V30 61 1 25 56
M  V30 62 1 29 57
M  V30 63 1 30 58
M  V30 64 1 31 59
M  V30 65 1 32 60
M  V30 66 1 34 61
M  V30 67 1 34 62
M  V30 END BOND
M  V30 END CTAB
M  END
>  <Dataset>  (645) 
ChEMBL_Kinases

>  <Ligand_Instance>  (645) 
nan

>  <PDB_ID>  (645) 
nan

>  <Standardized_SMILES>  (645) 
CN(C)C[C@H]1CCn2c(c(C3=C(c4cn(C)c5ccccc45)C(=O)NC3=O)c3ccccc32)C1

>  <Name>  (645) 
RO-320432

>  <Pocket>  (645) 
nan

>  <ATP_Site>  (645) 
nan

>  <Peripheral>  (645) 
nan

>  <Num_H_Atoms_ProtBoundConf>  (645) 
nan

>  <Num_Resolved_Atoms>  (645) 
nan

>  <Num_Not_Resolved_Atoms>  (645) 
nan

$$$$
CHEMBL367127
     RDKit          3D

  0  0  0  0  0  0  0  0  0  0999 V3000
M  V30 BEGIN CTAB
M  V30 COUNTS 65 69 0 0 0
M  V30 BEGIN ATOM
M  V30 1 O 3.289635 3.659296 2.004038 0
M  V30 2 C 2.600894 2.651164 2.365377 0
M  V30 3 N 1.334601 2.531171 1.762551 0
M  V30 4 C 0.841508 3.476500 0.802648 0 CFG=2
M  V30 5 C -0.394778 4.165960 1.216332 0
M  V30 6 C -0.938757 4.525332 2.440139 0
M  V30 7 C -2.153810 5.185943 2.530259 0
M  V30 8 C -2.854379 5.502898 1.392786 0
M  V30 9 C -2.307899 5.142263 0.170590 0
M  V30 10 C -1.100846 4.485625 0.074063 0
M  V30 11 C -0.364030 4.023865 -1.118273 0
M  V30 12 C 0.548331 2.928614 -0.550320 0 CFG=2
M  V30 13 O -0.212994 1.754424 -0.565916 0
M  V30 14 C 0.306071 0.687318 -1.284240 0
M  V30 15 O 1.426304 0.842791 -1.874952 0
M  V30 16 C -0.367361 -0.582268 -1.388176 0
M  V30 17 C -1.570710 -0.727733 -0.745234 0
M  V30 18 C -2.254307 -1.937681 -0.817677 0
M  V30 19 O -3.475615 -1.970125 -0.120784 0
M  V30 20 C -1.756272 -3.009373 -1.522687 0
M  V30 21 C -2.532780 -4.203376 -1.621425 0
M  V30 22 O -3.768963 -3.890803 -1.462365 0
M  V30 23 C -2.434689 -5.614855 -1.833259 0
M  V30 24 C -3.521142 -6.270081 -2.363129 0
M  V30 25 O -4.697776 -5.629487 -2.753183 0
M  V30 26 C -3.492107 -7.655174 -2.540155 0
M  V30 27 C -2.396262 -8.390498 -2.195595 0
M  V30 28 C -1.301362 -7.787947 -1.666990 0
M  V30 29 C -1.377195 -6.425167 -1.510445 0
M  V30 30 C -0.210178 -5.914136 -0.836338 0
M  V30 31 O 0.827161 -6.498461 -0.481427 0
M  V30 32 O 0.670577 -5.087995 -0.223108 0
M  V30 33 C -0.548035 -2.802918 -2.148095 0
M  V30 34 O 0.110768 -3.748883 -2.914257 0
M  V30 35 C 0.169199 -1.626695 -2.107140 0
M  V30 36 C 3.114446 1.697467 3.342563 0
M  V30 37 C 2.411206 0.588617 3.769671 0
M  V30 38 C 2.939288 -0.291932 4.701325 0
M  V30 39 C 4.199283 -0.047077 5.209405 0
M  V30 40 O 4.842017 -0.846168 6.144033 0
M  V30 41 C 4.928441 1.055147 4.801274 0
M  V30 42 C 4.371244 1.910137 3.872427 0
M  V30 43 H 0.705202 1.732818 2.002899 0
M  V30 44 H 1.637654 4.260296 0.663934 0
M  V30 45 H -0.419864 4.295461 3.373614 0
M  V30 46 H -2.524791 5.439782 3.527711 0
M  V30 47 H -3.796453 6.017302 1.503722 0
M  V30 48 H -2.929617 5.431561 -0.689695 0
M  V30 49 H -1.044960 3.594943 -1.888541 0
M  V30 50 H 0.230770 4.868889 -1.509185 0
M  V30 51 H 1.482150 2.863773 -1.118617 0
M  V30 52 H -1.979477 0.102085 -0.185387 0
M  V30 53 H -4.123193 -1.175358 -0.175336 0
M  V30 54 H -5.578549 -5.735470 -2.278671 0
M  V30 55 H -4.356420 -8.143613 -2.956941 0
M  V30 56 H -2.459506 -9.453521 -2.368732 0
M  V30 57 H -0.476069 -8.421991 -1.418342 0
M  V30 58 H 0.459321 -4.175593 0.193903 0
M  V30 59 H 1.061620 -4.051933 -2.767963 0
M  V30 60 H 1.114581 -1.425382 -2.578684 0
M  V30 61 H 1.428282 0.401337 3.370592 0
M  V30 62 H 2.408375 -1.163664 5.049071 0
M  V30 63 H 4.686032 -0.776986 7.151667 0
M  V30 64 H 5.932105 1.275197 5.187710 0
M  V30 65 H 4.963017 2.776563 3.561750 0
M  V30 END ATOM
M  V30 BEGIN BOND
M  V30 1 2 1 2
M  V30 2 1 2 3
M  V30 3 1 3 4
M  V30 4 1 4 5
M  V30 5 2 5 6
M  V30 6 1 6 7
M  V30 7 2 7 8
M  V30 8 1 8 9
M  V30 9 2 9 10
M  V30 10 1 10 11
M  V30 11 1 11 12
M  V30 12 1 12 13
M  V30 13 1 13 14
M  V30 14 2 14 15
M  V30 15 1 14 16
M  V30 16 2 16 17
M  V30 17 1 17 18
M  V30 18 1 18 19
M  V30 19 2 18 20
M  V30 20 1 20 21
M  V30 21 2 21 22
M  V30 22 1 21 23
M  V30 23 2 23 24
M  V30 24 1 24 25
M  V30 25 1 24 26
M  V30 26 2 26 27
M  V30 27 1 27 28
M  V30 28 2 28 29
M  V30 29 1 29 30
M  V30 30 2 30 31
M  V30 31 1 30 32
M  V30 32 1 20 33
M  V30 33 1 33 34
M  V30 34 2 33 35
M  V30 35 1 2 36
M  V30 36 2 36 37
M  V30 37 1 37 38
M  V30 38 2 38 39
M  V30 39 1 39 40
M  V30 40 1 39 41
M  V30 41 2 41 42
M  V30 42 1 12 4
M  V30 43 1 35 16
M  V30 44 1 42 36
M  V30 45 1 10 5
M  V30 46 1 29 23
M  V30 47 1 3 43
M  V30 48 1 4 44 CFG=3
M  V30 49 1 6 45
M  V30 50 1 7 46
M  V30 51 1 8 47
M  V30 52 1 9 48
M  V30 53 1 11 49
M  V30 54 1 11 50
M  V30 55 1 12 51 CFG=3
M  V30 56 1 17 52
M  V30 57 1 19 53
M  V30 58 1 25 54
M  V30 59 1 26 55
M  V30 60 1 27 56
M  V30 61 1 28 57
M  V30 62 1 32 58
M  V30 63 1 34 59
M  V30 64 1 35 60
M  V30 65 1 37 61
M  V30 66 1 38 62
M  V30 67 1 40 63
M  V30 68 1 41 64
M  V30 69 1 42 65
M  V30 END BOND
M  V30 END CTAB
M  END
>  <Dataset>  (646) 
ChEMBL_Kinases

>  <Ligand_Instance>  (646) 
nan

>  <PDB_ID>  (646) 
nan

>  <Standardized_SMILES>  (646) 
O=C(N[C@@H]1c2ccccc2C[C@@H]1OC(=O)c1cc(O)c(C(=O)c2c(O)cccc2C(=O)O)c(O)c1)c1ccc(O)cc1

>  <Name>  (646) 
nan

>  <Pocket>  (646) 
nan

>  <ATP_Site>  (646) 
nan

>  <Peripheral>  (646) 
nan

>  <Num_H_Atoms_ProtBoundConf>  (646) 
nan

>  <Num_Resolved_Atoms>  (646) 
nan

>  <Num_Not_Resolved_Atoms>  (646) 
nan

$$$$
CHEMBL315357
     RDKit          3D

  0  0  0  0  0  0  0  0  0  0999 V3000
M  V30 BEGIN CTAB
M  V30 COUNTS 68 74 0 0 0
M  V30 BEGIN ATOM
M  V30 1 O 3.069191 4.544760 -1.399329 0
M  V30 2 C 3.479399 3.427459 -0.997322 0
M  V30 3 N 4.745452 2.746083 -0.839598 0
M  V30 4 C 4.388547 1.451821 -0.301674 0
M  V30 5 O 5.312394 0.605682 -0.047570 0
M  V30 6 C 2.945292 1.358652 -0.141936 0
M  V30 7 C 2.464943 2.503715 -0.547847 0
M  V30 8 C 1.022035 2.470949 -0.362089 0
M  V30 9 C 0.033377 1.665737 -0.865798 0
M  V30 10 N -1.101457 2.086687 -0.291769 0
M  V30 11 C -0.914517 3.111785 0.545056 0
M  V30 12 C -1.768208 3.865673 1.343725 0
M  V30 13 C -1.301897 4.896066 2.129801 0
M  V30 14 C 0.043230 5.193632 2.130303 0
M  V30 15 C 0.867552 4.431254 1.330452 0
M  V30 16 C 0.427711 3.378106 0.520401 0
M  V30 17 C -2.359819 1.423480 -0.560461 0
M  V30 18 C -2.191655 -0.000034 -0.979976 0
M  V30 19 O -1.455702 -0.772498 -0.040530 0
M  V30 20 C -1.502840 -2.052862 -0.529980 0 CFG=2
M  V30 21 C -2.265435 -2.976575 0.434008 0
M  V30 22 N -2.279668 -4.279820 -0.119467 0
M  V30 23 C -3.063365 -4.509117 -1.276628 0
M  V30 24 C -2.497115 -5.748563 -1.982959 0
M  V30 25 O -1.963779 -6.604788 -1.052723 0
M  V30 26 C -2.714792 -6.604177 0.146364 0
M  V30 27 C -2.363390 -5.329412 0.878157 0
M  V30 28 C -0.251322 -2.744181 -0.876746 0
M  V30 29 C 0.753955 -2.988934 0.197585 0
M  V30 30 N 1.373409 -1.807590 0.693711 0
M  V30 31 C 1.750912 -0.910000 -0.222371 0
M  V30 32 C 2.367768 0.158352 0.385870 0
M  V30 33 C 2.335387 -0.158480 1.728457 0
M  V30 34 C 2.805561 0.515127 2.855865 0
M  V30 35 C 2.683104 0.021750 4.159561 0
M  V30 36 C 2.058626 -1.203086 4.323254 0
M  V30 37 C 1.582433 -1.890899 3.206400 0
M  V30 38 C 1.707050 -1.399898 1.929608 0
M  V30 39 H 5.600920 3.245502 -1.109034 0
M  V30 40 H 0.060351 0.861874 -1.577331 0
M  V30 41 H -2.835592 3.656056 1.365286 0
M  V30 42 H -1.982954 5.470081 2.743291 0
M  V30 43 H 0.444506 5.993788 2.732333 0
M  V30 44 H 1.911226 4.693146 1.356681 0
M  V30 45 H -2.886094 1.993035 -1.357337 0
M  V30 46 H -3.056139 1.471522 0.323036 0
M  V30 47 H -1.718399 -0.062569 -1.989125 0
M  V30 48 H -3.178218 -0.503113 -1.053416 0
M  V30 49 H -2.115287 -1.998122 -1.488099 0
M  V30 50 H -1.796581 -2.893394 1.411571 0
M  V30 51 H -3.309341 -2.544206 0.488016 0
M  V30 52 H -4.142694 -4.670021 -1.040961 0
M  V30 53 H -3.024142 -3.663025 -1.963038 0
M  V30 54 H -3.261384 -6.222375 -2.632923 0
M  V30 55 H -1.677489 -5.376386 -2.630638 0
M  V30 56 H -2.403063 -7.507668 0.708386 0
M  V30 57 H -3.807837 -6.649299 -0.110189 0
M  V30 58 H -1.355599 -5.500388 1.337438 0
M  V30 59 H -3.056645 -5.090896 1.702832 0
M  V30 60 H 0.248698 -2.286067 -1.799238 0
M  V30 61 H -0.516372 -3.776447 -1.277942 0
M  V30 62 H 1.558981 -3.663095 -0.233528 0
M  V30 63 H 0.275558 -3.595896 1.011239 0
M  V30 64 H 1.659837 -0.887692 -1.280002 0
M  V30 65 H 3.303554 1.472838 2.830415 0
M  V30 66 H 3.038364 0.529473 5.020540 0
M  V30 67 H 1.903201 -1.690602 5.286172 0
M  V30 68 H 1.079044 -2.862774 3.258526 0
M  V30 END ATOM
M  V30 BEGIN BOND
M  V30 1 2 1 2
M  V30 2 1 2 3
M  V30 3 1 3 4
M  V30 4 2 4 5
M  V30 5 1 4 6
M  V30 6 2 6 7
M  V30 7 1 7 8
M  V30 8 2 8 9
M  V30 9 1 9 10
M  V30 10 1 10 11
M  V30 11 2 11 12
M  V30 12 1 12 13
M  V30 13 2 13 14
M  V30 14 1 14 15
M  V30 15 2 15 16
M  V30 16 1 10 17
M  V30 17 1 17 18
M  V30 18 1 18 19
M  V30 19 1 19 20
M  V30 20 1 20 21
M  V30 21 1 21 22
M  V30 22 1 22 23
M  V30 23 1 23 24
M  V30 24 1 24 25
M  V30 25 1 25 26
M  V30 26 1 26 27
M  V30 27 1 20 28
M  V30 28 1 28 29
M  V30 29 1 29 30
M  V30 30 1 30 31
M  V30 31 2 31 32
M  V30 32 1 32 33
M  V30 33 2 33 34
M  V30 34 1 34 35
M  V30 35 2 35 36
M  V30 36 1 36 37
M  V30 37 2 37 38
M  V30 38 1 7 2
M  V30 39 1 16 8
M  V30 40 1 27 22
M  V30 41 1 38 30
M  V30 42 1 32 6
M  V30 43 1 38 33
M  V30 44 1 16 11
M  V30 45 1 3 39
M  V30 46 1 9 40
M  V30 47 1 12 41
M  V30 48 1 13 42
M  V30 49 1 14 43
M  V30 50 1 15 44
M  V30 51 1 17 45
M  V30 52 1 17 46
M  V30 53 1 18 47
M  V30 54 1 18 48
M  V30 55 1 20 49 CFG=3
M  V30 56 1 21 50
M  V30 57 1 21 51
M  V30 58 1 23 52
M  V30 59 1 23 53
M  V30 60 1 24 54
M  V30 61 1 24 55
M  V30 62 1 26 56
M  V30 63 1 26 57
M  V30 64 1 27 58
M  V30 65 1 27 59
M  V30 66 1 28 60
M  V30 67 1 28 61
M  V30 68 1 29 62
M  V30 69 1 29 63
M  V30 70 1 31 64
M  V30 71 1 34 65
M  V30 72 1 35 66
M  V30 73 1 36 67
M  V30 74 1 37 68
M  V30 END BOND
M  V30 END CTAB
M  END
>  <Dataset>  (647) 
ChEMBL_Kinases

>  <Ligand_Instance>  (647) 
nan

>  <PDB_ID>  (647) 
nan

>  <Standardized_SMILES>  (647) 
O=C1NC(=O)C2=C1c1cn(c3ccccc13)CCO[C@H](CN1CCOCC1)CCn1cc2c2ccccc21

>  <Name>  (647) 
nan

>  <Pocket>  (647) 
nan

>  <ATP_Site>  (647) 
nan

>  <Peripheral>  (647) 
nan

>  <Num_H_Atoms_ProtBoundConf>  (647) 
nan

>  <Num_Resolved_Atoms>  (647) 
nan

>  <Num_Not_Resolved_Atoms>  (647) 
nan

$$$$
CHEMBL4092047
     RDKit          3D

  0  0  0  0  0  0  0  0  0  0999 V3000
M  V30 BEGIN CTAB
M  V30 COUNTS 41 43 0 0 0
M  V30 BEGIN ATOM
M  V30 1 C -0.764573 -3.614188 1.492483 0
M  V30 2 C 0.409705 -2.984216 0.763765 0
M  V30 3 C 0.028987 -2.897109 -0.718517 0 CFG=1
M  V30 4 C -1.214958 -2.031488 -0.785022 0
M  V30 5 O -1.738555 -1.955592 -2.064067 0
M  V30 6 N 1.100378 -2.437205 -1.542588 0
M  V30 7 C 1.709024 -1.153988 -1.355054 0
M  V30 8 C 2.760043 -0.715425 -2.168760 0
M  V30 9 C 3.350192 0.519351 -1.993552 0
M  V30 10 C 2.828657 1.278347 -0.965280 0
M  V30 11 N 3.258681 2.526305 -0.615105 0
M  V30 12 C 2.504531 2.924819 0.424678 0
M  V30 13 C 1.614714 1.885503 0.686507 0
M  V30 14 C 0.607805 1.891614 1.738088 0
M  V30 15 C 0.479611 2.991027 2.573365 0
M  V30 16 C -0.424845 3.144492 3.612001 0
M  V30 17 N -1.235921 2.086391 3.779951 0
M  V30 18 C -1.147837 0.985299 2.985316 0
M  V30 19 S -2.285826 -0.364369 3.306792 0
M  V30 20 C -1.591606 -1.531967 4.501474 0
M  V30 21 N -0.247992 0.892567 1.990263 0
M  V30 22 N 1.803799 0.849100 -0.172855 0
M  V30 23 N 1.280199 -0.331146 -0.382468 0
M  V30 24 H -0.322438 -4.167978 2.352541 0
M  V30 25 H -1.466292 -2.839933 1.825856 0
M  V30 26 H -1.250533 -4.315386 0.766974 0
M  V30 27 H 1.331491 -3.567940 0.896070 0
M  V30 28 H 0.526366 -1.971570 1.168114 0
M  V30 29 H -0.285151 -3.903146 -1.077908 0
M  V30 30 H -1.968503 -2.547780 -0.128776 0
M  V30 31 H -0.985882 -1.075988 -0.312320 0
M  V30 32 H -2.661967 -1.605904 -1.998321 0
M  V30 33 H 1.491818 -3.031559 -2.332823 0
M  V30 34 H 3.105057 -1.386883 -2.957282 0
M  V30 35 H 4.161662 0.859302 -2.620909 0
M  V30 36 H 2.601288 3.865514 0.925330 0
M  V30 37 H 1.168223 3.827799 2.391462 0
M  V30 38 H -0.418518 4.050174 4.183686 0
M  V30 39 H -2.175067 -1.368301 5.454685 0
M  V30 40 H -0.548659 -1.327207 4.748200 0
M  V30 41 H -1.834272 -2.547387 4.179090 0
M  V30 END ATOM
M  V30 BEGIN BOND
M  V30 1 1 1 2
M  V30 2 1 2 3
M  V30 3 1 3 4
M  V30 4 1 4 5
M  V30 5 1 3 6
M  V30 6 1 6 7
M  V30 7 1 7 8
M  V30 8 2 8 9
M  V30 9 1 9 10
M  V30 10 2 10 11
M  V30 11 1 11 12
M  V30 12 2 12 13
M  V30 13 1 13 14
M  V30 14 2 14 15
M  V30 15 1 15 16
M  V30 16 2 16 17
M  V30 17 1 17 18
M  V30 18 1 18 19
M  V30 19 1 19 20
M  V30 20 2 18 21
M  V30 21 1 13 22
M  V30 22 1 22 23
M  V30 23 2 23 7
M  V30 24 1 22 10
M  V30 25 1 21 14
M  V30 26 1 1 24
M  V30 27 1 1 25
M  V30 28 1 1 26
M  V30 29 1 2 27
M  V30 30 1 2 28
M  V30 31 1 3 29 CFG=3
M  V30 32 1 4 30
M  V30 33 1 4 31
M  V30 34 1 5 32
M  V30 35 1 6 33
M  V30 36 1 8 34
M  V30 37 1 9 35
M  V30 38 1 12 36
M  V30 39 1 15 37
M  V30 40 1 16 38
M  V30 41 1 20 39
M  V30 42 1 20 40
M  V30 43 1 20 41
M  V30 END BOND
M  V30 END CTAB
M  END
>  <Dataset>  (648) 
ChEMBL_Kinases

>  <Ligand_Instance>  (648) 
nan

>  <PDB_ID>  (648) 
nan

>  <Standardized_SMILES>  (648) 
CC[C@@H](CO)Nc1ccc2ncc(-c3ccnc(SC)n3)n2n1

>  <Name>  (648) 
nan

>  <Pocket>  (648) 
nan

>  <ATP_Site>  (648) 
nan

>  <Peripheral>  (648) 
nan

>  <Num_H_Atoms_ProtBoundConf>  (648) 
nan

>  <Num_Resolved_Atoms>  (648) 
nan

>  <Num_Not_Resolved_Atoms>  (648) 
nan

$$$$
CHEMBL3800585
     RDKit          3D

  0  0  0  0  0  0  0  0  0  0999 V3000
M  V30 BEGIN CTAB
M  V30 COUNTS 64 68 0 0 0
M  V30 BEGIN ATOM
M  V30 1 C 1.275792 2.349669 5.663104 0
M  V30 2 C 1.260742 2.856625 4.254462 0 CFG=1
M  V30 3 C 1.108891 1.718460 3.233610 0
M  V30 4 N 0.865894 2.365512 1.928113 0
M  V30 5 C 1.538950 2.511132 0.694095 0
M  V30 6 C 2.227882 3.727126 0.662706 0
M  V30 7 C 3.003675 4.123344 -0.428580 0
M  V30 8 C 3.073949 3.259961 -1.505408 0
M  V30 9 C 2.372216 2.083571 -1.408589 0
M  V30 10 N 2.263829 1.104594 -2.345076 0
M  V30 11 C 1.468623 0.167908 -1.849863 0
M  V30 12 C 1.056068 -1.008460 -2.551023 0
M  V30 13 N 0.268379 -2.035094 -2.211288 0
M  V30 14 C -0.027646 -3.080509 -2.982957 0
M  V30 15 C -0.911703 -4.152576 -2.543971 0
M  V30 16 C -1.411433 -3.986525 -1.272933 0
M  V30 17 C -2.239705 -5.078684 -0.922021 0
M  V30 18 C -2.841923 -5.091905 0.390116 0
M  V30 19 O -4.091517 -4.903025 0.118714 0
M  V30 20 N -3.378630 -5.112305 1.678220 0
M  V30 21 C -4.780082 -4.945915 1.991029 0
M  V30 22 C -2.242974 -5.325368 2.558564 0
M  V30 23 C -2.538883 -6.199314 -1.727793 0
M  V30 24 C -1.955881 -6.209123 -2.970986 0
M  V30 25 N -1.176768 -5.204890 -3.332117 0
M  V30 26 C 0.487020 -3.194948 -4.270401 0
M  V30 27 N 1.295634 -2.181489 -4.669286 0
M  V30 28 C 1.542582 -1.175600 -3.845348 0
M  V30 29 N 2.416383 -0.211045 -4.466006 0
M  V30 30 N 1.033274 0.465014 -0.612413 0
M  V30 31 C 0.188576 -0.189396 0.340875 0
M  V30 32 C 1.604361 1.651818 -0.368453 0
M  V30 33 C -0.439879 3.021626 1.953925 0
M  V30 34 C -0.840126 3.544609 3.293402 0
M  V30 35 N 0.269958 3.842596 4.084933 0
M  V30 36 H 2.336234 2.304772 6.029028 0
M  V30 37 H 0.817308 1.343007 5.714043 0
M  V30 38 H 0.677304 3.016800 6.327110 0
M  V30 39 H 2.245050 3.328529 3.996505 0
M  V30 40 H 0.239951 1.074010 3.438118 0
M  V30 41 H 2.029286 1.096404 3.186162 0
M  V30 42 H 2.238211 4.494932 1.456707 0
M  V30 43 H 3.549228 5.041557 -0.491595 0
M  V30 44 H 3.656964 3.534478 -2.359855 0
M  V30 45 H -1.260230 -3.195670 -0.577877 0
M  V30 46 H -4.783167 -4.709044 3.099026 0
M  V30 47 H -5.284852 -5.927087 1.839815 0
M  V30 48 H -5.266559 -4.151037 1.430940 0
M  V30 49 H -1.648781 -6.215755 2.262981 0
M  V30 50 H -1.570198 -4.431942 2.465693 0
M  V30 51 H -2.577108 -5.399157 3.608102 0
M  V30 52 H -3.179630 -6.975239 -1.371848 0
M  V30 53 H -2.147589 -7.039528 -3.624856 0
M  V30 54 H 0.242458 -4.043335 -4.880648 0
M  V30 55 H 1.763648 0.466461 -4.967394 0
M  V30 56 H 1.701431 0.418444 -4.938282 0
M  V30 57 H -0.003075 -1.244500 -0.013626 0
M  V30 58 H 0.647327 -0.333471 1.337801 0
M  V30 59 H -0.804615 0.253050 0.442511 0
M  V30 60 H -0.516516 3.841901 1.194245 0
M  V30 61 H -1.184663 2.240663 1.680592 0
M  V30 62 H -1.512921 2.828790 3.852913 0
M  V30 63 H -1.465141 4.465462 3.162367 0
M  V30 64 H 0.525583 4.823730 4.273679 0
M  V30 END ATOM
M  V30 BEGIN BOND
M  V30 1 1 1 2
M  V30 2 1 2 3
M  V30 3 1 3 4
M  V30 4 1 4 5
M  V30 5 2 5 6
M  V30 6 1 6 7
M  V30 7 2 7 8
M  V30 8 1 8 9
M  V30 9 1 9 10
M  V30 10 2 10 11
M  V30 11 1 11 12
M  V30 12 2 12 13
M  V30 13 1 13 14
M  V30 14 1 14 15
M  V30 15 2 15 16
M  V30 16 1 16 17
M  V30 17 1 17 18
M  V30 18 2 18 19
M  V30 19 1 18 20
M  V30 20 1 20 21
M  V30 21 1 20 22
M  V30 22 2 17 23
M  V30 23 1 23 24
M  V30 24 2 24 25
M  V30 25 2 14 26
M  V30 26 1 26 27
M  V30 27 2 27 28
M  V30 28 1 28 29
M  V30 29 1 11 30
M  V30 30 1 30 31
M  V30 31 1 30 32
M  V30 32 1 4 33
M  V30 33 1 33 34
M  V30 34 1 34 35
M  V30 35 1 35 2
M  V30 36 1 32 5
M  V30 37 2 32 9
M  V30 38 1 28 12
M  V30 39 1 25 15
M  V30 40 1 1 36
M  V30 41 1 1 37
M  V30 42 1 1 38
M  V30 43 1 2 39 CFG=3
M  V30 44 1 3 40
M  V30 45 1 3 41
M  V30 46 1 6 42
M  V30 47 1 7 43
M  V30 48 1 8 44
M  V30 49 1 16 45
M  V30 50 1 21 46
M  V30 51 1 21 47
M  V30 52 1 21 48
M  V30 53 1 22 49
M  V30 54 1 22 50
M  V30 55 1 22 51
M  V30 56 1 23 52
M  V30 57 1 24 53
M  V30 58 1 26 54
M  V30 59 1 29 55
M  V30 60 1 29 56
M  V30 61 1 31 57
M  V30 62 1 31 58
M  V30 63 1 31 59
M  V30 64 1 33 60
M  V30 65 1 33 61
M  V30 66 1 34 62
M  V30 67 1 34 63
M  V30 68 1 35 64
M  V30 END BOND
M  V30 END CTAB
M  END
>  <Dataset>  (649) 
ChEMBL_Kinases

>  <Ligand_Instance>  (649) 
nan

>  <PDB_ID>  (649) 
nan

>  <Standardized_SMILES>  (649) 
C[C@H]1CN(c2cccc3nc(-c4nc(-c5cc(C(=O)N(C)C)ccn5)cnc4N)n(C)c23)CCN1

>  <Name>  (649) 
nan

>  <Pocket>  (649) 
nan

>  <ATP_Site>  (649) 
nan

>  <Peripheral>  (649) 
nan

>  <Num_H_Atoms_ProtBoundConf>  (649) 
nan

>  <Num_Resolved_Atoms>  (649) 
nan

>  <Num_Not_Resolved_Atoms>  (649) 
nan

$$$$
CHEMBL4754493
     RDKit          3D

  0  0  0  0  0  0  0  0  0  0999 V3000
M  V30 BEGIN CTAB
M  V30 COUNTS 50 53 0 0 0
M  V30 BEGIN ATOM
M  V30 1 C -1.672039 -5.673647 2.420476 0
M  V30 2 N -1.231025 -4.333168 2.696639 0
M  V30 3 N -0.408204 -4.033558 3.696709 0
M  V30 4 C -0.198083 -2.686837 3.693508 0
M  V30 5 C -0.930733 -2.161496 2.643444 0
M  V30 6 C -0.878180 -0.729213 2.392749 0
M  V30 7 N -0.485575 0.044823 1.375249 0
M  V30 8 C -0.553594 1.357987 1.339989 0
M  V30 9 N -0.075350 2.013897 0.182561 0
M  V30 10 C 0.489900 1.280447 -0.929968 0 CFG=1
M  V30 11 C 0.884397 2.241703 -2.024800 0
M  V30 12 C 2.336045 2.587668 -2.064679 0
M  V30 13 C 2.868433 2.708445 -0.671997 0 CFG=2
M  V30 14 N 4.264247 3.120973 -0.663851 0
M  V30 15 C 2.726315 1.410580 0.080953 0
M  V30 16 C 1.713858 0.501884 -0.552423 0
M  V30 17 N -1.049968 2.102654 2.374020 0
M  V30 18 C -1.474530 1.393978 3.454875 0
M  V30 19 C -1.393398 0.006752 3.470513 0
M  V30 20 Cl -1.989143 -0.719401 4.945577 0
M  V30 21 C -1.582244 -3.210478 2.016740 0
M  V30 22 C -2.480451 -3.047217 0.877073 0
M  V30 23 C -1.888252 -2.818189 -0.454345 0
M  V30 24 C -0.972085 -3.933279 -0.951366 0
M  V30 25 C -0.473758 -2.559981 -0.760144 0
M  V30 26 H -2.758898 -5.720317 2.189718 0
M  V30 27 H -1.143867 -6.104516 1.569263 0
M  V30 28 H -1.516299 -6.341451 3.301850 0
M  V30 29 H 0.448477 -2.242092 4.440738 0
M  V30 30 H -0.136683 3.045699 0.129453 0
M  V30 31 H -0.290559 0.598306 -1.311335 0
M  V30 32 H 0.310246 3.206163 -1.886204 0
M  V30 33 H 0.571754 1.879180 -3.024794 0
M  V30 34 H 2.428639 3.605549 -2.527682 0
M  V30 35 H 2.941859 1.930014 -2.711473 0
M  V30 36 H 2.290922 3.525379 -0.157829 0
M  V30 37 H 4.780678 2.514272 -0.020791 0
M  V30 38 H 4.337545 4.128061 -0.453863 0
M  V30 39 H 3.710644 0.895544 0.171387 0
M  V30 40 H 2.391304 1.650069 1.111008 0
M  V30 41 H 1.545156 -0.337708 0.122383 0
M  V30 42 H 2.120974 0.062773 -1.506505 0
M  V30 43 H -1.864721 1.987232 4.267150 0
M  V30 44 H -3.231047 -2.234974 1.149983 0
M  V30 45 H -3.154222 -3.956158 0.781384 0
M  V30 46 H -2.664882 -2.484524 -1.219456 0
M  V30 47 H -1.110841 -4.259976 -2.015079 0
M  V30 48 H -0.574858 -4.667579 -0.225326 0
M  V30 49 H 0.214450 -2.297018 0.059767 0
M  V30 50 H -0.290832 -1.888695 -1.651984 0
M  V30 END ATOM
M  V30 BEGIN BOND
M  V30 1 1 1 2
M  V30 2 1 2 3
M  V30 3 2 3 4
M  V30 4 1 4 5
M  V30 5 1 5 6
M  V30 6 2 6 7
M  V30 7 1 7 8
M  V30 8 1 8 9
M  V30 9 1 9 10
M  V30 10 1 10 11
M  V30 11 1 11 12
M  V30 12 1 12 13
M  V30 13 1 13 14
M  V30 14 1 13 15
M  V30 15 1 15 16
M  V30 16 2 8 17
M  V30 17 1 17 18
M  V30 18 2 18 19
M  V30 19 1 19 20
M  V30 20 2 5 21
M  V30 21 1 21 22
M  V30 22 1 22 23
M  V30 23 1 23 24
M  V30 24 1 24 25
M  V30 25 1 21 2
M  V30 26 1 25 23
M  V30 27 1 19 6
M  V30 28 1 16 10
M  V30 29 1 1 26
M  V30 30 1 1 27
M  V30 31 1 1 28
M  V30 32 1 4 29
M  V30 33 1 9 30
M  V30 34 1 10 31 CFG=3
M  V30 35 1 11 32
M  V30 36 1 11 33
M  V30 37 1 12 34
M  V30 38 1 12 35
M  V30 39 1 13 36 CFG=1
M  V30 40 1 14 37
M  V30 41 1 14 38
M  V30 42 1 15 39
M  V30 43 1 15 40
M  V30 44 1 16 41
M  V30 45 1 16 42
M  V30 46 1 18 43
M  V30 47 1 22 44
M  V30 48 1 22 45
M  V30 49 1 23 46
M  V30 50 1 24 47
M  V30 51 1 24 48
M  V30 52 1 25 49
M  V30 53 1 25 50
M  V30 END BOND
M  V30 END CTAB
M  END
>  <Dataset>  (650) 
ChEMBL_Kinases

>  <Ligand_Instance>  (650) 
nan

>  <PDB_ID>  (650) 
nan

>  <Standardized_SMILES>  (650) 
Cn1ncc(-c2nc(N[C@H]3CC[C@H](N)CC3)ncc2Cl)c1CC1CC1

>  <Name>  (650) 
BTX-A51

>  <Pocket>  (650) 
nan

>  <ATP_Site>  (650) 
nan

>  <Peripheral>  (650) 
nan

>  <Num_H_Atoms_ProtBoundConf>  (650) 
nan

>  <Num_Resolved_Atoms>  (650) 
nan

>  <Num_Not_Resolved_Atoms>  (650) 
nan

$$$$
CHEMBL1822792
     RDKit          3D

  0  0  0  0  0  0  0  0  0  0999 V3000
M  V30 BEGIN CTAB
M  V30 COUNTS 60 64 0 0 0
M  V30 BEGIN ATOM
M  V30 1 C 4.909087 1.059440 1.169298 0
M  V30 2 N 3.721512 1.691344 1.729926 0
M  V30 3 C 4.011013 2.355600 2.950376 0
M  V30 4 C 3.077033 2.182121 4.077639 0 CFG=2
M  V30 5 C 1.657667 2.511267 3.766930 0
M  V30 6 O 0.784686 2.075834 4.768702 0
M  V30 7 C 1.422776 2.078688 5.983867 0
M  V30 8 C 2.432439 3.181825 6.035497 0
M  V30 9 O 3.528474 2.896727 5.201401 0
M  V30 10 S 3.074864 2.779951 0.575054 0
M  V30 11 O 4.197333 3.307154 -0.294749 0
M  V30 12 O 2.430441 3.994538 1.166694 0
M  V30 13 N 1.921983 2.048928 -0.480820 0
M  V30 14 C 0.664877 1.420096 -0.308362 0
M  V30 15 C -0.309326 2.015411 0.495132 0
M  V30 16 C -1.579772 1.554355 0.771922 0
M  V30 17 C -1.888879 0.359212 0.164485 0
M  V30 18 C -3.176470 -0.012985 0.504235 0
M  V30 19 C -3.855667 -1.148567 0.084880 0
M  V30 20 C -3.450454 -2.189182 -0.758580 0
M  V30 21 N -4.457253 -3.092350 -0.896995 0
M  V30 22 C -4.277566 -4.192362 -1.680014 0
M  V30 23 C -3.060451 -4.374935 -2.328861 0
M  V30 24 C -2.913095 -5.569990 -3.157972 0
M  V30 25 C -2.141357 -5.723186 -4.315768 0
M  V30 26 N -2.288462 -7.000614 -4.775589 0
M  V30 27 N -3.108731 -7.659618 -3.973039 0
M  V30 28 C -3.509233 -9.044294 -4.134880 0
M  V30 29 C -3.491881 -6.813759 -2.997306 0
M  V30 30 C -2.039602 -3.455783 -2.186396 0
M  V30 31 C -2.230175 -2.352603 -1.396575 0
M  V30 32 C -1.147128 -1.500031 -1.323557 0
M  V30 33 O -0.172547 -1.931219 -2.000813 0
M  V30 34 C -0.977252 -0.287790 -0.643452 0
M  V30 35 C 0.264284 0.208182 -0.885726 0
M  V30 36 H 4.712893 0.050262 0.767945 0
M  V30 37 H 5.254726 1.653368 0.272665 0
M  V30 38 H 5.764995 1.069164 1.873957 0
M  V30 39 H 5.062807 2.060287 3.241929 0
M  V30 40 H 4.132573 3.455734 2.700227 0
M  V30 41 H 3.088191 1.103280 4.389505 0
M  V30 42 H 1.365736 2.013809 2.830523 0
M  V30 43 H 1.612955 3.637271 3.686951 0
M  V30 44 H 0.662610 2.195223 6.783682 0
M  V30 45 H 1.980994 1.110927 6.095453 0
M  V30 46 H 2.757326 3.376563 7.070825 0
M  V30 47 H 1.967768 4.105856 5.637114 0
M  V30 48 H 2.087799 2.002674 -1.532231 0
M  V30 49 H -0.019480 2.967203 0.959529 0
M  V30 50 H -2.220865 2.122758 1.410871 0
M  V30 51 H -3.719212 0.658944 1.175589 0
M  V30 52 H -4.872890 -1.267610 0.463767 0
M  V30 53 H -5.059372 -4.935439 -1.814255 0
M  V30 54 H -1.547258 -4.908913 -4.721642 0
M  V30 55 H -2.656095 -9.716489 -4.363857 0
M  V30 56 H -4.191568 -9.140021 -5.011359 0
M  V30 57 H -3.960006 -9.441880 -3.200520 0
M  V30 58 H -4.166005 -7.034633 -2.170530 0
M  V30 59 H -1.105408 -3.586342 -2.678322 0
M  V30 60 H 1.000289 -0.268365 -1.509532 0
M  V30 END ATOM
M  V30 BEGIN BOND
M  V30 1 1 1 2
M  V30 2 1 2 3
M  V30 3 1 3 4
M  V30 4 1 4 5
M  V30 5 1 5 6
M  V30 6 1 6 7
M  V30 7 1 7 8
M  V30 8 1 8 9
M  V30 9 1 2 10
M  V30 10 2 10 11
M  V30 11 2 10 12
M  V30 12 1 10 13
M  V30 13 1 13 14
M  V30 14 2 14 15
M  V30 15 1 15 16
M  V30 16 2 16 17
M  V30 17 1 17 18
M  V30 18 2 18 19
M  V30 19 1 19 20
M  V30 20 2 20 21
M  V30 21 1 21 22
M  V30 22 2 22 23
M  V30 23 1 23 24
M  V30 24 1 24 25
M  V30 25 2 25 26
M  V30 26 1 26 27
M  V30 27 1 27 28
M  V30 28 1 27 29
M  V30 29 1 23 30
M  V30 30 2 30 31
M  V30 31 1 31 32
M  V30 32 2 32 33
M  V30 33 1 32 34
M  V30 34 2 34 35
M  V30 35 1 9 4
M  V30 36 1 35 14
M  V30 37 1 34 17
M  V30 38 1 31 20
M  V30 39 2 29 24
M  V30 40 1 1 36
M  V30 41 1 1 37
M  V30 42 1 1 38
M  V30 43 1 3 39
M  V30 44 1 3 40
M  V30 45 1 4 41 CFG=1
M  V30 46 1 5 42
M  V30 47 1 5 43
M  V30 48 1 7 44
M  V30 49 1 7 45
M  V30 50 1 8 46
M  V30 51 1 8 47
M  V30 52 1 13 48
M  V30 53 1 15 49
M  V30 54 1 16 50
M  V30 55 1 18 51
M  V30 56 1 19 52
M  V30 57 1 22 53
M  V30 58 1 25 54
M  V30 59 1 28 55
M  V30 60 1 28 56
M  V30 61 1 28 57
M  V30 62 1 29 58
M  V30 63 1 30 59
M  V30 64 1 35 60
M  V30 END BOND
M  V30 END CTAB
M  END
>  <Dataset>  (651) 
ChEMBL_Kinases

>  <Ligand_Instance>  (651) 
nan

>  <PDB_ID>  (651) 
nan

>  <Standardized_SMILES>  (651) 
CN(C[C@@H]1COCCO1)S(=O)(=O)Nc1ccc2ccc3ncc(-c4cnn(C)c4)cc3c(=O)c2c1

>  <Name>  (651) 
MK-2461

>  <Pocket>  (651) 
nan

>  <ATP_Site>  (651) 
nan

>  <Peripheral>  (651) 
nan

>  <Num_H_Atoms_ProtBoundConf>  (651) 
nan

>  <Num_Resolved_Atoms>  (651) 
nan

>  <Num_Not_Resolved_Atoms>  (651) 
nan

$$$$
CHEMBL4790791
     RDKit          3D

  0  0  0  0  0  0  0  0  0  0999 V3000
M  V30 BEGIN CTAB
M  V30 COUNTS 31 34 0 0 0
M  V30 BEGIN ATOM
M  V30 1 C -2.287690 -2.510063 4.283496 0
M  V30 2 N -1.964861 -2.722474 2.865748 0
M  V30 3 C -0.841197 -2.343367 2.202343 0
M  V30 4 C -0.955963 -2.744173 0.887298 0
M  V30 5 C -0.016632 -2.571114 -0.216670 0
M  V30 6 C 0.380550 -3.505010 -1.163640 0
M  V30 7 O 1.239269 -2.946558 -1.982037 0
M  V30 8 C 1.469431 -1.700691 -1.678730 0
M  V30 9 C 2.234668 -0.651786 -2.145205 0
M  V30 10 C 2.245248 0.608739 -1.557552 0
M  V30 11 C 1.432002 0.782922 -0.447271 0
M  V30 12 C 1.414186 2.087677 0.197347 0
M  V30 13 C 2.079212 3.274014 -0.077018 0
M  V30 14 N 1.720610 4.208452 0.821485 0
M  V30 15 N 0.853985 3.700807 1.674099 0
M  V30 16 C 0.650089 2.416587 1.319327 0
M  V30 17 N 0.662759 -0.232448 0.040250 0
M  V30 18 C 0.686734 -1.435672 -0.563728 0
M  V30 19 C -2.192720 -3.382808 0.772053 0
M  V30 20 N -2.728959 -3.325495 1.998449 0
M  V30 21 H -1.396124 -2.109259 4.814436 0
M  V30 22 H -2.677423 -3.441338 4.723068 0
M  V30 23 H -3.067409 -1.698950 4.339198 0
M  V30 24 H 0.003744 -1.815029 2.632537 0
M  V30 25 H 0.004555 -4.534596 -1.179617 0
M  V30 26 H 2.852931 -0.823883 -3.008201 0
M  V30 27 H 2.861584 1.383393 -1.966711 0
M  V30 28 H 2.770675 3.369218 -0.905030 0
M  V30 29 H 0.419655 4.219112 2.469841 0
M  V30 30 H -0.033325 1.764465 1.871640 0
M  V30 31 H -2.664946 -3.844983 -0.105742 0
M  V30 END ATOM
M  V30 BEGIN BOND
M  V30 1 1 1 2
M  V30 2 1 2 3
M  V30 3 2 3 4
M  V30 4 1 4 5
M  V30 5 2 5 6
M  V30 6 1 6 7
M  V30 7 1 7 8
M  V30 8 2 8 9
M  V30 9 1 9 10
M  V30 10 2 10 11
M  V30 11 1 11 12
M  V30 12 1 12 13
M  V30 13 2 13 14
M  V30 14 1 14 15
M  V30 15 1 15 16
M  V30 16 1 11 17
M  V30 17 2 17 18
M  V30 18 1 4 19
M  V30 19 2 19 20
M  V30 20 1 20 2
M  V30 21 1 18 5
M  V30 22 1 18 8
M  V30 23 2 16 12
M  V30 24 1 1 21
M  V30 25 1 1 22
M  V30 26 1 1 23
M  V30 27 1 3 24
M  V30 28 1 6 25
M  V30 29 1 9 26
M  V30 30 1 10 27
M  V30 31 1 13 28
M  V30 32 1 15 29
M  V30 33 1 16 30
M  V30 34 1 19 31
M  V30 END BOND
M  V30 END CTAB
M  END
>  <Dataset>  (652) 
ChEMBL_Kinases

>  <Ligand_Instance>  (652) 
nan

>  <PDB_ID>  (652) 
nan

>  <Standardized_SMILES>  (652) 
Cn1cc(-c2coc3ccc(-c4cn[nH]c4)nc23)cn1

>  <Name>  (652) 
nan

>  <Pocket>  (652) 
nan

>  <ATP_Site>  (652) 
nan

>  <Peripheral>  (652) 
nan

>  <Num_H_Atoms_ProtBoundConf>  (652) 
nan

>  <Num_Resolved_Atoms>  (652) 
nan

>  <Num_Not_Resolved_Atoms>  (652) 
nan

$$$$
CHEMBL4754399
     RDKit          3D

  0  0  0  0  0  0  0  0  0  0999 V3000
M  V30 BEGIN CTAB
M  V30 COUNTS 55 58 0 0 0
M  V30 BEGIN ATOM
M  V30 1 C 4.349161 -4.603863 2.564786 0
M  V30 2 C 4.949116 -3.385571 1.917097 0
M  V30 3 O 6.021319 -3.662625 1.281000 0
M  V30 4 N 4.414419 -2.060513 1.982156 0
M  V30 5 C 5.115940 -0.977191 1.297311 0 CFG=2
M  V30 6 C 5.490079 0.108278 2.249619 0
M  V30 7 C 4.201189 0.758180 2.708813 0
M  V30 8 C 3.436853 1.372464 1.595601 0
M  V30 9 C 3.171397 0.430848 0.473324 0 CFG=2
M  V30 10 C 1.967008 -0.445589 0.720631 0
M  V30 11 O 1.473469 -1.615590 0.843094 0
M  V30 12 N 0.830415 0.398663 0.910792 0
M  V30 13 C -0.478402 -0.154705 1.169108 0
M  V30 14 C -1.254675 -0.415185 0.056132 0
M  V30 15 C -2.521051 -0.952179 0.315710 0
M  V30 16 C -3.438138 -1.270512 -0.801174 0
M  V30 17 C -3.507491 -2.484673 -1.467471 0
M  V30 18 N -4.460814 -2.340543 -2.396323 0
M  V30 19 N -4.975426 -1.110722 -2.334539 0
M  V30 20 C -4.378163 -0.399307 -1.360661 0
M  V30 21 C -4.742057 1.013929 -1.051069 0
M  V30 22 C -6.236944 1.246690 -1.094476 0
M  V30 23 C -6.958071 0.291451 -1.992290 0
M  V30 24 C -6.000501 -0.317703 -3.021314 0
M  V30 25 C -2.947446 -1.197975 1.606030 0
M  V30 26 Cl -4.563354 -1.879240 1.859922 0
M  V30 27 C -2.113514 -0.912266 2.692906 0
M  V30 28 N -0.879754 -0.388801 2.434763 0
M  V30 29 C 4.303258 -0.508109 0.148635 0
M  V30 30 H 3.719805 -4.290776 3.447124 0
M  V30 31 H 3.649417 -5.113547 1.873491 0
M  V30 32 H 5.140033 -5.266543 2.958627 0
M  V30 33 H 3.558716 -2.075424 2.543512 0
M  V30 34 H 6.026116 -1.483689 0.854483 0
M  V30 35 H 6.148503 0.820601 1.740691 0
M  V30 36 H 5.981102 -0.300251 3.144517 0
M  V30 37 H 4.462494 1.540663 3.453650 0
M  V30 38 H 3.607538 -0.022826 3.224345 0
M  V30 39 H 2.426167 1.683903 1.991895 0
M  V30 40 H 3.883090 2.303721 1.197509 0
M  V30 41 H 2.918121 1.062876 -0.415823 0
M  V30 42 H 0.630136 1.445641 0.920345 0
M  V30 43 H -0.939749 -0.230727 -0.949127 0
M  V30 44 H -2.923049 -3.385383 -1.295123 0
M  V30 45 H -4.316859 1.263570 -0.053005 0
M  V30 46 H -4.207137 1.654825 -1.769889 0
M  V30 47 H -6.442476 2.292809 -1.399011 0
M  V30 48 H -6.595160 1.111404 -0.047404 0
M  V30 49 H -7.498511 -0.517571 -1.448119 0
M  V30 50 H -7.713655 0.852664 -2.577847 0
M  V30 51 H -5.518402 0.544859 -3.544899 0
M  V30 52 H -6.633721 -0.936265 -3.688810 0
M  V30 53 H -2.475489 -1.115912 3.694382 0
M  V30 54 H 3.853583 -1.356508 -0.442022 0
M  V30 55 H 4.936648 0.039308 -0.614361 0
M  V30 END ATOM
M  V30 BEGIN BOND
M  V30 1 1 1 2
M  V30 2 2 2 3
M  V30 3 1 2 4
M  V30 4 1 4 5
M  V30 5 1 5 6
M  V30 6 1 6 7
M  V30 7 1 7 8
M  V30 8 1 8 9
M  V30 9 1 9 10
M  V30 10 2 10 11
M  V30 11 1 10 12
M  V30 12 1 12 13
M  V30 13 2 13 14
M  V30 14 1 14 15
M  V30 15 1 15 16
M  V30 16 1 16 17
M  V30 17 2 17 18
M  V30 18 1 18 19
M  V30 19 1 19 20
M  V30 20 1 20 21
M  V30 21 1 21 22
M  V30 22 1 22 23
M  V30 23 1 23 24
M  V30 24 2 15 25
M  V30 25 1 25 26
M  V30 26 1 25 27
M  V30 27 2 27 28
M  V30 28 1 9 29
M  V30 29 1 29 5
M  V30 30 1 28 13
M  V30 31 2 20 16
M  V30 32 1 24 19
M  V30 33 1 1 30
M  V30 34 1 1 31
M  V30 35 1 1 32
M  V30 36 1 4 33
M  V30 37 1 5 34 CFG=3
M  V30 38 1 6 35
M  V30 39 1 6 36
M  V30 40 1 7 37
M  V30 41 1 7 38
M  V30 42 1 8 39
M  V30 43 1 8 40
M  V30 44 1 9 41 CFG=3
M  V30 45 1 12 42
M  V30 46 1 14 43
M  V30 47 1 17 44
M  V30 48 1 21 45
M  V30 49 1 21 46
M  V30 50 1 22 47
M  V30 51 1 22 48
M  V30 52 1 23 49
M  V30 53 1 23 50
M  V30 54 1 24 51
M  V30 55 1 24 52
M  V30 56 1 27 53
M  V30 57 1 29 54
M  V30 58 1 29 55
M  V30 END BOND
M  V30 END CTAB
M  END
>  <Dataset>  (653) 
ChEMBL_Kinases

>  <Ligand_Instance>  (653) 
nan

>  <PDB_ID>  (653) 
nan

>  <Standardized_SMILES>  (653) 
CC(=O)N[C@@H]1CCC[C@H](C(=O)Nc2cc(-c3cnn4c3CCCC4)c(Cl)cn2)C1

>  <Name>  (653) 
nan

>  <Pocket>  (653) 
nan

>  <ATP_Site>  (653) 
nan

>  <Peripheral>  (653) 
nan

>  <Num_H_Atoms_ProtBoundConf>  (653) 
nan

>  <Num_Resolved_Atoms>  (653) 
nan

>  <Num_Not_Resolved_Atoms>  (653) 
nan

$$$$
CHEMBL3885036
     RDKit          3D

  0  0  0  0  0  0  0  0  0  0999 V3000
M  V30 BEGIN CTAB
M  V30 COUNTS 36 39 0 0 0
M  V30 BEGIN ATOM
M  V30 1 C -0.621508 -2.507187 5.240193 0
M  V30 2 O 0.723089 -2.716328 4.942917 0
M  V30 3 C 1.377291 -2.353573 3.783400 0
M  V30 4 C 2.724941 -2.683482 3.748247 0
M  V30 5 C 3.445163 -2.351782 2.619505 0
M  V30 6 C 2.840266 -1.710818 1.558440 0
M  V30 7 N 3.312243 -1.290151 0.373521 0
M  V30 8 C 2.296295 -0.714868 -0.313911 0
M  V30 9 C 2.248180 -0.132653 -1.560496 0
M  V30 10 O 3.330885 -0.109848 -2.216840 0
M  V30 11 N 1.098127 0.371509 -2.019460 0
M  V30 12 C -0.074816 0.370901 -1.361203 0
M  V30 13 C -1.209518 0.989221 -1.996547 0
M  V30 14 C -2.550149 0.946441 -1.767654 0
M  V30 15 C -3.544215 1.640640 -2.401644 0
M  V30 16 C -3.194138 2.507414 -3.411064 0
M  V30 17 N -1.864655 2.611736 -3.708779 0
M  V30 18 C -0.948745 1.893716 -3.036567 0
M  V30 19 C -0.021989 -0.209705 -0.116492 0
M  V30 20 C -1.189112 -0.222874 0.707781 0
M  V30 21 N -2.131615 -0.219891 1.392059 0
M  V30 22 C 1.126446 -0.746578 0.412464 0
M  V30 23 C 1.502837 -1.376371 1.578054 0
M  V30 24 C 0.812479 -1.716316 2.707928 0
M  V30 25 H -0.793738 -1.451048 5.522452 0
M  V30 26 H -1.329332 -2.893540 4.482465 0
M  V30 27 H -0.849187 -3.116013 6.163464 0
M  V30 28 H 3.274642 -3.183638 4.532679 0
M  V30 29 H 4.514570 -2.588199 2.536124 0
M  V30 30 H 4.297434 -1.402797 0.066593 0
M  V30 31 H 1.254476 0.766818 -2.990011 0
M  V30 32 H -2.848591 0.256559 -1.012426 0
M  V30 33 H -4.571771 1.497149 -2.101649 0
M  V30 34 H -4.002381 3.039212 -3.890308 0
M  V30 35 H -0.006927 2.175245 -3.467399 0
M  V30 36 H -0.213310 -1.495775 2.799148 0
M  V30 END ATOM
M  V30 BEGIN BOND
M  V30 1 1 1 2
M  V30 2 1 2 3
M  V30 3 2 3 4
M  V30 4 1 4 5
M  V30 5 2 5 6
M  V30 6 1 6 7
M  V30 7 1 7 8
M  V30 8 1 8 9
M  V30 9 2 9 10
M  V30 10 1 9 11
M  V30 11 1 11 12
M  V30 12 1 12 13
M  V30 13 2 13 14
M  V30 14 1 14 15
M  V30 15 2 15 16
M  V30 16 1 16 17
M  V30 17 2 17 18
M  V30 18 2 12 19
M  V30 19 1 19 20
M  V30 20 3 20 21
M  V30 21 1 19 22
M  V30 22 1 22 23
M  V30 23 2 23 24
M  V30 24 1 24 3
M  V30 25 1 23 6
M  V30 26 2 22 8
M  V30 27 1 18 13
M  V30 28 1 1 25
M  V30 29 1 1 26
M  V30 30 1 1 27
M  V30 31 1 4 28
M  V30 32 1 5 29
M  V30 33 1 7 30
M  V30 34 1 11 31
M  V30 35 1 14 32
M  V30 36 1 15 33
M  V30 37 1 16 34
M  V30 38 1 18 35
M  V30 39 1 24 36
M  V30 END BOND
M  V30 END CTAB
M  END
>  <Dataset>  (654) 
ChEMBL_Kinases

>  <Ligand_Instance>  (654) 
nan

>  <PDB_ID>  (654) 
nan

>  <Standardized_SMILES>  (654) 
COc1ccc2[nH]c3c(=O)[nH]c(-c4cccnc4)c(C#N)c3c2c1

>  <Name>  (654) 
nan

>  <Pocket>  (654) 
nan

>  <ATP_Site>  (654) 
nan

>  <Peripheral>  (654) 
nan

>  <Num_H_Atoms_ProtBoundConf>  (654) 
nan

>  <Num_Resolved_Atoms>  (654) 
nan

>  <Num_Not_Resolved_Atoms>  (654) 
nan

$$$$
CHEMBL368720
     RDKit          3D

  0  0  0  0  0  0  0  0  0  0999 V3000
M  V30 BEGIN CTAB
M  V30 COUNTS 76 78 0 0 0
M  V30 BEGIN ATOM
M  V30 1 C 5.705326 1.057125 3.183935 0
M  V30 2 C 4.961948 -0.206473 3.506482 0
M  V30 3 C 4.075294 -0.642887 2.362600 0
M  V30 4 C 4.873769 -0.905371 1.103089 0
M  V30 5 C 3.904288 -1.331318 0.031283 0
M  V30 6 C 4.583212 -1.622586 -1.278810 0
M  V30 7 C 5.319730 -0.428176 -1.830758 0
M  V30 8 C 4.399936 0.744731 -2.080352 0
M  V30 9 C 3.313052 0.436714 -3.060788 0
M  V30 10 C 2.404751 1.646814 -3.285350 0
M  V30 11 C 1.743206 2.088104 -2.004353 0
M  V30 12 C 0.907570 1.046767 -1.401521 0
M  V30 13 O 0.569874 -0.124555 -1.632845 0
M  V30 14 O 0.244704 1.335394 -0.218266 0
M  V30 15 C -0.563406 0.345940 0.375058 0
M  V30 16 C -0.196145 -0.611669 1.300596 0
M  V30 17 C -1.168497 -1.484616 1.744666 0
M  V30 18 C -2.476602 -1.431765 1.299881 0
M  V30 19 C -2.860116 -0.482175 0.376231 0
M  V30 20 C -1.889158 0.390707 -0.068209 0
M  V30 21 C -4.307325 -0.647314 0.074124 0 CFG=2
M  V30 22 C -4.536384 -1.079264 -1.352161 0
M  V30 23 C -4.999104 0.664501 0.309927 0
M  V30 24 C -4.847521 1.121825 1.743468 0
M  V30 25 C -6.451836 0.644821 -0.029985 0
M  V30 26 C -4.790420 -1.656100 1.088919 0 CFG=1
M  V30 27 C -5.558762 -2.775207 0.451852 0
M  V30 28 O -6.692075 -2.711565 -0.089762 0
M  V30 29 N -4.809834 -3.987927 0.537945 0
M  V30 30 C -3.494596 -3.613866 0.970253 0 CFG=2
M  V30 31 C -2.808808 -4.708143 1.753078 0
M  V30 32 O -2.723124 -5.816112 0.896737 0
M  V30 33 C -3.601153 -2.314065 1.704662 0 CFG=1
M  V30 34 H 5.726758 1.783758 4.020769 0
M  V30 35 H 5.301029 1.604175 2.306658 0
M  V30 36 H 6.754568 0.782488 2.949863 0
M  V30 37 H 4.276499 0.039888 4.355946 0
M  V30 38 H 5.627101 -1.008460 3.882835 0
M  V30 39 H 3.486947 -1.530600 2.588586 0
M  V30 40 H 3.358150 0.191515 2.201935 0
M  V30 41 H 5.620647 -1.699248 1.321924 0
M  V30 42 H 5.428287 0.018607 0.778877 0
M  V30 43 H 3.439430 -2.274227 0.385075 0
M  V30 44 H 3.129728 -0.569020 -0.028062 0
M  V30 45 H 3.829198 -1.942532 -2.019473 0
M  V30 46 H 5.303679 -2.435198 -1.145254 0
M  V30 47 H 6.163619 -0.107633 -1.220232 0
M  V30 48 H 5.723521 -0.733954 -2.825146 0
M  V30 49 H 5.044292 1.525840 -2.563795 0
M  V30 50 H 4.009155 1.189198 -1.160924 0
M  V30 51 H 2.679062 -0.429384 -2.766423 0
M  V30 52 H 3.782360 0.223852 -4.044277 0
M  V30 53 H 1.700108 1.475111 -4.100394 0
M  V30 54 H 3.094786 2.473981 -3.597226 0
M  V30 55 H 2.468448 2.517205 -1.303730 0
M  V30 56 H 1.064380 2.927535 -2.293192 0
M  V30 57 H 0.831799 -0.570641 1.579889 0
M  V30 58 H -0.846853 -2.216859 2.464791 0
M  V30 59 H -2.244758 1.125041 -0.800471 0
M  V30 60 H -4.068966 -2.065805 -1.564277 0
M  V30 61 H -5.635475 -1.167865 -1.489803 0
M  V30 62 H -4.148305 -0.290801 -2.004604 0
M  V30 63 H -4.527978 1.443696 -0.347681 0
M  V30 64 H -4.000973 0.640672 2.245942 0
M  V30 65 H -4.846576 2.220784 1.745332 0
M  V30 66 H -5.769272 0.796380 2.287265 0
M  V30 67 H -7.049583 -0.063793 0.558841 0
M  V30 68 H -6.853932 1.661756 0.247904 0
M  V30 69 H -6.687081 0.537170 -1.103113 0
M  V30 70 H -5.396497 -1.169052 1.888715 0
M  V30 71 H -5.148599 -4.937521 0.330756 0
M  V30 72 H -2.869036 -3.447553 0.047010 0
M  V30 73 H -3.351447 -4.998107 2.652361 0
M  V30 74 H -1.775591 -4.415523 1.966511 0
M  V30 75 H -2.950133 -5.596469 -0.024720 0
M  V30 76 H -3.671686 -2.430529 2.800840 0
M  V30 END ATOM
M  V30 BEGIN BOND
M  V30 1 1 1 2
M  V30 2 1 2 3
M  V30 3 1 3 4
M  V30 4 1 4 5
M  V30 5 1 5 6
M  V30 6 1 6 7
M  V30 7 1 7 8
M  V30 8 1 8 9
M  V30 9 1 9 10
M  V30 10 1 10 11
M  V30 11 1 11 12
M  V30 12 2 12 13
M  V30 13 1 12 14
M  V30 14 1 14 15
M  V30 15 2 15 16
M  V30 16 1 16 17
M  V30 17 2 17 18
M  V30 18 1 18 19
M  V30 19 2 19 20
M  V30 20 1 19 21
M  V30 21 1 21 22 CFG=3
M  V30 22 1 21 23
M  V30 23 1 23 24
M  V30 24 1 23 25
M  V30 25 1 21 26
M  V30 26 1 26 27
M  V30 27 2 27 28
M  V30 28 1 27 29
M  V30 29 1 29 30
M  V30 30 1 30 31
M  V30 31 1 31 32
M  V30 32 1 30 33
M  V30 33 1 20 15
M  V30 34 1 33 26
M  V30 35 1 33 18
M  V30 36 1 1 34
M  V30 37 1 1 35
M  V30 38 1 1 36
M  V30 39 1 2 37
M  V30 40 1 2 38
M  V30 41 1 3 39
M  V30 42 1 3 40
M  V30 43 1 4 41
M  V30 44 1 4 42
M  V30 45 1 5 43
M  V30 46 1 5 44
M  V30 47 1 6 45
M  V30 48 1 6 46
M  V30 49 1 7 47
M  V30 50 1 7 48
M  V30 51 1 8 49
M  V30 52 1 8 50
M  V30 53 1 9 51
M  V30 54 1 9 52
M  V30 55 1 10 53
M  V30 56 1 10 54
M  V30 57 1 11 55
M  V30 58 1 11 56
M  V30 59 1 16 57
M  V30 60 1 17 58
M  V30 61 1 20 59
M  V30 62 1 22 60
M  V30 63 1 22 61
M  V30 64 1 22 62
M  V30 65 1 23 63
M  V30 66 1 24 64
M  V30 67 1 24 65
M  V30 68 1 24 66
M  V30 69 1 25 67
M  V30 70 1 25 68
M  V30 71 1 25 69
M  V30 72 1 26 70 CFG=1
M  V30 73 1 29 71
M  V30 74 1 30 72 CFG=3
M  V30 75 1 31 73
M  V30 76 1 31 74
M  V30 77 1 32 75
M  V30 78 1 33 76 CFG=1
M  V30 END BOND
M  V30 END CTAB
M  END
>  <Dataset>  (655) 
ChEMBL_Kinases

>  <Ligand_Instance>  (655) 
nan

>  <PDB_ID>  (655) 
nan

>  <Standardized_SMILES>  (655) 
CCCCCCCCCCCC(=O)Oc1ccc2c(c1)[C@](C)(C(C)C)[C@H]1C(=O)N[C@H](CO)[C@@H]21

>  <Name>  (655) 
nan

>  <Pocket>  (655) 
nan

>  <ATP_Site>  (655) 
nan

>  <Peripheral>  (655) 
nan

>  <Num_H_Atoms_ProtBoundConf>  (655) 
nan

>  <Num_Resolved_Atoms>  (655) 
nan

>  <Num_Not_Resolved_Atoms>  (655) 
nan

$$$$
CHEMBL3885316
     RDKit          3D

  0  0  0  0  0  0  0  0  0  0999 V3000
M  V30 BEGIN CTAB
M  V30 COUNTS 31 34 0 0 0
M  V30 BEGIN ATOM
M  V30 1 C 1.635950 -4.990617 3.786794 0
M  V30 2 O 0.612449 -5.003721 2.809699 0
M  V30 3 C 0.288187 -3.878886 2.056774 0
M  V30 4 C -0.725190 -3.960861 1.116448 0
M  V30 5 C -1.076418 -2.868049 0.350222 0
M  V30 6 C -0.415111 -1.672183 0.515233 0
M  V30 7 C 0.590329 -1.617609 1.458700 0
M  V30 8 N 0.917233 -2.697088 2.196349 0
M  V30 9 N 1.095610 -0.358090 1.448953 0
M  V30 10 C 0.435057 0.378527 0.525736 0
M  V30 11 C 0.546168 1.694174 0.115648 0
M  V30 12 C 1.505061 2.475758 0.728903 0
M  V30 13 C 1.566167 3.794718 0.269505 0
M  V30 14 N 0.780257 4.314852 -0.689010 0
M  V30 15 C -0.134405 3.497475 -1.245757 0
M  V30 16 C -0.295443 2.160679 -0.875258 0
M  V30 17 C -1.241629 1.345650 -1.463202 0
M  V30 18 C -1.358568 0.031986 -1.059487 0
M  V30 19 C -2.355907 -0.771942 -1.700907 0
M  V30 20 N -3.165052 -1.404433 -2.229725 0
M  V30 21 C -0.516584 -0.429023 -0.070382 0
M  V30 22 H 2.441756 -5.709633 3.529614 0
M  V30 23 H 2.121721 -3.999403 3.888634 0
M  V30 24 H 1.284794 -5.279832 4.798049 0
M  V30 25 H -1.227355 -4.914678 1.009094 0
M  V30 26 H -1.870067 -2.998470 -0.360201 0
M  V30 27 H 1.877808 0.025246 2.049063 0
M  V30 28 H 2.172138 2.127839 1.505734 0
M  V30 29 H 2.297038 4.459910 0.709648 0
M  V30 30 H -0.791291 3.896630 -2.032930 0
M  V30 31 H -1.840065 1.826761 -2.226477 0
M  V30 END ATOM
M  V30 BEGIN BOND
M  V30 1 1 1 2
M  V30 2 1 2 3
M  V30 3 2 3 4
M  V30 4 1 4 5
M  V30 5 2 5 6
M  V30 6 1 6 7
M  V30 7 2 7 8
M  V30 8 1 7 9
M  V30 9 1 9 10
M  V30 10 2 10 11
M  V30 11 1 11 12
M  V30 12 2 12 13
M  V30 13 1 13 14
M  V30 14 2 14 15
M  V30 15 1 15 16
M  V30 16 2 16 17
M  V30 17 1 17 18
M  V30 18 1 18 19
M  V30 19 3 19 20
M  V30 20 2 18 21
M  V30 21 1 8 3
M  V30 22 1 21 10
M  V30 23 1 21 6
M  V30 24 1 16 11
M  V30 25 1 1 22
M  V30 26 1 1 23
M  V30 27 1 1 24
M  V30 28 1 4 25
M  V30 29 1 5 26
M  V30 30 1 9 27
M  V30 31 1 12 28
M  V30 32 1 13 29
M  V30 33 1 15 30
M  V30 34 1 17 31
M  V30 END BOND
M  V30 END CTAB
M  END
>  <Dataset>  (656) 
ChEMBL_Kinases

>  <Ligand_Instance>  (656) 
nan

>  <PDB_ID>  (656) 
nan

>  <Standardized_SMILES>  (656) 
COc1ccc2c(n1)[nH]c1c3ccncc3cc(C#N)c21

>  <Name>  (656) 
nan

>  <Pocket>  (656) 
nan

>  <ATP_Site>  (656) 
nan

>  <Peripheral>  (656) 
nan

>  <Num_H_Atoms_ProtBoundConf>  (656) 
nan

>  <Num_Resolved_Atoms>  (656) 
nan

>  <Num_Not_Resolved_Atoms>  (656) 
nan

$$$$
CHEMBL3185434
     RDKit          3D

  0  0  0  0  0  0  0  0  0  0999 V3000
M  V30 BEGIN CTAB
M  V30 COUNTS 36 38 0 0 0
M  V30 BEGIN ATOM
M  V30 1 C 0.041069 -5.510444 3.302984 0
M  V30 2 O 0.796799 -5.049846 2.197276 0
M  V30 3 C 0.668131 -3.709422 1.854256 0
M  V30 4 C 1.465159 -3.387995 0.749650 0
M  V30 5 C 1.501031 -2.097649 0.222197 0
M  V30 6 C 0.711970 -1.150798 0.842076 0
M  V30 7 N 0.690251 0.191113 0.366449 0
M  V30 8 C 1.520304 1.209988 0.539980 0
M  V30 9 C 2.751425 1.150665 1.337974 0
M  V30 10 C 1.087350 2.338579 -0.121946 0
M  V30 11 N 1.693004 3.614169 -0.178504 0 CHG=1 VAL=4
M  V30 12 O 2.772362 3.775759 0.447613 0
M  V30 13 O 1.076009 4.604765 -0.909194 0 CHG=-1 VAL=1
M  V30 14 C -0.098055 1.948515 -0.736360 0
M  V30 15 C -1.013681 2.598240 -1.538298 0
M  V30 16 C -2.151203 2.005596 -2.052737 0
M  V30 17 C -2.372022 0.682192 -1.736662 0
M  V30 18 O -3.505892 0.018040 -2.224175 0
M  V30 19 C -1.476043 0.006776 -0.938291 0
M  V30 20 C -0.335663 0.615942 -0.427737 0
M  V30 21 C -0.083933 -1.450132 1.937016 0
M  V30 22 C -0.106538 -2.732843 2.445225 0
M  V30 23 H -0.984352 -5.103582 3.206248 0
M  V30 24 H 0.497520 -5.032963 4.206170 0
M  V30 25 H 0.052372 -6.616259 3.380970 0
M  V30 26 H 2.113498 -4.090889 0.212196 0
M  V30 27 H 2.114871 -1.842798 -0.631271 0
M  V30 28 H 3.668748 1.341392 0.715878 0
M  V30 29 H 2.741831 1.935230 2.122725 0
M  V30 30 H 2.922112 0.202402 1.841797 0
M  V30 31 H -0.858224 3.634602 -1.796842 0
M  V30 32 H -2.863208 2.517601 -2.678675 0
M  V30 33 H -3.760218 0.110338 -3.195193 0
M  V30 34 H -1.668003 -1.039619 -0.699352 0
M  V30 35 H -0.714041 -0.725640 2.443879 0
M  V30 36 H -0.681074 -3.087896 3.287662 0
M  V30 END ATOM
M  V30 BEGIN BOND
M  V30 1 1 1 2
M  V30 2 1 2 3
M  V30 3 2 3 4
M  V30 4 1 4 5
M  V30 5 2 5 6
M  V30 6 1 6 7
M  V30 7 1 7 8
M  V30 8 1 8 9
M  V30 9 2 8 10
M  V30 10 1 10 11
M  V30 11 2 11 12
M  V30 12 1 11 13
M  V30 13 1 10 14
M  V30 14 2 14 15
M  V30 15 1 15 16
M  V30 16 2 16 17
M  V30 17 1 17 18
M  V30 18 1 17 19
M  V30 19 2 19 20
M  V30 20 1 6 21
M  V30 21 2 21 22
M  V30 22 1 22 3
M  V30 23 1 20 7
M  V30 24 1 20 14
M  V30 25 1 1 23
M  V30 26 1 1 24
M  V30 27 1 1 25
M  V30 28 1 4 26
M  V30 29 1 5 27
M  V30 30 1 9 28
M  V30 31 1 9 29
M  V30 32 1 9 30
M  V30 33 1 15 31
M  V30 34 1 16 32
M  V30 35 1 18 33
M  V30 36 1 19 34
M  V30 37 1 21 35
M  V30 38 1 22 36
M  V30 END BOND
M  V30 END CTAB
M  END
>  <Dataset>  (657) 
ChEMBL_Kinases

>  <Ligand_Instance>  (657) 
nan

>  <PDB_ID>  (657) 
nan

>  <Standardized_SMILES>  (657) 
COc1ccc(-n2c(C)c([N+](=O)[O-])c3ccc(O)cc32)cc1

>  <Name>  (657) 
nan

>  <Pocket>  (657) 
nan

>  <ATP_Site>  (657) 
nan

>  <Peripheral>  (657) 
nan

>  <Num_H_Atoms_ProtBoundConf>  (657) 
nan

>  <Num_Resolved_Atoms>  (657) 
nan

>  <Num_Not_Resolved_Atoms>  (657) 
nan

$$$$
CHEMBL4649562
     RDKit          3D

  0  0  0  0  0  0  0  0  0  0999 V3000
M  V30 BEGIN CTAB
M  V30 COUNTS 47 51 0 0 0
M  V30 BEGIN ATOM
M  V30 1 O -1.242233 -0.933638 3.467823 0
M  V30 2 C -1.245562 -0.457925 2.301636 0
M  V30 3 C -0.099134 0.414185 1.970355 0
M  V30 4 C 0.834282 0.651845 2.853433 0
M  V30 5 C 1.970702 1.512644 2.534076 0
M  V30 6 N 2.210490 2.142630 1.372673 0
M  V30 7 C 3.362711 2.847051 1.459581 0
M  V30 8 C 4.011973 3.645972 0.527678 0
M  V30 9 C 5.205712 4.263471 0.891745 0
M  V30 10 F 5.842110 5.043703 -0.014734 0
M  V30 11 C 5.715877 4.071235 2.160325 0
M  V30 12 F 6.882648 4.689109 2.481191 0
M  V30 13 C 5.046606 3.270202 3.066020 0
M  V30 14 C 3.859209 2.645469 2.729548 0
M  V30 15 N 2.989708 1.831910 3.352015 0
M  V30 16 C -2.243845 -0.661758 1.234241 0
M  V30 17 C -1.943932 -1.763670 0.427457 0
M  V30 18 C -0.797736 -2.616987 0.598999 0
M  V30 19 C -0.971363 -3.716464 1.431605 0
M  V30 20 C 0.031746 -4.632052 1.699671 0
M  V30 21 C 1.280994 -4.439133 1.101953 0
M  V30 22 F 2.319742 -5.276797 1.302362 0
M  V30 23 C 1.454335 -3.349179 0.276108 0
M  V30 24 F 2.681057 -3.156600 -0.313018 0
M  V30 25 C 0.456233 -2.435415 0.007459 0
M  V30 26 C -2.822283 -2.046700 -0.612192 0
M  V30 27 C -2.628916 -3.110059 -1.474415 0
M  V30 28 C -3.527411 -3.348967 -2.488823 0
M  V30 29 F -3.291716 -4.392271 -3.294706 0
M  V30 30 C -4.634351 -2.537351 -2.666587 0
M  V30 31 C -4.829264 -1.472495 -1.804261 0
M  V30 32 C -3.921550 -1.222488 -0.771060 0
M  V30 33 N -4.203906 -0.148991 0.023472 0
M  V30 34 C -3.355726 0.136080 1.038812 0
M  V30 35 O -3.508681 1.096562 1.836549 0
M  V30 36 H 0.012765 0.886327 0.993581 0
M  V30 37 H 0.768561 0.207887 3.833802 0
M  V30 38 H 3.595862 3.788872 -0.473098 0
M  V30 39 H 5.430932 3.107842 4.064484 0
M  V30 40 H 3.107871 1.507167 4.329589 0
M  V30 41 H -1.898077 -3.932434 1.925909 0
M  V30 42 H -0.082498 -5.484737 2.337828 0
M  V30 43 H 0.559781 -1.571297 -0.634728 0
M  V30 44 H -1.756868 -3.757533 -1.342212 0
M  V30 45 H -5.289091 -2.792511 -3.484356 0
M  V30 46 H -5.719015 -0.895178 -2.019901 0
M  V30 47 H -5.028666 0.448196 -0.116295 0
M  V30 END ATOM
M  V30 BEGIN BOND
M  V30 1 2 1 2
M  V30 2 1 2 3
M  V30 3 2 3 4
M  V30 4 1 4 5
M  V30 5 2 5 6
M  V30 6 1 6 7
M  V30 7 2 7 8
M  V30 8 1 8 9
M  V30 9 1 9 10
M  V30 10 2 9 11
M  V30 11 1 11 12
M  V30 12 1 11 13
M  V30 13 2 13 14
M  V30 14 1 14 15
M  V30 15 1 2 16
M  V30 16 2 16 17
M  V30 17 1 17 18
M  V30 18 2 18 19
M  V30 19 1 19 20
M  V30 20 2 20 21
M  V30 21 1 21 22
M  V30 22 1 21 23
M  V30 23 1 23 24
M  V30 24 2 23 25
M  V30 25 1 17 26
M  V30 26 2 26 27
M  V30 27 1 27 28
M  V30 28 1 28 29
M  V30 29 2 28 30
M  V30 30 1 30 31
M  V30 31 2 31 32
M  V30 32 1 32 33
M  V30 33 1 33 34
M  V30 34 2 34 35
M  V30 35 1 15 5
M  V30 36 1 34 16
M  V30 37 1 14 7
M  V30 38 1 25 18
M  V30 39 1 32 26
M  V30 40 1 3 36
M  V30 41 1 4 37
M  V30 42 1 8 38
M  V30 43 1 13 39
M  V30 44 1 15 40
M  V30 45 1 19 41
M  V30 46 1 20 42
M  V30 47 1 25 43
M  V30 48 1 27 44
M  V30 49 1 30 45
M  V30 50 1 31 46
M  V30 51 1 33 47
M  V30 END BOND
M  V30 END CTAB
M  END
>  <Dataset>  (658) 
ChEMBL_Kinases

>  <Ligand_Instance>  (658) 
nan

>  <PDB_ID>  (658) 
nan

>  <Standardized_SMILES>  (658) 
O=C(/C=C/c1nc2cc(F)c(F)cc2[nH]1)c1c(-c2ccc(F)c(F)c2)c2cc(F)ccc2[nH]c1=O

>  <Name>  (658) 
nan

>  <Pocket>  (658) 
nan

>  <ATP_Site>  (658) 
nan

>  <Peripheral>  (658) 
nan

>  <Num_H_Atoms_ProtBoundConf>  (658) 
nan

>  <Num_Resolved_Atoms>  (658) 
nan

>  <Num_Not_Resolved_Atoms>  (658) 
nan

$$$$
CHEMBL440201
     RDKit          3D

  0  0  0  0  0  0  0  0  0  0999 V3000
M  V30 BEGIN CTAB
M  V30 COUNTS 66 68 0 0 0
M  V30 BEGIN ATOM
M  V30 1 C -2.605985 0.217539 2.577510 0
M  V30 2 C -3.628594 1.120854 1.995799 0
M  V30 3 C -3.204794 2.511884 1.664181 0
M  V30 4 C -2.735473 3.353021 2.779494 0
M  V30 5 C -1.507833 2.980943 3.514098 0
M  V30 6 C -0.265767 2.965973 2.643861 0
M  V30 7 C 0.897710 2.565575 3.515693 0
M  V30 8 C 2.211536 2.508829 2.773891 0
M  V30 9 C 2.048280 1.515221 1.708074 0
M  V30 10 C 1.893250 0.692712 0.827309 0
M  V30 11 C 1.687753 -0.269388 -0.215935 0
M  V30 12 C 2.537468 -1.352569 -0.302027 0
M  V30 13 C 2.352682 -2.286731 -1.300112 0
M  V30 14 C 1.314142 -2.108177 -2.190504 0
M  V30 15 C 0.426383 -1.050314 -2.164728 0
M  V30 16 C 0.672589 -0.154253 -1.137923 0
M  V30 17 C -0.568730 -1.125319 -3.231758 0 CFG=2
M  V30 18 C -0.180648 -0.227655 -4.378719 0
M  V30 19 C -1.992675 -0.970261 -2.810098 0
M  V30 20 C -2.352724 -2.048231 -1.835269 0
M  V30 21 C -2.362972 0.357741 -2.266058 0
M  V30 22 C -0.410508 -2.553484 -3.716681 0 CFG=1
M  V30 23 C -0.362701 -2.659609 -5.197446 0
M  V30 24 O -1.442040 -2.437766 -5.798152 0
M  V30 25 N 0.967956 -3.008095 -5.630731 0
M  V30 26 C 1.865364 -2.801720 -4.510634 0 CFG=2
M  V30 27 C 2.918981 -3.913874 -4.541026 0
M  V30 28 O 2.316894 -5.154376 -4.435633 0
M  V30 29 C 0.971856 -3.011464 -3.320309 0 CFG=1
M  V30 30 H -2.773280 0.128008 3.689120 0
M  V30 31 H -1.558211 0.469204 2.423623 0
M  V30 32 H -2.700782 -0.829343 2.141871 0
M  V30 33 H -3.927605 0.648091 1.001897 0
M  V30 34 H -4.567216 1.135257 2.637273 0
M  V30 35 H -4.043651 3.068463 1.140185 0
M  V30 36 H -2.426085 2.398234 0.847449 0
M  V30 37 H -2.652695 4.440542 2.502885 0
M  V30 38 H -3.570037 3.364497 3.545581 0
M  V30 39 H -1.613390 2.096505 4.152968 0
M  V30 40 H -1.331825 3.825079 4.259670 0
M  V30 41 H -0.073583 4.027905 2.305206 0
M  V30 42 H -0.347627 2.384143 1.731036 0
M  V30 43 H 0.941829 3.321065 4.333511 0
M  V30 44 H 0.702378 1.603532 4.025945 0
M  V30 45 H 2.388082 3.521345 2.320920 0
M  V30 46 H 2.979638 2.212054 3.492369 0
M  V30 47 H 3.339903 -1.462933 0.409911 0
M  V30 48 H 3.032530 -3.120740 -1.340621 0
M  V30 49 H 0.052058 0.721136 -1.001718 0
M  V30 50 H 0.335363 -0.753321 -5.206352 0
M  V30 51 H -1.034552 0.366064 -4.762072 0
M  V30 52 H 0.539925 0.519381 -3.985223 0
M  V30 53 H -2.607145 -1.158371 -3.725111 0
M  V30 54 H -2.991601 -1.677097 -1.002885 0
M  V30 55 H -1.439585 -2.527476 -1.394673 0
M  V30 56 H -2.936487 -2.873935 -2.293064 0
M  V30 57 H -2.324858 0.428764 -1.161963 0
M  V30 58 H -3.418938 0.573511 -2.531732 0
M  V30 59 H -1.776791 1.190078 -2.661111 0
M  V30 60 H -1.195050 -3.237813 -3.291272 0
M  V30 61 H 1.101995 -3.337147 -6.614906 0
M  V30 62 H 2.370663 -1.826064 -4.523329 0
M  V30 63 H 3.495065 -3.851044 -5.493318 0
M  V30 64 H 3.656193 -3.741648 -3.718763 0
M  V30 65 H 2.655435 -5.584300 -3.594618 0
M  V30 66 H 0.995788 -4.070887 -2.986948 0
M  V30 END ATOM
M  V30 BEGIN BOND
M  V30 1 1 1 2
M  V30 2 1 2 3
M  V30 3 1 3 4
M  V30 4 1 4 5
M  V30 5 1 5 6
M  V30 6 1 6 7
M  V30 7 1 7 8
M  V30 8 1 8 9
M  V30 9 3 9 10
M  V30 10 1 10 11
M  V30 11 2 11 12
M  V30 12 1 12 13
M  V30 13 2 13 14
M  V30 14 1 14 15
M  V30 15 2 15 16
M  V30 16 1 15 17
M  V30 17 1 17 18 CFG=3
M  V30 18 1 17 19
M  V30 19 1 19 20
M  V30 20 1 19 21
M  V30 21 1 17 22
M  V30 22 1 22 23
M  V30 23 2 23 24
M  V30 24 1 23 25
M  V30 25 1 25 26
M  V30 26 1 26 27
M  V30 27 1 27 28
M  V30 28 1 26 29
M  V30 29 1 16 11
M  V30 30 1 29 22
M  V30 31 1 29 14
M  V30 32 1 1 30
M  V30 33 1 1 31
M  V30 34 1 1 32
M  V30 35 1 2 33
M  V30 36 1 2 34
M  V30 37 1 3 35
M  V30 38 1 3 36
M  V30 39 1 4 37
M  V30 40 1 4 38
M  V30 41 1 5 39
M  V30 42 1 5 40
M  V30 43 1 6 41
M  V30 44 1 6 42
M  V30 45 1 7 43
M  V30 46 1 7 44
M  V30 47 1 8 45
M  V30 48 1 8 46
M  V30 49 1 12 47
M  V30 50 1 13 48
M  V30 51 1 16 49
M  V30 52 1 18 50
M  V30 53 1 18 51
M  V30 54 1 18 52
M  V30 55 1 19 53
M  V30 56 1 20 54
M  V30 57 1 20 55
M  V30 58 1 20 56
M  V30 59 1 21 57
M  V30 60 1 21 58
M  V30 61 1 21 59
M  V30 62 1 22 60 CFG=1
M  V30 63 1 25 61
M  V30 64 1 26 62 CFG=1
M  V30 65 1 27 63
M  V30 66 1 27 64
M  V30 67 1 28 65
M  V30 68 1 29 66 CFG=1
M  V30 END BOND
M  V30 END CTAB
M  END
>  <Dataset>  (659) 
ChEMBL_Kinases

>  <Ligand_Instance>  (659) 
nan

>  <PDB_ID>  (659) 
nan

>  <Standardized_SMILES>  (659) 
CCCCCCCCC#Cc1ccc2c(c1)[C@](C)(C(C)C)[C@H]1C(=O)N[C@H](CO)[C@@H]21

>  <Name>  (659) 
nan

>  <Pocket>  (659) 
nan

>  <ATP_Site>  (659) 
nan

>  <Peripheral>  (659) 
nan

>  <Num_H_Atoms_ProtBoundConf>  (659) 
nan

>  <Num_Resolved_Atoms>  (659) 
nan

>  <Num_Not_Resolved_Atoms>  (659) 
nan

$$$$
CHEMBL4855324
     RDKit          3D

  0  0  0  0  0  0  0  0  0  0999 V3000
M  V30 BEGIN CTAB
M  V30 COUNTS 58 63 0 0 0
M  V30 BEGIN ATOM
M  V30 1 C 1.517904 2.953960 7.985585 0
M  V30 2 O 2.503147 1.972785 7.785325 0
M  V30 3 C 2.816270 1.552198 6.505584 0
M  V30 4 C 2.162226 2.107781 5.401700 0
M  V30 5 C 2.503462 1.654052 4.122336 0
M  V30 6 N 2.108722 1.929417 2.859813 0
M  V30 7 C 2.788195 1.166981 2.019939 0
M  V30 8 C 2.771544 1.083115 0.515602 0
M  V30 9 N 1.769325 0.328013 -0.046857 0
M  V30 10 C 0.609360 -0.344404 -0.583602 0
M  V30 11 N -0.681509 0.011303 -0.686205 0
M  V30 12 C -1.635491 -0.689984 -1.265637 0
M  V30 13 N -2.877293 0.004148 -1.237373 0
M  V30 14 C -2.862388 1.406041 -1.609992 0
M  V30 15 C -4.275408 1.854390 -1.813487 0
M  V30 16 O -5.013728 1.805799 -0.634536 0
M  V30 17 C -4.965549 0.549697 -0.042960 0
M  V30 18 C -4.186845 -0.441498 -0.879339 0
M  V30 19 N -1.238616 -1.845902 -1.776407 0
M  V30 20 C 0.003243 -2.311674 -1.741050 0
M  V30 21 C 0.994110 -1.576063 -1.139066 0
M  V30 22 N 2.109661 -2.321668 -1.270460 0
M  V30 23 C 1.780526 -3.445322 -1.923689 0
M  V30 24 N 0.449560 -3.498884 -2.251862 0
M  V30 25 C -0.306918 -4.483631 -2.927607 0
M  V30 26 C -1.297088 -5.270972 -2.363661 0
M  V30 27 N -1.832930 -6.103907 -3.301798 0
M  V30 28 N -1.219173 -5.881096 -4.467960 0
M  V30 29 C -1.476112 -6.540564 -5.748318 0
M  V30 30 C -0.309888 -4.910467 -4.231919 0
M  V30 31 N 3.602082 0.420941 2.759071 0
M  V30 32 C 3.494518 0.656281 4.073374 0
M  V30 33 C 4.135739 0.114279 5.173009 0
M  V30 34 C 3.770021 0.590266 6.407300 0
M  V30 35 Cl 4.608440 -0.122899 7.776111 0
M  V30 36 H 1.699093 3.898495 7.462581 0
M  V30 37 H 1.305837 3.133142 9.060932 0
M  V30 38 H 0.557868 2.553958 7.560869 0
M  V30 39 H 1.403264 2.871765 5.479894 0
M  V30 40 H 2.836476 2.150190 0.149075 0
M  V30 41 H 3.799293 0.695928 0.181476 0
M  V30 42 H 1.144579 1.086397 0.374686 0
M  V30 43 H -2.249638 2.047699 -0.979528 0
M  V30 44 H -2.378539 1.431449 -2.633363 0
M  V30 45 H -4.721114 1.202975 -2.603817 0
M  V30 46 H -4.277579 2.904843 -2.161063 0
M  V30 47 H -6.000336 0.161565 0.067054 0
M  V30 48 H -4.487137 0.666401 0.939647 0
M  V30 49 H -4.736191 -0.774208 -1.777905 0
M  V30 50 H -4.061868 -1.353489 -0.230294 0
M  V30 51 H 2.459064 -4.275353 -2.198601 0
M  V30 52 H -1.667308 -5.299469 -1.327811 0
M  V30 53 H -2.373561 -6.045395 -6.200321 0
M  V30 54 H -1.696936 -7.621340 -5.640547 0
M  V30 55 H -0.633552 -6.320202 -6.435040 0
M  V30 56 H 0.317707 -4.560815 -5.021458 0
M  V30 57 H 4.284809 -0.302151 2.378949 0
M  V30 58 H 4.901257 -0.662748 5.000887 0
M  V30 END ATOM
M  V30 BEGIN BOND
M  V30 1 1 1 2
M  V30 2 1 2 3
M  V30 3 2 3 4
M  V30 4 1 4 5
M  V30 5 1 5 6
M  V30 6 2 6 7
M  V30 7 1 7 8
M  V30 8 1 8 9
M  V30 9 1 9 10
M  V30 10 2 10 11
M  V30 11 1 11 12
M  V30 12 1 12 13
M  V30 13 1 13 14
M  V30 14 1 14 15
M  V30 15 1 15 16
M  V30 16 1 16 17
M  V30 17 1 17 18
M  V30 18 2 12 19
M  V30 19 1 19 20
M  V30 20 2 20 21
M  V30 21 1 21 22
M  V30 22 2 22 23
M  V30 23 1 23 24
M  V30 24 1 24 25
M  V30 25 1 25 26
M  V30 26 2 26 27
M  V30 27 1 27 28
M  V30 28 1 28 29
M  V30 29 1 28 30
M  V30 30 1 7 31
M  V30 31 1 31 32
M  V30 32 1 32 33
M  V30 33 2 33 34
M  V30 34 1 34 35
M  V30 35 1 34 3
M  V30 36 2 32 5
M  V30 37 1 21 10
M  V30 38 2 30 25
M  V30 39 1 18 13
M  V30 40 1 24 20
M  V30 41 1 1 36
M  V30 42 1 1 37
M  V30 43 1 1 38
M  V30 44 1 4 39
M  V30 45 1 8 40
M  V30 46 1 8 41
M  V30 47 1 9 42
M  V30 48 1 14 43
M  V30 49 1 14 44
M  V30 50 1 15 45
M  V30 51 1 15 46
M  V30 52 1 17 47
M  V30 53 1 17 48
M  V30 54 1 18 49
M  V30 55 1 18 50
M  V30 56 1 23 51
M  V30 57 1 26 52
M  V30 58 1 29 53
M  V30 59 1 29 54
M  V30 60 1 29 55
M  V30 61 1 30 56
M  V30 62 1 31 57
M  V30 63 1 33 58
M  V30 END BOND
M  V30 END CTAB
M  END
>  <Dataset>  (660) 
ChEMBL_Kinases

>  <Ligand_Instance>  (660) 
nan

>  <PDB_ID>  (660) 
nan

>  <Standardized_SMILES>  (660) 
COc1cc2nc(CNc3nc(N4CCOCC4)nc4c3ncn4-c3cnn(C)c3)[nH]c2cc1Cl

>  <Name>  (660) 
nan

>  <Pocket>  (660) 
nan

>  <ATP_Site>  (660) 
nan

>  <Peripheral>  (660) 
nan

>  <Num_H_Atoms_ProtBoundConf>  (660) 
nan

>  <Num_Resolved_Atoms>  (660) 
nan

>  <Num_Not_Resolved_Atoms>  (660) 
nan

$$$$
CHEMBL5073858
     RDKit          3D

  0  0  0  0  0  0  0  0  0  0999 V3000
M  V30 BEGIN CTAB
M  V30 COUNTS 60 64 0 0 0
M  V30 BEGIN ATOM
M  V30 1 C 3.672709 -2.439774 4.171345 0
M  V30 2 O 2.987466 -1.272084 3.779334 0
M  V30 3 C 1.658871 -1.048869 4.106949 0
M  V30 4 C 0.870071 -1.928432 4.841623 0
M  V30 5 C -0.447657 -1.651516 5.136124 0
M  V30 6 C -0.946887 -0.453668 4.663708 0
M  V30 7 C -0.225200 0.490277 3.917153 0
M  V30 8 C -0.902721 1.685616 3.505421 0
M  V30 9 N -1.253163 2.460065 4.547158 0
M  V30 10 C -1.892295 3.571020 4.057002 0
M  V30 11 S -2.730135 5.150013 4.396382 0
M  V30 12 C -3.058044 5.520333 2.562486 0
M  V30 13 C -2.484279 4.388804 1.930298 0
M  V30 14 N -1.928736 3.468767 2.715115 0
M  V30 15 C -1.323531 2.316045 2.381083 0
M  V30 16 C -1.038764 1.639287 1.110958 0
M  V30 17 C 0.199330 1.461304 0.532282 0
M  V30 18 C 0.375097 0.808219 -0.655148 0
M  V30 19 N -0.691785 0.324869 -1.277223 0
M  V30 20 C -1.918880 0.487293 -0.728384 0
M  V30 21 N -2.963923 -0.097712 -1.524564 0
M  V30 22 C -3.410931 -1.459845 -1.299244 0
M  V30 23 C -2.309207 -2.482324 -1.454707 0
M  V30 24 N -1.240042 -2.207762 -0.490501 0
M  V30 25 S 0.029706 -3.351146 -0.638767 0
M  V30 26 O -0.587600 -4.708636 -0.350564 0
M  V30 27 O 1.033354 -3.046147 0.459577 0
M  V30 28 C 0.792823 -3.326531 -2.197854 0
M  V30 29 C 0.403691 -4.094294 -3.273569 0
M  V30 30 C 1.124182 -3.954825 -4.455541 0
M  V30 31 C 2.187981 -3.084649 -4.556954 0
M  V30 32 C 2.927286 -2.973636 -5.849606 0
M  V30 33 F 2.012245 -2.865786 -6.882612 0
M  V30 34 F 3.686001 -1.813938 -5.884667 0
M  V30 35 F 3.794095 -4.031446 -6.031460 0
M  V30 36 C 2.589960 -2.301472 -3.470707 0
M  V30 37 C 1.868570 -2.448590 -2.305188 0
M  V30 38 N -2.102520 1.127380 0.437825 0
M  V30 39 C 1.078161 0.123472 3.675775 0
M  V30 40 H 3.024251 -3.340889 4.189925 0
M  V30 41 H 4.153640 -2.325572 5.177423 0
M  V30 42 H 4.513770 -2.682749 3.485107 0
M  V30 43 H 1.317702 -2.849795 5.183579 0
M  V30 44 H -1.068613 -2.319335 5.700920 0
M  V30 45 H -1.996834 -0.231861 4.897367 0
M  V30 46 H -3.569488 6.420030 2.261686 0
M  V30 47 H -2.614633 4.493753 0.869092 0
M  V30 48 H 1.039746 1.872609 1.069750 0
M  V30 49 H 1.367730 0.695375 -1.066381 0
M  V30 50 H -3.381377 0.524431 -2.278185 0
M  V30 51 H -3.770294 -1.534317 -0.257600 0
M  V30 52 H -4.195182 -1.672294 -2.046097 0
M  V30 53 H -2.748395 -3.448664 -1.114280 0
M  V30 54 H -1.946440 -2.609263 -2.482369 0
M  V30 55 H -1.675225 -2.364656 0.440260 0
M  V30 56 H -0.434845 -4.749871 -3.119180 0
M  V30 57 H 0.805858 -4.566408 -5.292004 0
M  V30 58 H 3.415113 -1.634236 -3.569996 0
M  V30 59 H 2.213830 -1.823999 -1.491570 0
M  V30 60 H 1.671059 0.823066 3.107086 0
M  V30 END ATOM
M  V30 BEGIN BOND
M  V30 1 1 1 2
M  V30 2 1 2 3
M  V30 3 2 3 4
M  V30 4 1 4 5
M  V30 5 2 5 6
M  V30 6 1 6 7
M  V30 7 1 7 8
M  V30 8 1 8 9
M  V30 9 2 9 10
M  V30 10 1 10 11
M  V30 11 1 11 12
M  V30 12 2 12 13
M  V30 13 1 13 14
M  V30 14 1 14 15
M  V30 15 1 15 16
M  V30 16 2 16 17
M  V30 17 1 17 18
M  V30 18 2 18 19
M  V30 19 1 19 20
M  V30 20 1 20 21
M  V30 21 1 21 22
M  V30 22 1 22 23
M  V30 23 1 23 24
M  V30 24 1 24 25
M  V30 25 2 25 26
M  V30 26 2 25 27
M  V30 27 1 25 28
M  V30 28 2 28 29
M  V30 29 1 29 30
M  V30 30 2 30 31
M  V30 31 1 31 32
M  V30 32 1 32 33
M  V30 33 1 32 34
M  V30 34 1 32 35
M  V30 35 1 31 36
M  V30 36 2 36 37
M  V30 37 2 20 38
M  V30 38 2 7 39
M  V30 39 1 39 3
M  V30 40 2 15 8
M  V30 41 1 38 16
M  V30 42 1 14 10
M  V30 43 1 37 28
M  V30 44 1 1 40
M  V30 45 1 1 41
M  V30 46 1 1 42
M  V30 47 1 4 43
M  V30 48 1 5 44
M  V30 49 1 6 45
M  V30 50 1 12 46
M  V30 51 1 13 47
M  V30 52 1 17 48
M  V30 53 1 18 49
M  V30 54 1 21 50
M  V30 55 1 22 51
M  V30 56 1 22 52
M  V30 57 1 23 53
M  V30 58 1 23 54
M  V30 59 1 24 55
M  V30 60 1 29 56
M  V30 61 1 30 57
M  V30 62 1 36 58
M  V30 63 1 37 59
M  V30 64 1 39 60
M  V30 END BOND
M  V30 END CTAB
M  END
>  <Dataset>  (661) 
ChEMBL_Kinases

>  <Ligand_Instance>  (661) 
nan

>  <PDB_ID>  (661) 
nan

>  <Standardized_SMILES>  (661) 
COc1cccc(-c2nc3sccn3c2-c2ccnc(NCCNS(=O)(=O)c3ccc(C(F)(F)F)cc3)n2)c1

>  <Name>  (661) 
nan

>  <Pocket>  (661) 
nan

>  <ATP_Site>  (661) 
nan

>  <Peripheral>  (661) 
nan

>  <Num_H_Atoms_ProtBoundConf>  (661) 
nan

>  <Num_Resolved_Atoms>  (661) 
nan

>  <Num_Not_Resolved_Atoms>  (661) 
nan

$$$$
CHEMBL3799935
     RDKit          3D

  0  0  0  0  0  0  0  0  0  0999 V3000
M  V30 BEGIN CTAB
M  V30 COUNTS 36 39 0 0 0
M  V30 BEGIN ATOM
M  V30 1 N 1.285744 -0.345790 3.767777 0
M  V30 2 C 1.140464 -1.094254 2.571767 0
M  V30 3 N 1.581784 -2.371129 2.622853 0
M  V30 4 C 1.488404 -3.173103 1.532748 0
M  V30 5 C 0.927654 -2.627787 0.383908 0
M  V30 6 C 0.832806 -3.500142 -0.781879 0
M  V30 7 C 0.642255 -4.845610 -0.506993 0
M  V30 8 C 0.530575 -5.812851 -1.510362 0
M  V30 9 C 0.620951 -5.354216 -2.808877 0
M  V30 10 C 0.810604 -4.023193 -3.133100 0
M  V30 11 C 0.916999 -3.089073 -2.096753 0
M  V30 12 C 0.486473 -1.325902 0.358820 0
M  V30 13 C 0.579727 -0.509405 1.463260 0
M  V30 14 C 0.103818 0.862319 1.398629 0
M  V30 15 N -0.444154 1.439306 0.320658 0
M  V30 16 C -0.787831 2.704471 0.545405 0
M  V30 17 C -1.371500 3.650868 -0.272403 0
M  V30 18 C -1.591184 4.899910 0.310293 0
M  V30 19 C -1.270322 5.216290 1.594197 0
M  V30 20 C -0.689096 4.236936 2.371566 0
M  V30 21 C -0.447277 2.982573 1.850400 0
M  V30 22 N 0.082703 1.843395 2.313429 0
M  V30 23 H 2.161527 0.204589 3.902352 0
M  V30 24 H 0.429142 -0.484947 4.348565 0
M  V30 25 H 1.857735 -4.180503 1.637537 0
M  V30 26 H 0.562914 -5.269437 0.497605 0
M  V30 27 H 0.382771 -6.859441 -1.302706 0
M  V30 28 H 0.534122 -6.109165 -3.606432 0
M  V30 29 H 0.878159 -3.689747 -4.164154 0
M  V30 30 H 1.065706 -2.031907 -2.274175 0
M  V30 31 H 0.064119 -0.963162 -0.554560 0
M  V30 32 H -1.633014 3.415518 -1.295994 0
M  V30 33 H -2.056242 5.625832 -0.369167 0
M  V30 34 H -1.469484 6.218511 1.993416 0
M  V30 35 H -0.422176 4.454357 3.393922 0
M  V30 36 H 0.428791 1.779020 3.293431 0
M  V30 END ATOM
M  V30 BEGIN BOND
M  V30 1 1 1 2
M  V30 2 2 2 3
M  V30 3 1 3 4
M  V30 4 2 4 5
M  V30 5 1 5 6
M  V30 6 2 6 7
M  V30 7 1 7 8
M  V30 8 2 8 9
M  V30 9 1 9 10
M  V30 10 2 10 11
M  V30 11 1 5 12
M  V30 12 2 12 13
M  V30 13 1 13 14
M  V30 14 2 14 15
M  V30 15 1 15 16
M  V30 16 2 16 17
M  V30 17 1 17 18
M  V30 18 2 18 19
M  V30 19 1 19 20
M  V30 20 2 20 21
M  V30 21 1 21 22
M  V30 22 1 13 2
M  V30 23 1 22 14
M  V30 24 1 11 6
M  V30 25 1 21 16
M  V30 26 1 1 23
M  V30 27 1 1 24
M  V30 28 1 4 25
M  V30 29 1 7 26
M  V30 30 1 8 27
M  V30 31 1 9 28
M  V30 32 1 10 29
M  V30 33 1 11 30
M  V30 34 1 12 31
M  V30 35 1 17 32
M  V30 36 1 18 33
M  V30 37 1 19 34
M  V30 38 1 20 35
M  V30 39 1 22 36
M  V30 END BOND
M  V30 END CTAB
M  END
>  <Dataset>  (662) 
ChEMBL_Kinases

>  <Ligand_Instance>  (662) 
nan

>  <PDB_ID>  (662) 
nan

>  <Standardized_SMILES>  (662) 
Nc1ncc(-c2ccccc2)cc1-c1nc2ccccc2[nH]1

>  <Name>  (662) 
nan

>  <Pocket>  (662) 
nan

>  <ATP_Site>  (662) 
nan

>  <Peripheral>  (662) 
nan

>  <Num_H_Atoms_ProtBoundConf>  (662) 
nan

>  <Num_Resolved_Atoms>  (662) 
nan

>  <Num_Not_Resolved_Atoms>  (662) 
nan

$$$$
CHEMBL3128042
     RDKit          3D

  0  0  0  0  0  0  0  0  0  0999 V3000
M  V30 BEGIN CTAB
M  V30 COUNTS 56 59 0 0 0
M  V30 BEGIN ATOM
M  V30 1 C 1.989128 -3.510593 6.241948 0
M  V30 2 O 3.180352 -2.836756 6.262464 0
M  V30 3 C 3.572112 -2.264636 5.072296 0
M  V30 4 C 3.721949 -3.321628 4.013078 0
M  V30 5 N 4.142267 -2.761549 2.716429 0
M  V30 6 C 3.214766 -1.816389 2.201564 0
M  V30 7 N 3.224519 -0.504863 2.550699 0
M  V30 8 C 2.212478 0.124518 1.883634 0
M  V30 9 C 1.848981 1.455258 1.931694 0
M  V30 10 C 0.775927 1.830873 1.148730 0
M  V30 11 C 0.108079 0.913285 0.361801 0
M  V30 12 C -1.023582 1.311246 -0.464293 0
M  V30 13 C -1.972722 1.622948 -1.152218 0
M  V30 14 C -3.118702 1.978698 -1.991526 0
M  V30 15 O -4.279068 1.303658 -1.626406 0
M  V30 16 C -3.374885 3.440313 -1.901705 0
M  V30 17 C -4.598917 3.793750 -2.700564 0
M  V30 18 C -5.170026 2.705624 -3.533507 0
M  V30 19 C -4.217526 1.726509 -4.116699 0
M  V30 20 C -2.864396 1.667967 -3.449448 0
M  V30 21 C 0.541346 -0.397601 0.376257 0
M  V30 22 C 1.606019 -0.859226 1.129854 0
M  V30 23 N 2.221485 -2.040430 1.327433 0
M  V30 24 C 1.820277 -3.231229 0.673129 0
M  V30 25 C 2.425799 -4.456143 0.820879 0
M  V30 26 C 2.051153 -5.620599 0.188547 0
M  V30 27 N 0.986779 -5.558798 -0.659992 0
M  V30 28 C 0.361525 -4.363603 -0.832504 0
M  V30 29 N -0.757340 -4.147551 -1.682603 0
M  V30 30 N 0.786579 -3.287453 -0.183837 0
M  V30 31 H 1.810755 -3.913413 7.281797 0
M  V30 32 H 2.009068 -4.437529 5.599746 0
M  V30 33 H 1.101584 -2.924007 5.990828 0
M  V30 34 H 2.790988 -1.521598 4.809108 0
M  V30 35 H 4.540260 -1.761905 5.194957 0
M  V30 36 H 2.684780 -3.722477 3.820770 0
M  V30 37 H 4.330075 -4.172624 4.329707 0
M  V30 38 H 5.029807 -3.059416 2.269787 0
M  V30 39 H 2.376750 2.167667 2.550288 0
M  V30 40 H 0.463413 2.866528 1.161480 0
M  V30 41 H -4.383051 1.398656 -0.648741 0
M  V30 42 H -2.507733 3.966263 -2.390923 0
M  V30 43 H -3.396546 3.825239 -0.873211 0
M  V30 44 H -4.466606 4.720838 -3.290283 0
M  V30 45 H -5.377094 4.073634 -1.930034 0
M  V30 46 H -6.040022 2.209089 -3.010576 0
M  V30 47 H -5.681985 3.194055 -4.416176 0
M  V30 48 H -4.063160 1.831627 -5.206751 0
M  V30 49 H -4.655572 0.694076 -3.977964 0
M  V30 50 H -2.227051 2.428864 -3.929119 0
M  V30 51 H -2.392094 0.680883 -3.538513 0
M  V30 52 H -0.007999 -1.063700 -0.247805 0
M  V30 53 H 3.274812 -4.566246 1.475118 0
M  V30 54 H 2.557824 -6.553710 0.338260 0
M  V30 55 H -0.950832 -4.197129 -2.704084 0
M  V30 56 H -1.611219 -3.865130 -1.139956 0
M  V30 END ATOM
M  V30 BEGIN BOND
M  V30 1 1 1 2
M  V30 2 1 2 3
M  V30 3 1 3 4
M  V30 4 1 4 5
M  V30 5 1 5 6
M  V30 6 2 6 7
M  V30 7 1 7 8
M  V30 8 2 8 9
M  V30 9 1 9 10
M  V30 10 2 10 11
M  V30 11 1 11 12
M  V30 12 3 12 13
M  V30 13 1 13 14
M  V30 14 1 14 15
M  V30 15 1 14 16
M  V30 16 1 16 17
M  V30 17 1 17 18
M  V30 18 1 18 19
M  V30 19 1 19 20
M  V30 20 1 11 21
M  V30 21 2 21 22
M  V30 22 1 22 23
M  V30 23 1 23 24
M  V30 24 2 24 25
M  V30 25 1 25 26
M  V30 26 2 26 27
M  V30 27 1 27 28
M  V30 28 1 28 29
M  V30 29 2 28 30
M  V30 30 1 23 6
M  V30 31 1 30 24
M  V30 32 1 22 8
M  V30 33 1 20 14
M  V30 34 1 1 31
M  V30 35 1 1 32
M  V30 36 1 1 33
M  V30 37 1 3 34
M  V30 38 1 3 35
M  V30 39 1 4 36
M  V30 40 1 4 37
M  V30 41 1 5 38
M  V30 42 1 9 39
M  V30 43 1 10 40
M  V30 44 1 15 41
M  V30 45 1 16 42
M  V30 46 1 16 43
M  V30 47 1 17 44
M  V30 48 1 17 45
M  V30 49 1 18 46
M  V30 50 1 18 47
M  V30 51 1 19 48
M  V30 52 1 19 49
M  V30 53 1 20 50
M  V30 54 1 20 51
M  V30 55 1 21 52
M  V30 56 1 25 53
M  V30 57 1 26 54
M  V30 58 1 29 55
M  V30 59 1 29 56
M  V30 END BOND
M  V30 END CTAB
M  END
>  <Dataset>  (663) 
ChEMBL_Kinases

>  <Ligand_Instance>  (663) 
nan

>  <PDB_ID>  (663) 
nan

>  <Standardized_SMILES>  (663) 
COCCNc1nc2ccc(C#CC3(O)CCCCC3)cc2n1-c1ccnc(N)n1

>  <Name>  (663) 
nan

>  <Pocket>  (663) 
nan

>  <ATP_Site>  (663) 
nan

>  <Peripheral>  (663) 
nan

>  <Num_H_Atoms_ProtBoundConf>  (663) 
nan

>  <Num_Resolved_Atoms>  (663) 
nan

>  <Num_Not_Resolved_Atoms>  (663) 
nan

$$$$
CHEMBL4754081
     RDKit          3D

  0  0  0  0  0  0  0  0  0  0999 V3000
M  V30 BEGIN CTAB
M  V30 COUNTS 58 61 0 0 0
M  V30 BEGIN ATOM
M  V30 1 C 4.429279 -0.718643 7.329527 0
M  V30 2 C 4.022409 0.502523 6.586557 0
M  V30 3 O 4.133550 1.731840 6.869062 0
M  V30 4 N 3.410009 0.144963 5.356525 0
M  V30 5 C 2.854014 0.917669 4.295632 0 CFG=2
M  V30 6 C 1.390097 0.677300 4.063196 0
M  V30 7 C 0.843818 1.811928 3.225237 0
M  V30 8 C 1.888928 2.459362 2.373875 0
M  V30 9 C 2.940687 1.488266 1.883791 0 CFG=2
M  V30 10 C 2.347632 0.533656 0.908406 0
M  V30 11 O 2.275644 -0.740387 0.977784 0
M  V30 12 N 1.748087 0.973395 -0.305408 0
M  V30 13 C 1.261728 -0.170179 -1.046803 0
M  V30 14 C -0.012407 -0.683793 -0.901222 0
M  V30 15 C -0.323538 -1.762273 -1.667253 0
M  V30 16 C -1.648885 -2.365891 -1.574135 0
M  V30 17 C -1.848356 -3.382080 -0.648646 0
M  V30 18 N -3.141191 -3.764349 -0.761283 0
M  V30 19 N -3.717920 -3.035698 -1.697231 0
M  V30 20 C -2.819432 -2.157269 -2.222532 0
M  V30 21 C -3.415714 -1.323018 -3.269883 0
M  V30 22 C -4.606398 -2.189057 -3.686710 0
M  V30 23 C -5.766319 -1.391520 -4.181626 0
M  V30 24 C -4.180489 -3.222729 -4.704646 0
M  V30 25 C -4.994281 -2.848594 -2.364503 0
M  V30 26 C 0.596213 -2.305440 -2.541011 0
M  V30 27 F 0.260846 -3.379840 -3.292640 0
M  V30 28 C 1.872369 -1.784907 -2.681689 0
M  V30 29 N 2.145804 -0.721048 -1.910867 0
M  V30 30 C 3.597310 0.729529 2.995187 0
M  V30 31 H 4.748951 -0.473585 8.363449 0
M  V30 32 H 3.556839 -1.392164 7.426653 0
M  V30 33 H 5.267170 -1.251074 6.835109 0
M  V30 34 H 3.235314 -0.823513 4.961575 0
M  V30 35 H 2.972727 1.999506 4.586158 0
M  V30 36 H 0.803409 0.680938 5.000317 0
M  V30 37 H 1.268665 -0.265868 3.492164 0
M  V30 38 H 0.416262 2.625398 3.867588 0
M  V30 39 H -0.006522 1.455884 2.582660 0
M  V30 40 H 2.320335 3.369186 2.809269 0
M  V30 41 H 1.376090 2.815780 1.432137 0
M  V30 42 H 3.699590 2.118242 1.347005 0
M  V30 43 H 1.709325 2.008666 -0.547121 0
M  V30 44 H -0.682569 -0.215023 -0.203178 0
M  V30 45 H -1.177900 -3.861999 0.077770 0
M  V30 46 H -3.832635 -0.362466 -2.908863 0
M  V30 47 H -2.766461 -1.149145 -4.151834 0
M  V30 48 H -6.687311 -1.753770 -3.702615 0
M  V30 49 H -5.686344 -0.302794 -3.975975 0
M  V30 50 H -5.926476 -1.486687 -5.274314 0
M  V30 51 H -5.028588 -3.550088 -5.333392 0
M  V30 52 H -3.398797 -2.772322 -5.364136 0
M  V30 53 H -3.770600 -4.109378 -4.140415 0
M  V30 54 H -5.539290 -3.806452 -2.537494 0
M  V30 55 H -5.622140 -2.159718 -1.768954 0
M  V30 56 H 2.615834 -2.194669 -3.363343 0
M  V30 57 H 3.709389 -0.352913 2.776227 0
M  V30 58 H 4.626848 1.148460 3.194129 0
M  V30 END ATOM
M  V30 BEGIN BOND
M  V30 1 1 1 2
M  V30 2 2 2 3
M  V30 3 1 2 4
M  V30 4 1 4 5
M  V30 5 1 5 6
M  V30 6 1 6 7
M  V30 7 1 7 8
M  V30 8 1 8 9
M  V30 9 1 9 10
M  V30 10 2 10 11
M  V30 11 1 10 12
M  V30 12 1 12 13
M  V30 13 2 13 14
M  V30 14 1 14 15
M  V30 15 1 15 16
M  V30 16 1 16 17
M  V30 17 2 17 18
M  V30 18 1 18 19
M  V30 19 1 19 20
M  V30 20 1 20 21
M  V30 21 1 21 22
M  V30 22 1 22 23
M  V30 23 1 22 24
M  V30 24 1 22 25
M  V30 25 2 15 26
M  V30 26 1 26 27
M  V30 27 1 26 28
M  V30 28 2 28 29
M  V30 29 1 9 30
M  V30 30 1 30 5
M  V30 31 1 29 13
M  V30 32 2 20 16
M  V30 33 1 25 19
M  V30 34 1 1 31
M  V30 35 1 1 32
M  V30 36 1 1 33
M  V30 37 1 4 34
M  V30 38 1 5 35 CFG=1
M  V30 39 1 6 36
M  V30 40 1 6 37
M  V30 41 1 7 38
M  V30 42 1 7 39
M  V30 43 1 8 40
M  V30 44 1 8 41
M  V30 45 1 9 42 CFG=3
M  V30 46 1 12 43
M  V30 47 1 14 44
M  V30 48 1 17 45
M  V30 49 1 21 46
M  V30 50 1 21 47
M  V30 51 1 23 48
M  V30 52 1 23 49
M  V30 53 1 23 50
M  V30 54 1 24 51
M  V30 55 1 24 52
M  V30 56 1 24 53
M  V30 57 1 25 54
M  V30 58 1 25 55
M  V30 59 1 28 56
M  V30 60 1 30 57
M  V30 61 1 30 58
M  V30 END BOND
M  V30 END CTAB
M  END
>  <Dataset>  (664) 
ChEMBL_Kinases

>  <Ligand_Instance>  (664) 
nan

>  <PDB_ID>  (664) 
nan

>  <Standardized_SMILES>  (664) 
CC(=O)N[C@@H]1CCC[C@H](C(=O)Nc2cc(-c3cnn4c3CC(C)(C)C4)c(F)cn2)C1

>  <Name>  (664) 
nan

>  <Pocket>  (664) 
nan

>  <ATP_Site>  (664) 
nan

>  <Peripheral>  (664) 
nan

>  <Num_H_Atoms_ProtBoundConf>  (664) 
nan

>  <Num_Resolved_Atoms>  (664) 
nan

>  <Num_Not_Resolved_Atoms>  (664) 
nan

$$$$
CHEMBL378963
     RDKit          3D

  0  0  0  0  0  0  0  0  0  0999 V3000
M  V30 BEGIN CTAB
M  V30 COUNTS 52 56 0 0 0
M  V30 BEGIN ATOM
M  V30 1 N -0.860509 -1.240687 1.535579 0
M  V30 2 C -0.600723 -2.466575 0.817994 0 CFG=2
M  V30 3 C 0.034068 -2.183538 -0.498538 0
M  V30 4 O 1.226101 -1.561788 -0.415338 0
M  V30 5 C 1.812512 -0.436813 -0.008255 0
M  V30 6 C 3.177528 -0.658497 -0.305727 0
M  V30 7 N 4.156000 0.268781 -0.043579 0
M  V30 8 C 3.804547 1.449903 0.524963 0
M  V30 9 Cl 4.955517 2.714546 0.910694 0
M  V30 10 C 2.496071 1.736925 0.842475 0
M  V30 11 C 1.972629 2.952842 1.450836 0
M  V30 12 C 2.386188 4.184816 1.008501 0
M  V30 13 C 1.882460 5.349975 1.590991 0
M  V30 14 C 0.957637 5.222182 2.623577 0
M  V30 15 C 0.421513 6.343157 3.241165 0
M  V30 16 N -0.482611 6.237506 4.250655 0
M  V30 17 C -0.868902 5.023348 4.663193 0
M  V30 18 C -0.367374 3.874088 4.083451 0
M  V30 19 C 0.554905 3.964383 3.053498 0
M  V30 20 C 1.056310 2.810621 2.473683 0
M  V30 21 C 1.566487 0.782726 0.560808 0
M  V30 22 C -1.880042 -3.240857 0.790761 0
M  V30 23 C -1.858604 -4.527440 0.114332 0
M  V30 24 C -1.698365 -5.724256 0.827838 0
M  V30 25 N -1.681457 -6.788553 -0.022324 0
M  V30 26 C -1.825323 -6.352025 -1.283575 0
M  V30 27 C -1.891742 -6.925532 -2.543145 0
M  V30 28 C -2.062025 -6.164025 -3.697862 0
M  V30 29 C -2.167887 -4.792424 -3.580237 0
M  V30 30 C -2.098832 -4.244445 -2.318936 0
M  V30 31 C -1.930051 -4.994203 -1.177882 0
M  V30 32 H -1.747708 -0.838046 1.185495 0
M  V30 33 H -0.896401 -1.379601 2.551654 0
M  V30 34 H 0.161209 -3.007432 1.478919 0
M  V30 35 H 0.214252 -3.203855 -0.973909 0
M  V30 36 H -0.689856 -1.717667 -1.221335 0
M  V30 37 H 3.732909 -1.502014 -0.756652 0
M  V30 38 H 3.102956 4.316635 0.209182 0
M  V30 39 H 2.137567 6.359572 1.323309 0
M  V30 40 H 0.739543 7.333256 2.900452 0
M  V30 41 H -1.590910 5.066646 5.470471 0
M  V30 42 H -0.724755 2.921589 4.468042 0
M  V30 43 H 0.715646 1.851142 2.837911 0
M  V30 44 H 0.524428 0.901363 0.749550 0
M  V30 45 H -2.711251 -2.621634 0.335280 0
M  V30 46 H -2.204812 -3.344287 1.857148 0
M  V30 47 H -1.594378 -5.876658 1.906141 0
M  V30 48 H -1.574676 -7.790449 0.244977 0
M  V30 49 H -1.807554 -8.006543 -2.627218 0
M  V30 50 H -2.111192 -6.638049 -4.682259 0
M  V30 51 H -2.302996 -4.164115 -4.465998 0
M  V30 52 H -2.193703 -3.170535 -2.277069 0
M  V30 END ATOM
M  V30 BEGIN BOND
M  V30 1 1 1 2
M  V30 2 1 2 3
M  V30 3 1 3 4
M  V30 4 1 4 5
M  V30 5 2 5 6
M  V30 6 1 6 7
M  V30 7 2 7 8
M  V30 8 1 8 9
M  V30 9 1 8 10
M  V30 10 1 10 11
M  V30 11 2 11 12
M  V30 12 1 12 13
M  V30 13 2 13 14
M  V30 14 1 14 15
M  V30 15 2 15 16
M  V30 16 1 16 17
M  V30 17 2 17 18
M  V30 18 1 18 19
M  V30 19 2 19 20
M  V30 20 2 10 21
M  V30 21 1 2 22
M  V30 22 1 22 23
M  V30 23 2 23 24
M  V30 24 1 24 25
M  V30 25 1 25 26
M  V30 26 2 26 27
M  V30 27 1 27 28
M  V30 28 2 28 29
M  V30 29 1 29 30
M  V30 30 2 30 31
M  V30 31 1 21 5
M  V30 32 1 31 23
M  V30 33 1 20 11
M  V30 34 1 31 26
M  V30 35 1 19 14
M  V30 36 1 1 32
M  V30 37 1 1 33
M  V30 38 1 2 34 CFG=1
M  V30 39 1 3 35
M  V30 40 1 3 36
M  V30 41 1 6 37
M  V30 42 1 12 38
M  V30 43 1 13 39
M  V30 44 1 15 40
M  V30 45 1 17 41
M  V30 46 1 18 42
M  V30 47 1 20 43
M  V30 48 1 21 44
M  V30 49 1 22 45
M  V30 50 1 22 46
M  V30 51 1 24 47
M  V30 52 1 25 48
M  V30 53 1 27 49
M  V30 54 1 28 50
M  V30 55 1 29 51
M  V30 56 1 30 52
M  V30 END BOND
M  V30 END CTAB
M  END
>  <Dataset>  (665) 
ChEMBL_Kinases

>  <Ligand_Instance>  (665) 
nan

>  <PDB_ID>  (665) 
nan

>  <Standardized_SMILES>  (665) 
N[C@H](COc1cnc(Cl)c(-c2ccc3cnccc3c2)c1)Cc1c[nH]c2ccccc12

>  <Name>  (665) 
nan

>  <Pocket>  (665) 
nan

>  <ATP_Site>  (665) 
nan

>  <Peripheral>  (665) 
nan

>  <Num_H_Atoms_ProtBoundConf>  (665) 
nan

>  <Num_Resolved_Atoms>  (665) 
nan

>  <Num_Not_Resolved_Atoms>  (665) 
nan

$$$$
CHEMBL5083036
     RDKit          3D

  0  0  0  0  0  0  0  0  0  0999 V3000
M  V30 BEGIN CTAB
M  V30 COUNTS 54 58 0 0 0
M  V30 BEGIN ATOM
M  V30 1 O -0.313958 -3.663795 4.735720 0
M  V30 2 S 0.293667 -3.771057 3.343081 0
M  V30 3 O 0.625050 -5.217841 3.064999 0
M  V30 4 N 1.724393 -2.820682 3.312681 0
M  V30 5 C 1.464599 -1.445929 3.682139 0
M  V30 6 C 2.758417 -0.647862 3.643183 0
M  V30 7 N 3.368816 -0.633616 2.340758 0
M  V30 8 C 2.743087 -0.057255 1.213119 0
M  V30 9 N 3.106083 1.210909 1.031297 0
M  V30 10 C 2.619042 1.940173 0.010497 0
M  V30 11 C 1.720358 1.429916 -0.907278 0
M  V30 12 C 1.364022 0.114630 -0.691589 0
M  V30 13 C 0.419436 -0.555475 -1.578898 0
M  V30 14 C -0.824518 0.025074 -1.605253 0
M  V30 15 C -1.450033 1.167604 -0.963113 0
M  V30 16 C -1.497505 1.094639 0.418512 0
M  V30 17 C -2.043045 2.059545 1.228987 0
M  V30 18 C -2.576992 3.176141 0.583743 0
M  V30 19 C -2.553780 3.297946 -0.810345 0
M  V30 20 O -3.083515 4.406384 -1.456866 0
M  V30 21 C -1.988523 2.287683 -1.563296 0
M  V30 22 N -1.586358 -0.688979 -2.451227 0
M  V30 23 C -0.829018 -1.686890 -2.935178 0
M  V30 24 S -0.690914 -3.169783 -4.032159 0
M  V30 25 C 1.122838 -3.491057 -3.586384 0
M  V30 26 C 1.418964 -2.440308 -2.658065 0
M  V30 27 N 0.402829 -1.616895 -2.408898 0
M  V30 28 N 1.880005 -0.585037 0.351590 0
M  V30 29 C -0.924014 -3.238347 2.229730 0
M  V30 30 C -0.874312 -3.790405 0.964038 0
M  V30 31 C -1.746426 -3.507678 -0.064204 0
M  V30 32 C -2.759523 -2.586611 0.205766 0
M  V30 33 F -3.650396 -2.266357 -0.764974 0
M  V30 34 C -2.844389 -2.008446 1.465953 0
M  V30 35 C -1.933253 -2.333730 2.466172 0
M  V30 36 H 2.083532 -2.799065 2.318809 0
M  V30 37 H 1.091988 -1.394308 4.724154 0
M  V30 38 H 0.684363 -1.001259 3.026132 0
M  V30 39 H 3.440244 -1.103502 4.387713 0
M  V30 40 H 2.525919 0.405393 3.921804 0
M  V30 41 H 4.309179 -1.054880 2.182647 0
M  V30 42 H 2.915492 2.989075 -0.145015 0
M  V30 43 H 1.306983 1.982203 -1.739391 0
M  V30 44 H -1.093790 0.244565 0.979210 0
M  V30 45 H -2.073931 1.989568 2.306291 0
M  V30 46 H -3.015651 3.956753 1.193238 0
M  V30 47 H -4.091748 4.496077 -1.413439 0
M  V30 48 H -1.924591 2.293790 -2.649708 0
M  V30 49 H 1.797475 -4.321357 -3.971765 0
M  V30 50 H 2.437096 -2.509944 -2.322276 0
M  V30 51 H -0.109468 -4.516934 0.684938 0
M  V30 52 H -1.678774 -3.956692 -1.040863 0
M  V30 53 H -3.623846 -1.294698 1.685825 0
M  V30 54 H -1.950647 -1.914847 3.466154 0
M  V30 END ATOM
M  V30 BEGIN BOND
M  V30 1 2 1 2
M  V30 2 2 2 3
M  V30 3 1 2 4
M  V30 4 1 4 5
M  V30 5 1 5 6
M  V30 6 1 6 7
M  V30 7 1 7 8
M  V30 8 2 8 9
M  V30 9 1 9 10
M  V30 10 2 10 11
M  V30 11 1 11 12
M  V30 12 1 12 13
M  V30 13 2 13 14
M  V30 14 1 14 15
M  V30 15 2 15 16
M  V30 16 1 16 17
M  V30 17 2 17 18
M  V30 18 1 18 19
M  V30 19 1 19 20
M  V30 20 2 19 21
M  V30 21 1 14 22
M  V30 22 2 22 23
M  V30 23 1 23 24
M  V30 24 1 24 25
M  V30 25 2 25 26
M  V30 26 1 26 27
M  V30 27 2 12 28
M  V30 28 1 2 29
M  V30 29 2 29 30
M  V30 30 1 30 31
M  V30 31 2 31 32
M  V30 32 1 32 33
M  V30 33 1 32 34
M  V30 34 2 34 35
M  V30 35 1 28 8
M  V30 36 1 35 29
M  V30 37 1 27 13
M  V30 38 1 21 15
M  V30 39 1 27 23
M  V30 40 1 4 36
M  V30 41 1 5 37
M  V30 42 1 5 38
M  V30 43 1 6 39
M  V30 44 1 6 40
M  V30 45 1 7 41
M  V30 46 1 10 42
M  V30 47 1 11 43
M  V30 48 1 16 44
M  V30 49 1 17 45
M  V30 50 1 18 46
M  V30 51 1 20 47
M  V30 52 1 21 48
M  V30 53 1 25 49
M  V30 54 1 26 50
M  V30 55 1 30 51
M  V30 56 1 31 52
M  V30 57 1 34 53
M  V30 58 1 35 54
M  V30 END BOND
M  V30 END CTAB
M  END
>  <Dataset>  (666) 
ChEMBL_Kinases

>  <Ligand_Instance>  (666) 
nan

>  <PDB_ID>  (666) 
nan

>  <Standardized_SMILES>  (666) 
O=S(=O)(NCCNc1nccc(-c2c(-c3cccc(O)c3)nc3sccn23)n1)c1ccc(F)cc1

>  <Name>  (666) 
nan

>  <Pocket>  (666) 
nan

>  <ATP_Site>  (666) 
nan

>  <Peripheral>  (666) 
nan

>  <Num_H_Atoms_ProtBoundConf>  (666) 
nan

>  <Num_Resolved_Atoms>  (666) 
nan

>  <Num_Not_Resolved_Atoms>  (666) 
nan

$$$$
CHEMBL3651966
     RDKit          3D

  0  0  0  0  0  0  0  0  0  0999 V3000
M  V30 BEGIN CTAB
M  V30 COUNTS 55 58 0 0 0
M  V30 BEGIN ATOM
M  V30 1 C 0.726288 -2.342022 0.171645 0
M  V30 2 C 2.055417 -1.709113 0.531979 0 CFG=2
M  V30 3 C 2.182017 -1.467827 2.001518 0
M  V30 4 C 2.777839 -0.132917 2.356441 0 CFG=2
M  V30 5 N 2.706619 0.101242 3.767603 0
M  V30 6 C 1.900625 0.896862 1.622091 0
M  V30 7 C 2.394091 0.787673 0.204064 0 CFG=2
M  V30 8 C 1.975865 1.881031 -0.691021 0
M  V30 9 C 2.882907 2.886401 -1.081373 0
M  V30 10 C 2.690118 3.964305 -1.919449 0
M  V30 11 N 1.427190 4.048439 -2.434145 0
M  V30 12 C 0.506584 3.120693 -2.103294 0
M  V30 13 C 0.731828 2.054931 -1.261534 0
M  V30 14 N -0.295000 1.132588 -0.954979 0
M  V30 15 C -1.607724 1.045430 -1.417944 0
M  V30 16 O -2.045897 1.879419 -2.249752 0
M  V30 17 C -2.575397 0.031814 -1.014150 0
M  V30 18 C -3.861786 -0.012691 -1.500807 0
M  V30 19 C -4.793806 -0.960983 -1.133603 0
M  V30 20 C -4.444580 -1.938463 -0.223922 0
M  V30 21 F -5.334901 -2.885565 0.159294 0
M  V30 22 C -3.154458 -1.895405 0.265381 0
M  V30 23 C -2.817362 -2.941946 1.224685 0
M  V30 24 C -2.296281 -4.149532 0.845262 0
M  V30 25 F -2.107655 -4.324139 -0.484199 0
M  V30 26 C -1.982616 -5.130659 1.771012 0
M  V30 27 C -2.224302 -4.827023 3.111375 0
M  V30 28 C -2.754736 -3.599183 3.504158 0
M  V30 29 C -3.058534 -2.638066 2.558238 0
M  V30 30 F -3.574215 -1.444314 2.939444 0
M  V30 31 N -2.289659 -0.943377 -0.132019 0
M  V30 32 C 2.394368 -0.578718 -0.372955 0
M  V30 33 H 0.772688 -3.436591 0.033386 0
M  V30 34 H 0.400940 -1.936276 -0.828179 0
M  V30 35 H -0.033560 -2.183173 0.964940 0
M  V30 36 H 2.805968 -2.532785 0.323263 0
M  V30 37 H 1.155971 -1.489054 2.441681 0
M  V30 38 H 2.752199 -2.244845 2.550321 0
M  V30 39 H 3.812484 -0.042940 2.008014 0
M  V30 40 H 2.441876 1.070688 4.002286 0
M  V30 41 H 3.637486 -0.095826 4.209078 0
M  V30 42 H 2.136086 1.916109 1.979658 0
M  V30 43 H 0.888146 0.570718 1.815926 0
M  V30 44 H 3.520822 1.006849 0.358038 0
M  V30 45 H 3.916398 2.862428 -0.691651 0
M  V30 46 H 3.455120 4.675937 -2.151488 0
M  V30 47 H -0.415766 3.350257 -2.597703 0
M  V30 48 H -0.139686 0.363600 -0.273292 0
M  V30 49 H -4.168940 0.746844 -2.222191 0
M  V30 50 H -5.785001 -0.926249 -1.562824 0
M  V30 51 H -1.575217 -6.070652 1.455527 0
M  V30 52 H -1.963336 -5.624516 3.796395 0
M  V30 53 H -2.912055 -3.442756 4.563848 0
M  V30 54 H 1.708186 -0.604187 -1.250267 0
M  V30 55 H 3.401428 -0.783403 -0.876564 0
M  V30 END ATOM
M  V30 BEGIN BOND
M  V30 1 1 1 2
M  V30 2 1 2 3
M  V30 3 1 3 4
M  V30 4 1 4 5
M  V30 5 1 4 6
M  V30 6 1 6 7
M  V30 7 1 7 8
M  V30 8 2 8 9
M  V30 9 1 9 10
M  V30 10 2 10 11
M  V30 11 1 11 12
M  V30 12 2 12 13
M  V30 13 1 13 14
M  V30 14 1 14 15
M  V30 15 2 15 16
M  V30 16 1 15 17
M  V30 17 2 17 18
M  V30 18 1 18 19
M  V30 19 2 19 20
M  V30 20 1 20 21
M  V30 21 1 20 22
M  V30 22 1 22 23
M  V30 23 2 23 24
M  V30 24 1 24 25
M  V30 25 1 24 26
M  V30 26 2 26 27
M  V30 27 1 27 28
M  V30 28 2 28 29
M  V30 29 1 29 30
M  V30 30 2 22 31
M  V30 31 1 7 32
M  V30 32 1 32 2
M  V30 33 1 13 8
M  V30 34 1 31 17
M  V30 35 1 29 23
M  V30 36 1 1 33
M  V30 37 1 1 34
M  V30 38 1 1 35
M  V30 39 1 2 36 CFG=3
M  V30 40 1 3 37
M  V30 41 1 3 38
M  V30 42 1 4 39 CFG=3
M  V30 43 1 5 40
M  V30 44 1 5 41
M  V30 45 1 6 42
M  V30 46 1 6 43
M  V30 47 1 7 44 CFG=1
M  V30 48 1 9 45
M  V30 49 1 10 46
M  V30 50 1 12 47
M  V30 51 1 14 48
M  V30 52 1 18 49
M  V30 53 1 19 50
M  V30 54 1 26 51
M  V30 55 1 27 52
M  V30 56 1 28 53
M  V30 57 1 32 54
M  V30 58 1 32 55
M  V30 END BOND
M  V30 END CTAB
M  END
>  <Dataset>  (667) 
ChEMBL_Kinases

>  <Ligand_Instance>  (667) 
nan

>  <PDB_ID>  (667) 
nan

>  <Standardized_SMILES>  (667) 
C[C@@H]1C[C@H](N)C[C@H](c2ccncc2NC(=O)c2ccc(F)c(-c3c(F)cccc3F)n2)C1

>  <Name>  (667) 
LGH-447

>  <Pocket>  (667) 
nan

>  <ATP_Site>  (667) 
nan

>  <Peripheral>  (667) 
nan

>  <Num_H_Atoms_ProtBoundConf>  (667) 
nan

>  <Num_Resolved_Atoms>  (667) 
nan

>  <Num_Not_Resolved_Atoms>  (667) 
nan

$$$$
CHEMBL3883414
     RDKit          3D

  0  0  0  0  0  0  0  0  0  0999 V3000
M  V30 BEGIN CTAB
M  V30 COUNTS 28 31 0 0 0
M  V30 BEGIN ATOM
M  V30 1 N -0.526373 -1.991444 4.640870 0
M  V30 2 C -0.076470 -1.839619 3.586193 0
M  V30 3 C 0.495259 -1.670529 2.288622 0
M  V30 4 C 1.549074 -2.509286 1.955685 0
M  V30 5 C 2.136998 -2.387185 0.713992 0
M  V30 6 C 3.199973 -3.208648 0.334172 0
M  V30 7 N 3.820455 -3.145170 -0.859259 0
M  V30 8 C 3.393309 -2.231062 -1.751782 0
M  V30 9 C 2.337801 -1.366590 -1.461929 0
M  V30 10 C 1.725573 -1.461834 -0.226009 0
M  V30 11 C 0.673722 -0.633082 0.121416 0
M  V30 12 N 0.024637 0.359620 -0.525498 0
M  V30 13 C -0.949648 0.874641 0.248400 0
M  V30 14 C -1.871725 1.901264 0.015888 0
M  V30 15 C -2.778719 2.237842 0.992033 0
M  V30 16 C -2.767857 1.555871 2.193583 0
M  V30 17 F -3.706506 1.966991 3.091422 0
M  V30 18 C -1.857573 0.545017 2.418395 0
M  V30 19 C -0.943726 0.197980 1.449046 0
M  V30 20 C 0.064096 -0.737855 1.369867 0
M  V30 21 H 1.913192 -3.250634 2.648722 0
M  V30 22 H 3.511744 -3.927966 1.078892 0
M  V30 23 H 3.788139 -2.058448 -2.747817 0
M  V30 24 H 1.937676 -0.614633 -2.111299 0
M  V30 25 H 0.297083 0.640575 -1.502441 0
M  V30 26 H -1.826783 2.399495 -0.953957 0
M  V30 27 H -3.452308 3.041352 0.726354 0
M  V30 28 H -1.905439 0.060354 3.369049 0
M  V30 END ATOM
M  V30 BEGIN BOND
M  V30 1 3 1 2
M  V30 2 1 2 3
M  V30 3 2 3 4
M  V30 4 1 4 5
M  V30 5 2 5 6
M  V30 6 1 6 7
M  V30 7 2 7 8
M  V30 8 1 8 9
M  V30 9 2 9 10
M  V30 10 1 10 11
M  V30 11 1 11 12
M  V30 12 1 12 13
M  V30 13 2 13 14
M  V30 14 1 14 15
M  V30 15 2 15 16
M  V30 16 1 16 17
M  V30 17 1 16 18
M  V30 18 2 18 19
M  V30 19 1 19 20
M  V30 20 1 20 3
M  V30 21 1 10 5
M  V30 22 2 20 11
M  V30 23 1 19 13
M  V30 24 1 4 21
M  V30 25 1 6 22
M  V30 26 1 8 23
M  V30 27 1 9 24
M  V30 28 1 12 25
M  V30 29 1 14 26
M  V30 30 1 15 27
M  V30 31 1 18 28
M  V30 END BOND
M  V30 END CTAB
M  END
>  <Dataset>  (668) 
ChEMBL_Kinases

>  <Ligand_Instance>  (668) 
nan

>  <PDB_ID>  (668) 
nan

>  <Standardized_SMILES>  (668) 
N#Cc1cc2cnccc2c2[nH]c3ccc(F)cc3c12

>  <Name>  (668) 
nan

>  <Pocket>  (668) 
nan

>  <ATP_Site>  (668) 
nan

>  <Peripheral>  (668) 
nan

>  <Num_H_Atoms_ProtBoundConf>  (668) 
nan

>  <Num_Resolved_Atoms>  (668) 
nan

>  <Num_Not_Resolved_Atoms>  (668) 
nan

$$$$
CHEMBL377383
     RDKit          3D

  0  0  0  0  0  0  0  0  0  0999 V3000
M  V30 BEGIN CTAB
M  V30 COUNTS 43 44 0 0 0
M  V30 BEGIN ATOM
M  V30 1 C -1.057651 -4.476403 0.016277 0
M  V30 2 C 0.016258 -5.507320 0.211008 0
M  V30 3 O 0.663382 -5.371653 1.463934 0
M  V30 4 C 1.336329 -4.243126 1.852546 0
M  V30 5 N 1.478234 -3.122877 1.118196 0
M  V30 6 C 2.165045 -2.082781 1.618364 0
M  V30 7 C 2.325251 -0.849080 0.820460 0
M  V30 8 O 2.969367 0.118805 1.300911 0
M  V30 9 N 1.746941 -0.780398 -0.476989 0
M  V30 10 C 1.811225 0.352277 -1.383321 0
M  V30 11 C 0.884982 1.439178 -0.984887 0
M  V30 12 C 1.181311 2.493581 -0.145318 0
M  V30 13 C 0.264010 3.470697 0.183529 0
M  V30 14 C -1.011888 3.359935 -0.373956 0
M  V30 15 S -2.127429 4.645630 0.094403 0
M  V30 16 C -3.000074 4.155311 1.587132 0
M  V30 17 O -1.408648 5.941838 0.326933 0
M  V30 18 O -3.153256 4.790692 -0.990386 0
M  V30 19 C -1.357895 2.325592 -1.218603 0
M  V30 20 C -0.395319 1.374140 -1.512561 0
M  V30 21 C 2.725554 -2.152725 2.876491 0
M  V30 22 C 2.602094 -3.289491 3.665337 0
M  V30 23 N 3.187004 -3.346173 4.962760 0
M  V30 24 C 1.882584 -4.356407 3.120490 0
M  V30 25 Cl 1.752443 -5.764765 4.147009 0
M  V30 26 H -1.289940 -3.884354 0.909081 0
M  V30 27 H -0.814895 -3.805039 -0.830821 0
M  V30 28 H -2.016936 -4.996580 -0.254523 0
M  V30 29 H -0.372744 -6.525686 0.070879 0
M  V30 30 H 0.813613 -5.333900 -0.556158 0
M  V30 31 H 1.221822 -1.646052 -0.799776 0
M  V30 32 H 2.856805 0.713155 -1.342431 0
M  V30 33 H 1.623191 0.004782 -2.410101 0
M  V30 34 H 2.179395 2.529754 0.255010 0
M  V30 35 H 0.548408 4.264449 0.838905 0
M  V30 36 H -3.784401 3.423053 1.367550 0
M  V30 37 H -3.387394 5.040738 2.088742 0
M  V30 38 H -2.268898 3.627877 2.268116 0
M  V30 39 H -2.366033 2.308640 -1.610312 0
M  V30 40 H -0.738486 0.579813 -2.190255 0
M  V30 41 H 3.290945 -1.326463 3.315316 0
M  V30 42 H 2.509699 -3.240092 5.756491 0
M  V30 43 H 2.490961 -3.237954 5.733318 0
M  V30 END ATOM
M  V30 BEGIN BOND
M  V30 1 1 1 2
M  V30 2 1 2 3
M  V30 3 1 3 4
M  V30 4 2 4 5
M  V30 5 1 5 6
M  V30 6 1 6 7
M  V30 7 2 7 8
M  V30 8 1 7 9
M  V30 9 1 9 10
M  V30 10 1 10 11
M  V30 11 2 11 12
M  V30 12 1 12 13
M  V30 13 2 13 14
M  V30 14 1 14 15
M  V30 15 1 15 16
M  V30 16 2 15 17
M  V30 17 2 15 18
M  V30 18 1 14 19
M  V30 19 2 19 20
M  V30 20 2 6 21
M  V30 21 1 21 22
M  V30 22 1 22 23
M  V30 23 2 22 24
M  V30 24 1 24 25
M  V30 25 1 24 4
M  V30 26 1 20 11
M  V30 27 1 1 26
M  V30 28 1 1 27
M  V30 29 1 1 28
M  V30 30 1 2 29
M  V30 31 1 2 30
M  V30 32 1 9 31
M  V30 33 1 10 32
M  V30 34 1 10 33
M  V30 35 1 12 34
M  V30 36 1 13 35
M  V30 37 1 16 36
M  V30 38 1 16 37
M  V30 39 1 16 38
M  V30 40 1 19 39
M  V30 41 1 20 40
M  V30 42 1 21 41
M  V30 43 1 23 42
M  V30 44 1 23 43
M  V30 END BOND
M  V30 END CTAB
M  END
>  <Dataset>  (669) 
ChEMBL_Kinases

>  <Ligand_Instance>  (669) 
nan

>  <PDB_ID>  (669) 
nan

>  <Standardized_SMILES>  (669) 
CCOc1nc(C(=O)NCc2ccc(S(C)(=O)=O)cc2)cc(N)c1Cl

>  <Name>  (669) 
nan

>  <Pocket>  (669) 
nan

>  <ATP_Site>  (669) 
nan

>  <Peripheral>  (669) 
nan

>  <Num_H_Atoms_ProtBoundConf>  (669) 
nan

>  <Num_Resolved_Atoms>  (669) 
nan

>  <Num_Not_Resolved_Atoms>  (669) 
nan

$$$$
CHEMBL492118
     RDKit          3D

  0  0  0  0  0  0  0  0  0  0999 V3000
M  V30 BEGIN CTAB
M  V30 COUNTS 61 63 0 0 0
M  V30 BEGIN ATOM
M  V30 1 C 4.355240 2.333651 4.007274 0
M  V30 2 C 3.993505 1.473432 2.874681 0
M  V30 3 C 3.845452 -0.005111 2.914867 0
M  V30 4 C 3.784945 2.087585 1.725524 0
M  V30 5 C 3.885809 3.572293 1.484974 0
M  V30 6 C 2.804538 3.729476 0.439463 0
M  V30 7 C 2.862960 5.081319 -0.230213 0
M  V30 8 O 1.964757 5.159850 -1.290589 0
M  V30 9 C 1.478073 3.441234 1.054780 0
M  V30 10 O 0.440883 3.334081 0.096626 0
M  V30 11 C -0.864411 3.067945 0.482755 0
M  V30 12 O -1.146921 2.916871 1.700684 0
M  V30 13 C -1.783700 3.000490 -0.701475 0
M  V30 14 C -3.163472 2.712346 -0.214525 0
M  V30 15 O -3.322830 1.534803 0.482896 0
M  V30 16 C -3.123557 0.238557 0.108621 0
M  V30 17 C -3.425087 -0.586249 1.202045 0
M  V30 18 C -3.313873 -1.977999 1.118298 0
M  V30 19 C -2.901180 -2.570044 -0.054164 0
M  V30 20 C -2.764915 -3.994563 -0.209237 0
M  V30 21 C -2.636099 -5.189217 -0.354634 0
M  V30 22 C -2.469195 -6.607076 -0.547948 0
M  V30 23 C -3.123733 -7.231723 -1.589906 0
M  V30 24 C -3.053801 -8.579787 -1.890549 0
M  V30 25 C -2.251780 -9.331358 -1.055496 0
M  V30 26 C -2.165909 -10.790202 -1.367587 0
M  V30 27 C -1.567648 -8.761971 0.009274 0
M  V30 28 C -1.676144 -7.389989 0.266171 0
M  V30 29 C -2.604094 -1.764439 -1.130589 0
M  V30 30 C -2.714937 -0.394797 -1.044181 0
M  V30 31 O 3.117211 2.679531 -0.441170 0
M  V30 32 C 3.411612 1.579325 0.387284 0
M  V30 33 O 3.388322 0.344445 0.121996 0
M  V30 34 H 3.528359 3.072828 4.164913 0
M  V30 35 H 5.269902 2.932647 3.834041 0
M  V30 36 H 4.412723 1.732857 4.936868 0
M  V30 37 H 4.548798 -0.451358 2.212613 0
M  V30 38 H 2.798771 -0.226832 2.614506 0
M  V30 39 H 3.963817 -0.395302 3.945556 0
M  V30 40 H 3.742035 4.164856 2.386383 0
M  V30 41 H 4.869012 3.747032 0.982664 0
M  V30 42 H 3.879718 5.263472 -0.628785 0
M  V30 43 H 2.660751 5.854488 0.534916 0
M  V30 44 H 1.715642 4.283139 -1.660869 0
M  V30 45 H 1.240985 4.171905 1.857558 0
M  V30 46 H 1.556470 2.414549 1.504391 0
M  V30 47 H -1.770856 4.051721 -1.106465 0
M  V30 48 H -1.406806 2.379601 -1.514493 0
M  V30 49 H -3.436216 3.550246 0.480367 0
M  V30 50 H -3.905719 2.789634 -1.038911 0
M  V30 51 H -3.761592 -0.310045 2.196886 0
M  V30 52 H -3.525816 -2.673662 1.908664 0
M  V30 53 H -3.747930 -6.623295 -2.232909 0
M  V30 54 H -3.609979 -8.971166 -2.735316 0
M  V30 55 H -1.795239 -11.324434 -0.484244 0
M  V30 56 H -3.164145 -11.127757 -1.652771 0
M  V30 57 H -1.461702 -10.968008 -2.224117 0
M  V30 58 H -0.950909 -9.390770 0.636660 0
M  V30 59 H -1.153738 -6.929460 1.086744 0
M  V30 60 H -2.270620 -2.114779 -2.102038 0
M  V30 61 H -2.513552 0.324567 -1.823330 0
M  V30 END ATOM
M  V30 BEGIN BOND
M  V30 1 1 1 2
M  V30 2 1 2 3
M  V30 3 2 2 4 CFG=2
M  V30 4 1 4 5
M  V30 5 1 5 6
M  V30 6 1 6 7
M  V30 7 1 7 8
M  V30 8 1 6 9
M  V30 9 1 9 10
M  V30 10 1 10 11
M  V30 11 2 11 12
M  V30 12 1 11 13
M  V30 13 1 13 14
M  V30 14 1 14 15
M  V30 15 1 15 16
M  V30 16 2 16 17
M  V30 17 1 17 18
M  V30 18 2 18 19
M  V30 19 1 19 20
M  V30 20 3 20 21
M  V30 21 1 21 22
M  V30 22 2 22 23
M  V30 23 1 23 24
M  V30 24 2 24 25
M  V30 25 1 25 26
M  V30 26 1 25 27
M  V30 27 2 27 28
M  V30 28 1 19 29
M  V30 29 2 29 30
M  V30 30 1 6 31
M  V30 31 1 31 32
M  V30 32 2 32 33
M  V30 33 1 32 4
M  V30 34 1 30 16
M  V30 35 1 28 22
M  V30 36 1 1 34
M  V30 37 1 1 35
M  V30 38 1 1 36
M  V30 39 1 3 37
M  V30 40 1 3 38
M  V30 41 1 3 39
M  V30 42 1 5 40
M  V30 43 1 5 41
M  V30 44 1 7 42
M  V30 45 1 7 43
M  V30 46 1 8 44
M  V30 47 1 9 45
M  V30 48 1 9 46
M  V30 49 1 13 47
M  V30 50 1 13 48
M  V30 51 1 14 49
M  V30 52 1 14 50
M  V30 53 1 17 51
M  V30 54 1 18 52
M  V30 55 1 23 53
M  V30 56 1 24 54
M  V30 57 1 26 55
M  V30 58 1 26 56
M  V30 59 1 26 57
M  V30 60 1 27 58
M  V30 61 1 28 59
M  V30 62 1 29 60
M  V30 63 1 30 61
M  V30 END BOND
M  V30 END CTAB
M  END
>  <Dataset>  (670) 
ChEMBL_Kinases

>  <Ligand_Instance>  (670) 
nan

>  <PDB_ID>  (670) 
nan

>  <Standardized_SMILES>  (670) 
CC(C)=C1CC(CO)(COC(=O)CCOc2ccc(C#Cc3ccc(C)cc3)cc2)OC1=O

>  <Name>  (670) 
nan

>  <Pocket>  (670) 
nan

>  <ATP_Site>  (670) 
nan

>  <Peripheral>  (670) 
nan

>  <Num_H_Atoms_ProtBoundConf>  (670) 
nan

>  <Num_Resolved_Atoms>  (670) 
nan

>  <Num_Not_Resolved_Atoms>  (670) 
nan

$$$$
CHEMBL3338839
     RDKit          3D

  0  0  0  0  0  0  0  0  0  0999 V3000
M  V30 BEGIN CTAB
M  V30 COUNTS 42 46 0 0 0
M  V30 BEGIN ATOM
M  V30 1 C 2.176846 -4.828973 1.860254 0
M  V30 2 C 2.138896 -3.735523 1.010309 0
M  V30 3 C 1.285138 -2.713250 1.405457 0
M  V30 4 C 1.230709 -1.611171 0.572338 0
M  V30 5 N 1.968679 -1.449093 -0.634880 0
M  V30 6 C 1.932521 -2.287999 -1.833629 0
M  V30 7 C 1.295337 -1.398658 -2.897470 0
M  V30 8 N 2.193505 -0.318900 -3.164697 0
M  V30 9 C 3.268842 -0.155666 -2.239481 0
M  V30 10 C 2.912570 -0.328834 -0.797009 0
M  V30 11 N 0.405965 -0.599638 0.934206 0
M  V30 12 C -0.334698 -0.660504 2.061508 0
M  V30 13 C -1.204219 0.459994 2.398361 0
M  V30 14 C -1.973454 0.429972 3.541502 0
M  V30 15 C -2.789365 1.504202 3.838698 0
M  V30 16 C -2.797470 2.578803 2.961217 0
M  V30 17 N -3.481237 3.741654 2.992980 0
M  V30 18 N -3.167477 4.465144 1.938131 0
M  V30 19 C -2.276931 3.829198 1.169730 0
M  V30 20 C -2.026434 2.629307 1.798501 0
M  V30 21 C -1.230794 1.541929 1.541656 0
M  V30 22 N -0.247252 -1.754456 2.839882 0
M  V30 23 C 0.544391 -2.801158 2.555259 0
M  V30 24 C 0.621141 -3.915787 3.366324 0
M  V30 25 N 1.455727 -4.928956 2.991515 0
M  V30 26 H 2.827244 -5.636764 1.583245 0
M  V30 27 H 2.730850 -3.693483 0.114819 0
M  V30 28 H 2.959045 -2.516654 -2.115488 0
M  V30 29 H 1.255212 -3.152293 -1.713426 0
M  V30 30 H 1.065953 -2.027727 -3.778629 0
M  V30 31 H 0.328714 -1.064322 -2.447760 0
M  V30 32 H 2.614133 -0.511243 -4.114921 0
M  V30 33 H 4.149894 -0.791385 -2.459740 0
M  V30 34 H 3.645780 0.901778 -2.354049 0
M  V30 35 H 2.471525 0.627897 -0.439006 0
M  V30 36 H 3.843969 -0.540050 -0.239405 0
M  V30 37 H -1.963463 -0.407022 4.219609 0
M  V30 38 H -3.432402 1.578495 4.712091 0
M  V30 39 H -4.165491 4.095999 3.694511 0
M  V30 40 H -1.772120 4.061890 0.243256 0
M  V30 41 H -0.618082 1.564965 0.631801 0
M  V30 42 H 0.023196 -3.974265 4.284144 0
M  V30 END ATOM
M  V30 BEGIN BOND
M  V30 1 2 1 2
M  V30 2 1 2 3
M  V30 3 2 3 4
M  V30 4 1 4 5
M  V30 5 1 5 6
M  V30 6 1 6 7
M  V30 7 1 7 8
M  V30 8 1 8 9
M  V30 9 1 9 10
M  V30 10 1 4 11
M  V30 11 2 11 12
M  V30 12 1 12 13
M  V30 13 2 13 14
M  V30 14 1 14 15
M  V30 15 2 15 16
M  V30 16 1 16 17
M  V30 17 1 17 18
M  V30 18 2 18 19
M  V30 19 1 19 20
M  V30 20 2 20 21
M  V30 21 1 12 22
M  V30 22 2 22 23
M  V30 23 1 23 24
M  V30 24 2 24 25
M  V30 25 1 25 1
M  V30 26 1 23 3
M  V30 27 1 10 5
M  V30 28 1 21 13
M  V30 29 1 20 16
M  V30 30 1 1 26
M  V30 31 1 2 27
M  V30 32 1 6 28
M  V30 33 1 6 29
M  V30 34 1 7 30
M  V30 35 1 7 31
M  V30 36 1 8 32
M  V30 37 1 9 33
M  V30 38 1 9 34
M  V30 39 1 10 35
M  V30 40 1 10 36
M  V30 41 1 14 37
M  V30 42 1 15 38
M  V30 43 1 17 39
M  V30 44 1 19 40
M  V30 45 1 21 41
M  V30 46 1 24 42
M  V30 END BOND
M  V30 END CTAB
M  END
>  <Dataset>  (671) 
ChEMBL_Kinases

>  <Ligand_Instance>  (671) 
nan

>  <PDB_ID>  (671) 
nan

>  <Standardized_SMILES>  (671) 
c1cc2c(N3CCNCC3)nc(-c3ccc4[nH]ncc4c3)nc2cn1

>  <Name>  (671) 
nan

>  <Pocket>  (671) 
nan

>  <ATP_Site>  (671) 
nan

>  <Peripheral>  (671) 
nan

>  <Num_H_Atoms_ProtBoundConf>  (671) 
nan

>  <Num_Resolved_Atoms>  (671) 
nan

>  <Num_Not_Resolved_Atoms>  (671) 
nan

$$$$
CHEMBL359554
     RDKit          3D

  0  0  0  0  0  0  0  0  0  0999 V3000
M  V30 BEGIN CTAB
M  V30 COUNTS 34 37 0 0 0
M  V30 BEGIN ATOM
M  V30 1 C -0.997393 -3.583854 4.121253 0
M  V30 2 C 0.154877 -3.384057 3.376795 0
M  V30 3 C 0.039565 -2.994411 2.065515 0
M  V30 4 C -1.219509 -2.806820 1.505012 0
M  V30 5 N -1.329807 -2.401531 0.146482 0
M  V30 6 C -0.142957 -2.109387 -0.581885 0
M  V30 7 N 0.707329 -2.936299 -1.264114 0
M  V30 8 C 1.785308 -2.385049 -1.889212 0
M  V30 9 C 2.066691 -1.043013 -1.872187 0
M  V30 10 C 1.196018 -0.228480 -1.178409 0
M  V30 11 C 1.419480 1.231657 -1.114622 0
M  V30 12 C 2.428607 1.991442 -1.663184 0
M  V30 13 N 2.191328 3.274759 -1.329039 0
M  V30 14 N 1.073827 3.360401 -0.591742 0
M  V30 15 N 0.488750 4.429497 -0.062710 0
M  V30 16 C -0.655021 4.278541 0.657486 0
M  V30 17 C -1.245100 3.030277 0.865499 0
M  V30 18 C -0.571606 1.966231 0.280082 0
M  V30 19 C 0.590188 2.113359 -0.452989 0
M  V30 20 N 0.143073 -0.800719 -0.573372 0
M  V30 21 C -2.363349 -3.014829 2.276781 0
M  V30 22 C -2.272597 -3.409733 3.608975 0
M  V30 23 H -0.945219 -3.893369 5.161929 0
M  V30 24 H 1.133453 -3.533027 3.813594 0
M  V30 25 H 0.897548 -2.821521 1.426770 0
M  V30 26 H -2.281914 -2.326262 -0.291111 0
M  V30 27 H 2.405303 -3.106701 -2.402280 0
M  V30 28 H 2.940185 -0.645213 -2.383672 0
M  V30 29 H 3.247322 1.594816 -2.252312 0
M  V30 30 H -1.178186 5.131810 1.115027 0
M  V30 31 H -2.149861 2.918698 1.436933 0
M  V30 32 H -1.030683 1.002829 0.441549 0
M  V30 33 H -3.358822 -2.868438 1.835647 0
M  V30 34 H -3.168433 -3.575090 4.225752 0
M  V30 END ATOM
M  V30 BEGIN BOND
M  V30 1 2 1 2
M  V30 2 1 2 3
M  V30 3 2 3 4
M  V30 4 1 4 5
M  V30 5 1 5 6
M  V30 6 2 6 7
M  V30 7 1 7 8
M  V30 8 2 8 9
M  V30 9 1 9 10
M  V30 10 1 10 11
M  V30 11 1 11 12
M  V30 12 2 12 13
M  V30 13 1 13 14
M  V30 14 1 14 15
M  V30 15 2 15 16
M  V30 16 1 16 17
M  V30 17 2 17 18
M  V30 18 1 18 19
M  V30 19 2 10 20
M  V30 20 1 4 21
M  V30 21 2 21 22
M  V30 22 1 22 1
M  V30 23 1 20 6
M  V30 24 2 19 11
M  V30 25 1 19 14
M  V30 26 1 1 23
M  V30 27 1 2 24
M  V30 28 1 3 25
M  V30 29 1 5 26
M  V30 30 1 8 27
M  V30 31 1 9 28
M  V30 32 1 12 29
M  V30 33 1 16 30
M  V30 34 1 17 31
M  V30 35 1 18 32
M  V30 36 1 21 33
M  V30 37 1 22 34
M  V30 END BOND
M  V30 END CTAB
M  END
>  <Dataset>  (672) 
ChEMBL_Kinases

>  <Ligand_Instance>  (672) 
nan

>  <PDB_ID>  (672) 
nan

>  <Standardized_SMILES>  (672) 
c1ccc(Nc2nccc(-c3cnn4ncccc34)n2)cc1

>  <Name>  (672) 
nan

>  <Pocket>  (672) 
nan

>  <ATP_Site>  (672) 
nan

>  <Peripheral>  (672) 
nan

>  <Num_H_Atoms_ProtBoundConf>  (672) 
nan

>  <Num_Resolved_Atoms>  (672) 
nan

>  <Num_Not_Resolved_Atoms>  (672) 
nan

$$$$
CHEMBL4577258
     RDKit          3D

  0  0  0  0  0  0  0  0  0  0999 V3000
M  V30 BEGIN CTAB
M  V30 COUNTS 53 56 0 0 0
M  V30 BEGIN ATOM
M  V30 1 C -4.313300 -3.517238 2.874465 0
M  V30 2 N -3.649904 -4.277825 1.802698 0
M  V30 3 C -2.442733 -3.842207 1.195175 0
M  V30 4 N -1.938999 -2.654161 1.642410 0
M  V30 5 C -0.817039 -2.115251 1.142685 0
M  V30 6 N -0.264727 -0.868833 1.610840 0
M  V30 7 C 0.103302 0.123612 0.642629 0
M  V30 8 C -0.176217 -0.015337 -0.699076 0
M  V30 9 N 0.218474 0.941378 -1.600287 0
M  V30 10 C 0.889440 2.024815 -1.133155 0
M  V30 11 C 1.248653 2.958930 -2.176906 0
M  V30 12 N 1.526331 3.696314 -3.024033 0
M  V30 13 C 1.195643 2.210258 0.211352 0
M  V30 14 O 1.887176 3.393294 0.427465 0
M  V30 15 C 2.272012 3.916025 1.661183 0 CFG=2
M  V30 16 C 2.163006 5.392955 1.822904 0
M  V30 17 C 3.118316 6.163408 0.947845 0
M  V30 18 C 4.451772 5.439915 0.956228 0
M  V30 19 N 4.602760 4.588519 2.130072 0
M  V30 20 C 3.681707 3.471404 2.062067 0
M  V30 21 C 0.793176 1.235321 1.133551 0
M  V30 22 N -0.164207 -2.781447 0.155190 0
M  V30 23 C -0.585332 -3.954818 -0.346871 0
M  V30 24 C -1.740869 -4.492622 0.181423 0
M  V30 25 C -2.293529 -5.769627 -0.254686 0
M  V30 26 C -2.597087 -6.764358 0.676490 0
M  V30 27 N -3.099390 -7.820200 0.009921 0
M  V30 28 N -3.131696 -7.548061 -1.303795 0
M  V30 29 C -3.613769 -8.456499 -2.335691 0
M  V30 30 C -2.640741 -6.295722 -1.482781 0
M  V30 31 H -5.231202 -3.032279 2.539968 0
M  V30 32 H -3.583700 -2.797552 3.354359 0
M  V30 33 H -4.574772 -4.230173 3.692532 0
M  V30 34 H -4.186068 -5.128985 1.577073 0
M  V30 35 H -0.149682 -0.736732 2.634577 0
M  V30 36 H -0.707514 -0.856084 -1.069557 0
M  V30 37 H 1.615364 3.429144 2.430829 0
M  V30 38 H 1.124676 5.701434 1.783494 0
M  V30 39 H 2.506967 5.609467 2.882034 0
M  V30 40 H 3.289770 7.161925 1.424396 0
M  V30 41 H 2.755326 6.356888 -0.068453 0
M  V30 42 H 5.304236 6.148344 0.904114 0
M  V30 43 H 4.545239 4.758615 0.093169 0
M  V30 44 H 5.561172 4.178276 2.090776 0
M  V30 45 H 4.086378 2.786661 1.264449 0
M  V30 46 H 3.703344 2.941712 3.029683 0
M  V30 47 H 1.062974 1.444474 2.149852 0
M  V30 48 H -0.057721 -4.490067 -1.146738 0
M  V30 49 H -2.478288 -6.772146 1.768594 0
M  V30 50 H -2.868152 -9.243110 -2.550878 0
M  V30 51 H -3.765969 -7.893693 -3.264680 0
M  V30 52 H -4.531146 -8.985134 -1.982501 0
M  V30 53 H -2.517393 -5.746907 -2.398800 0
M  V30 END ATOM
M  V30 BEGIN BOND
M  V30 1 1 1 2
M  V30 2 1 2 3
M  V30 3 2 3 4
M  V30 4 1 4 5
M  V30 5 1 5 6
M  V30 6 1 6 7
M  V30 7 2 7 8
M  V30 8 1 8 9
M  V30 9 2 9 10
M  V30 10 1 10 11
M  V30 11 3 11 12
M  V30 12 1 10 13
M  V30 13 1 13 14
M  V30 14 1 14 15
M  V30 15 1 15 16
M  V30 16 1 16 17
M  V30 17 1 17 18
M  V30 18 1 18 19
M  V30 19 1 19 20
M  V30 20 2 13 21
M  V30 21 2 5 22
M  V30 22 1 22 23
M  V30 23 2 23 24
M  V30 24 1 24 25
M  V30 25 1 25 26
M  V30 26 2 26 27
M  V30 27 1 27 28
M  V30 28 1 28 29
M  V30 29 1 28 30
M  V30 30 1 24 3
M  V30 31 2 30 25
M  V30 32 1 21 7
M  V30 33 1 20 15
M  V30 34 1 1 31
M  V30 35 1 1 32
M  V30 36 1 1 33
M  V30 37 1 2 34
M  V30 38 1 6 35
M  V30 39 1 8 36
M  V30 40 1 15 37 CFG=1
M  V30 41 1 16 38
M  V30 42 1 16 39
M  V30 43 1 17 40
M  V30 44 1 17 41
M  V30 45 1 18 42
M  V30 46 1 18 43
M  V30 47 1 19 44
M  V30 48 1 20 45
M  V30 49 1 20 46
M  V30 50 1 21 47
M  V30 51 1 23 48
M  V30 52 1 26 49
M  V30 53 1 29 50
M  V30 54 1 29 51
M  V30 55 1 29 52
M  V30 56 1 30 53
M  V30 END BOND
M  V30 END CTAB
M  END
>  <Dataset>  (673) 
ChEMBL_Kinases

>  <Ligand_Instance>  (673) 
nan

>  <PDB_ID>  (673) 
nan

>  <Standardized_SMILES>  (673) 
CNc1nc(Nc2cnc(C#N)c(O[C@@H]3CCCNC3)c2)ncc1-c1cnn(C)c1

>  <Name>  (673) 
nan

>  <Pocket>  (673) 
nan

>  <ATP_Site>  (673) 
nan

>  <Peripheral>  (673) 
nan

>  <Num_H_Atoms_ProtBoundConf>  (673) 
nan

>  <Num_Resolved_Atoms>  (673) 
nan

>  <Num_Not_Resolved_Atoms>  (673) 
nan

$$$$
CHEMBL2392360
     RDKit          3D

  0  0  0  0  0  0  0  0  0  0999 V3000
M  V30 BEGIN CTAB
M  V30 COUNTS 39 41 0 0 0
M  V30 BEGIN ATOM
M  V30 1 C 1.019551 -6.057079 2.926124 0
M  V30 2 O 1.089056 -4.668561 3.097731 0
M  V30 3 C 1.080430 -3.730689 2.085395 0
M  V30 4 C 1.003041 -3.978418 0.736413 0
M  V30 5 C 1.001824 -2.960699 -0.196500 0
M  V30 6 C 1.080341 -1.651500 0.227908 0
M  V30 7 C 1.087094 -0.500133 -0.666547 0
M  V30 8 C 1.016278 -0.586177 -2.041386 0
M  V30 9 C 1.020468 0.467719 -2.904384 0
M  V30 10 N 1.101594 1.703098 -2.354471 0
M  V30 11 C 1.173975 1.844580 -0.998655 0
M  V30 12 N 1.262466 3.089516 -0.316612 0
M  V30 13 C -0.048924 3.658933 0.021576 0
M  V30 14 C -0.785555 2.702578 0.907510 0
M  V30 15 C -0.712184 2.708527 2.289085 0
M  V30 16 C -1.417274 1.798759 3.050637 0
M  V30 17 C -2.227204 0.844744 2.426889 0
M  V30 18 Cl -3.136556 -0.325507 3.353153 0
M  V30 19 C -2.306191 0.831689 1.049225 0
M  V30 20 Cl -3.310225 -0.349414 0.246581 0
M  V30 21 C -1.592514 1.752470 0.279499 0
M  V30 22 N 1.165260 0.769576 -0.208306 0
M  V30 23 C 1.157912 -1.404719 1.581667 0
M  V30 24 C 1.160736 -2.407880 2.534258 0
M  V30 25 H 0.504017 -6.467917 3.818581 0
M  V30 26 H 0.414386 -6.301454 2.038082 0
M  V30 27 H 2.021442 -6.527175 2.825355 0
M  V30 28 H 0.943282 -5.022902 0.457289 0
M  V30 29 H 0.940881 -3.167838 -1.249348 0
M  V30 30 H 0.951023 -1.563444 -2.500036 0
M  V30 31 H 0.963713 0.362859 -3.971008 0
M  V30 32 H 2.156230 3.590860 -0.058501 0
M  V30 33 H 0.057706 4.613241 0.568414 0
M  V30 34 H -0.598549 3.792251 -0.911427 0
M  V30 35 H -0.087231 3.445652 2.755438 0
M  V30 36 H -1.358990 1.804730 4.128483 0
M  V30 37 H -1.650001 1.747769 -0.801378 0
M  V30 38 H 1.220692 -0.374857 1.935970 0
M  V30 39 H 1.224964 -2.123991 3.583409 0
M  V30 END ATOM
M  V30 BEGIN BOND
M  V30 1 1 1 2
M  V30 2 1 2 3
M  V30 3 2 3 4
M  V30 4 1 4 5
M  V30 5 2 5 6
M  V30 6 1 6 7
M  V30 7 2 7 8
M  V30 8 1 8 9
M  V30 9 2 9 10
M  V30 10 1 10 11
M  V30 11 1 11 12
M  V30 12 1 12 13
M  V30 13 1 13 14
M  V30 14 2 14 15
M  V30 15 1 15 16
M  V30 16 2 16 17
M  V30 17 1 17 18
M  V30 18 1 17 19
M  V30 19 1 19 20
M  V30 20 2 19 21
M  V30 21 2 11 22
M  V30 22 1 6 23
M  V30 23 2 23 24
M  V30 24 1 24 3
M  V30 25 1 22 7
M  V30 26 1 21 14
M  V30 27 1 1 25
M  V30 28 1 1 26
M  V30 29 1 1 27
M  V30 30 1 4 28
M  V30 31 1 5 29
M  V30 32 1 8 30
M  V30 33 1 9 31
M  V30 34 1 12 32
M  V30 35 1 13 33
M  V30 36 1 13 34
M  V30 37 1 15 35
M  V30 38 1 16 36
M  V30 39 1 21 37
M  V30 40 1 23 38
M  V30 41 1 24 39
M  V30 END BOND
M  V30 END CTAB
M  END
>  <Dataset>  (674) 
ChEMBL_Kinases

>  <Ligand_Instance>  (674) 
nan

>  <PDB_ID>  (674) 
nan

>  <Standardized_SMILES>  (674) 
COc1ccc(-c2ccnc(NCc3ccc(Cl)c(Cl)c3)n2)cc1

>  <Name>  (674) 
nan

>  <Pocket>  (674) 
nan

>  <ATP_Site>  (674) 
nan

>  <Peripheral>  (674) 
nan

>  <Num_H_Atoms_ProtBoundConf>  (674) 
nan

>  <Num_Resolved_Atoms>  (674) 
nan

>  <Num_Not_Resolved_Atoms>  (674) 
nan

$$$$
CHEMBL4644882
     RDKit          3D

  0  0  0  0  0  0  0  0  0  0999 V3000
M  V30 BEGIN CTAB
M  V30 COUNTS 47 51 0 0 0
M  V30 BEGIN ATOM
M  V30 1 O -1.041800 2.141562 2.779718 0
M  V30 2 C -0.939993 1.089359 2.100889 0
M  V30 3 C 0.371024 0.871363 1.532664 0
M  V30 4 C 1.306602 1.775918 1.775969 0
M  V30 5 C 2.690688 1.674871 1.255359 0
M  V30 6 N 3.699030 2.518106 1.433300 0
M  V30 7 C 4.778351 2.043939 0.789650 0
M  V30 8 C 6.064566 2.514939 0.650509 0
M  V30 9 C 7.056510 1.871091 -0.066873 0
M  V30 10 F 8.310607 2.403627 -0.158201 0
M  V30 11 C 6.732938 0.674983 -0.684691 0
M  V30 12 C 5.445405 0.208666 -0.542390 0
M  V30 13 C 4.459522 0.853528 0.173598 0
M  V30 14 N 3.167218 0.655536 0.480309 0
M  V30 15 C -2.138332 0.297817 2.013028 0
M  V30 16 C -2.310704 -0.886823 1.342114 0
M  V30 17 C -1.230926 -1.504600 0.598649 0
M  V30 18 C -1.097259 -1.165912 -0.731526 0
M  V30 19 C -0.043875 -1.826276 -1.370212 0
M  V30 20 C 0.787430 -2.724133 -0.760954 0
M  V30 21 C 0.574147 -3.002576 0.587139 0
M  V30 22 C -0.436292 -2.408284 1.315409 0
M  V30 23 C -3.485549 -1.604657 1.293691 0
M  V30 24 C -3.631050 -2.784633 0.615753 0
M  V30 25 C -4.819117 -3.490369 0.578467 0
M  V30 26 Cl -4.890763 -4.986644 -0.319329 0
M  V30 27 C -5.899187 -2.973823 1.257444 0
M  V30 28 C -5.794451 -1.778428 1.958468 0
M  V30 29 C -4.585058 -1.111152 1.965065 0
M  V30 30 N -4.448223 0.032542 2.622637 0
M  V30 31 C -3.297432 0.691742 2.642981 0
M  V30 32 O -3.315140 1.778959 3.317376 0
M  V30 33 H 0.809615 0.104256 0.918444 0
M  V30 34 H 1.143392 2.682042 2.384625 0
M  V30 35 H 6.335864 3.459676 1.133394 0
M  V30 36 H 7.464497 0.125936 -1.258915 0
M  V30 37 H 5.175046 -0.735333 -1.024940 0
M  V30 38 H 2.661548 -0.194269 0.132434 0
M  V30 39 H -1.758339 -0.460760 -1.189625 0
M  V30 40 H 0.115360 -1.599573 -2.433283 0
M  V30 41 H 1.570042 -3.176292 -1.349285 0
M  V30 42 H 1.234513 -3.712504 1.061870 0
M  V30 43 H -0.624688 -2.603490 2.355921 0
M  V30 44 H -2.784567 -3.189442 0.082841 0
M  V30 45 H -6.846161 -3.505783 1.246604 0
M  V30 46 H -6.647074 -1.376855 2.490830 0
M  V30 47 H -5.297847 0.387881 3.124674 0
M  V30 END ATOM
M  V30 BEGIN BOND
M  V30 1 2 1 2
M  V30 2 1 2 3
M  V30 3 2 3 4
M  V30 4 1 4 5
M  V30 5 2 5 6
M  V30 6 1 6 7
M  V30 7 2 7 8
M  V30 8 1 8 9
M  V30 9 1 9 10
M  V30 10 2 9 11
M  V30 11 1 11 12
M  V30 12 2 12 13
M  V30 13 1 13 14
M  V30 14 1 2 15
M  V30 15 2 15 16
M  V30 16 1 16 17
M  V30 17 2 17 18
M  V30 18 1 18 19
M  V30 19 2 19 20
M  V30 20 1 20 21
M  V30 21 2 21 22
M  V30 22 1 16 23
M  V30 23 2 23 24
M  V30 24 1 24 25
M  V30 25 1 25 26
M  V30 26 2 25 27
M  V30 27 1 27 28
M  V30 28 2 28 29
M  V30 29 1 29 30
M  V30 30 1 30 31
M  V30 31 2 31 32
M  V30 32 1 14 5
M  V30 33 1 31 15
M  V30 34 1 13 7
M  V30 35 1 22 17
M  V30 36 1 29 23
M  V30 37 1 3 33
M  V30 38 1 4 34
M  V30 39 1 8 35
M  V30 40 1 11 36
M  V30 41 1 12 37
M  V30 42 1 14 38
M  V30 43 1 18 39
M  V30 44 1 19 40
M  V30 45 1 20 41
M  V30 46 1 21 42
M  V30 47 1 22 43
M  V30 48 1 24 44
M  V30 49 1 27 45
M  V30 50 1 28 46
M  V30 51 1 30 47
M  V30 END BOND
M  V30 END CTAB
M  END
>  <Dataset>  (675) 
ChEMBL_Kinases

>  <Ligand_Instance>  (675) 
nan

>  <PDB_ID>  (675) 
nan

>  <Standardized_SMILES>  (675) 
O=C(/C=C/c1nc2cc(F)ccc2[nH]1)c1c(-c2ccccc2)c2cc(Cl)ccc2[nH]c1=O

>  <Name>  (675) 
nan

>  <Pocket>  (675) 
nan

>  <ATP_Site>  (675) 
nan

>  <Peripheral>  (675) 
nan

>  <Num_H_Atoms_ProtBoundConf>  (675) 
nan

>  <Num_Resolved_Atoms>  (675) 
nan

>  <Num_Not_Resolved_Atoms>  (675) 
nan

$$$$
CHEMBL3663760
     RDKit          3D

  0  0  0  0  0  0  0  0  0  0999 V3000
M  V30 BEGIN CTAB
M  V30 COUNTS 44 47 0 0 0
M  V30 BEGIN ATOM
M  V30 1 C 0.416240 -4.672962 -0.881311 0
M  V30 2 O 0.381776 -3.306025 -1.159614 0
M  V30 3 C 1.511141 -2.650061 -1.659407 0
M  V30 4 C 2.705054 -3.301521 -1.903115 0
M  V30 5 C 3.808773 -2.639066 -2.396086 0
M  V30 6 F 4.957685 -3.329686 -2.617113 0
M  V30 7 C 3.740075 -1.284619 -2.660800 0
M  V30 8 C 2.560658 -0.589281 -2.431013 0
M  V30 9 C 1.471328 -1.278100 -1.937059 0
M  V30 10 C 0.191625 -0.613644 -1.668708 0
M  V30 11 C -0.797636 -0.518783 -2.645052 0
M  V30 12 C -1.982582 0.132802 -2.293975 0
M  V30 13 N -2.189404 0.658794 -1.067425 0
M  V30 14 C -1.248297 0.582928 -0.097978 0
M  V30 15 N -1.157737 0.994445 1.179018 0
M  V30 16 C 0.000916 0.678011 1.742550 0
M  V30 17 C 0.512545 0.932202 3.114087 0
M  V30 18 C -0.172284 0.065229 4.147481 0
M  V30 19 C -1.576102 0.519585 4.344129 0
M  V30 20 N -1.737415 1.941357 4.352445 0
M  V30 21 C -0.473142 2.573808 4.720661 0
M  V30 22 C 0.451123 2.350632 3.545671 0
M  V30 23 C 0.682229 0.013006 0.719827 0
M  V30 24 C -0.074380 -0.057719 -0.432007 0
M  V30 25 H 1.027586 -4.859617 0.023572 0
M  V30 26 H -0.590096 -5.070510 -0.695880 0
M  V30 27 H 0.842620 -5.248811 -1.741260 0
M  V30 28 H 2.754808 -4.351577 -1.696764 0
M  V30 29 H 4.631562 -0.773622 -3.053867 0
M  V30 30 H 2.482655 0.466232 -2.629474 0
M  V30 31 H -0.629237 -0.940648 -3.625632 0
M  V30 32 H -2.780830 0.225107 -3.037254 0
M  V30 33 H -1.940254 1.495136 1.603003 0
M  V30 34 H 1.594887 0.585996 3.148336 0
M  V30 35 H 0.416838 0.002434 5.078518 0
M  V30 36 H -0.217065 -0.964172 3.683389 0
M  V30 37 H -2.020661 0.064831 5.273713 0
M  V30 38 H -2.196478 0.096987 3.517457 0
M  V30 39 H -2.502043 2.200999 5.018678 0
M  V30 40 H -0.081466 2.165731 5.673809 0
M  V30 41 H -0.636738 3.661152 4.857677 0
M  V30 42 H 0.108614 3.050987 2.758576 0
M  V30 43 H 1.457022 2.715721 3.865045 0
M  V30 44 H 1.693972 -0.394507 0.840739 0
M  V30 END ATOM
M  V30 BEGIN BOND
M  V30 1 1 1 2
M  V30 2 1 2 3
M  V30 3 2 3 4
M  V30 4 1 4 5
M  V30 5 1 5 6
M  V30 6 2 5 7
M  V30 7 1 7 8
M  V30 8 2 8 9
M  V30 9 1 9 10
M  V30 10 2 10 11
M  V30 11 1 11 12
M  V30 12 2 12 13
M  V30 13 1 13 14
M  V30 14 1 14 15
M  V30 15 1 15 16
M  V30 16 1 16 17
M  V30 17 1 17 18
M  V30 18 1 18 19
M  V30 19 1 19 20
M  V30 20 1 20 21
M  V30 21 1 21 22
M  V30 22 2 16 23
M  V30 23 1 23 24
M  V30 24 1 9 3
M  V30 25 1 24 10
M  V30 26 2 24 14
M  V30 27 1 22 17
M  V30 28 1 1 25
M  V30 29 1 1 26
M  V30 30 1 1 27
M  V30 31 1 4 28
M  V30 32 1 7 29
M  V30 33 1 8 30
M  V30 34 1 11 31
M  V30 35 1 12 32
M  V30 36 1 15 33
M  V30 37 1 17 34
M  V30 38 1 18 35
M  V30 39 1 18 36
M  V30 40 1 19 37
M  V30 41 1 19 38
M  V30 42 1 20 39
M  V30 43 1 21 40
M  V30 44 1 21 41
M  V30 45 1 22 42
M  V30 46 1 22 43
M  V30 47 1 23 44
M  V30 END BOND
M  V30 END CTAB
M  END
>  <Dataset>  (676) 
ChEMBL_Kinases

>  <Ligand_Instance>  (676) 
nan

>  <PDB_ID>  (676) 
nan

>  <Standardized_SMILES>  (676) 
COc1cc(F)ccc1-c1ccnc2[nH]c(C3CCNCC3)cc12

>  <Name>  (676) 
nan

>  <Pocket>  (676) 
nan

>  <ATP_Site>  (676) 
nan

>  <Peripheral>  (676) 
nan

>  <Num_H_Atoms_ProtBoundConf>  (676) 
nan

>  <Num_Resolved_Atoms>  (676) 
nan

>  <Num_Not_Resolved_Atoms>  (676) 
nan

$$$$
CHEMBL4871593
     RDKit          3D

  0  0  0  0  0  0  0  0  0  0999 V3000
M  V30 BEGIN CTAB
M  V30 COUNTS 73 78 0 0 0
M  V30 BEGIN ATOM
M  V30 1 C 6.655860 -0.625667 2.030765 0
M  V30 2 C 5.901116 -1.696495 1.755281 0
M  V30 3 C 4.565865 -2.069979 2.267168 0
M  V30 4 N 3.575563 -2.197911 1.223397 0
M  V30 5 C 3.390977 -3.409063 0.610326 0
M  V30 6 O 3.993017 -4.503181 0.828932 0
M  V30 7 C 2.403509 -3.229162 -0.317576 0
M  V30 8 C 1.796834 -4.059563 -1.211164 0
M  V30 9 N 0.835609 -3.536362 -1.983903 0
M  V30 10 C 0.408747 -2.272549 -1.966771 0
M  V30 11 N -0.619089 -2.138638 -2.927571 0
M  V30 12 C -1.975773 -2.069578 -2.493543 0
M  V30 13 C -2.265588 -1.780555 -1.156066 0
M  V30 14 C -3.542612 -1.715851 -0.632182 0
M  V30 15 C -4.586531 -1.956217 -1.503235 0
M  V30 16 N -5.944116 -1.925156 -1.089544 0
M  V30 17 C -7.124676 -2.445939 -1.801517 0
M  V30 18 C -7.832641 -3.389369 -0.823278 0
M  V30 19 N -6.969637 -3.635505 0.260488 0
M  V30 20 C -6.249709 -4.832289 0.330517 0
M  V30 21 C -6.588824 -2.568541 1.092519 0
M  V30 22 C -6.412471 -1.345479 0.177476 0
M  V30 23 C -4.352628 -2.244683 -2.830829 0
M  V30 24 C -3.066217 -2.305678 -3.342011 0
M  V30 25 N 1.018492 -1.472124 -1.080498 0
M  V30 26 C 1.994076 -1.933676 -0.271385 0
M  V30 27 N 2.722938 -1.330368 0.673900 0
M  V30 28 C 2.668894 0.013555 1.119404 0
M  V30 29 C 1.501235 0.311299 1.839980 0
M  V30 30 C 1.223329 1.564617 2.393410 0
M  V30 31 C 2.173081 2.578427 2.215252 0
M  V30 32 C 3.323208 2.254290 1.496893 0
M  V30 33 N 3.544241 1.023904 0.979095 0
M  V30 34 C 4.205839 3.446967 1.418853 0
M  V30 35 O 5.319768 3.228796 2.214531 0
M  V30 36 C 4.688016 3.679311 0.005631 0
M  V30 37 C 3.538293 3.904404 -0.939749 0
M  V30 38 C 3.384301 4.579544 1.958856 0
M  V30 39 C 2.199820 3.994806 2.667640 0
M  V30 40 H 7.638342 -0.462009 1.581568 0
M  V30 41 H 6.128302 0.003435 2.743012 0
M  V30 42 H 6.317853 -2.413675 1.051859 0
M  V30 43 H 4.261028 -1.264482 2.993428 0
M  V30 44 H 4.664021 -3.028423 2.837064 0
M  V30 45 H 2.145501 -5.096649 -1.222271 0
M  V30 46 H -0.418717 -2.094157 -3.950591 0
M  V30 47 H -1.430801 -1.591405 -0.474909 0
M  V30 48 H -3.726739 -1.484434 0.414991 0
M  V30 49 H -6.867222 -2.954783 -2.730199 0
M  V30 50 H -7.789417 -1.551897 -1.962918 0
M  V30 51 H -8.047649 -4.379614 -1.312966 0
M  V30 52 H -8.823096 -2.975508 -0.556198 0
M  V30 53 H -6.808496 -5.614311 -0.246100 0
M  V30 54 H -6.025799 -5.206022 1.348787 0
M  V30 55 H -5.273766 -4.708985 -0.183286 0
M  V30 56 H -5.589289 -2.750266 1.534234 0
M  V30 57 H -7.274559 -2.340138 1.922227 0
M  V30 58 H -5.603656 -0.688471 0.584615 0
M  V30 59 H -7.359675 -0.796858 0.077098 0
M  V30 60 H -5.076826 -2.448636 -3.601801 0
M  V30 61 H -2.795307 -2.522280 -4.363054 0
M  V30 62 H 0.725341 -0.437340 2.006255 0
M  V30 63 H 0.312654 1.713544 2.930874 0
M  V30 64 H 5.450084 2.249424 2.283003 0
M  V30 65 H 5.306662 4.616010 0.022463 0
M  V30 66 H 5.263045 2.809247 -0.320303 0
M  V30 67 H 3.800249 4.716343 -1.649654 0
M  V30 68 H 2.589216 4.201124 -0.426669 0
M  V30 69 H 3.358130 2.990250 -1.574781 0
M  V30 70 H 3.084652 5.325724 1.187260 0
M  V30 71 H 3.991043 5.158604 2.712031 0
M  V30 72 H 2.302754 4.067951 3.771594 0
M  V30 73 H 1.310753 4.562718 2.346976 0
M  V30 END ATOM
M  V30 BEGIN BOND
M  V30 1 2 1 2
M  V30 2 1 2 3
M  V30 3 1 3 4
M  V30 4 1 4 5
M  V30 5 2 5 6
M  V30 6 1 5 7
M  V30 7 2 7 8
M  V30 8 1 8 9
M  V30 9 2 9 10
M  V30 10 1 10 11
M  V30 11 1 11 12
M  V30 12 2 12 13
M  V30 13 1 13 14
M  V30 14 2 14 15
M  V30 15 1 15 16
M  V30 16 1 16 17
M  V30 17 1 17 18
M  V30 18 1 18 19
M  V30 19 1 19 20
M  V30 20 1 19 21
M  V30 21 1 21 22
M  V30 22 1 15 23
M  V30 23 2 23 24
M  V30 24 1 10 25
M  V30 25 2 25 26
M  V30 26 1 26 27
M  V30 27 1 27 28
M  V30 28 2 28 29
M  V30 29 1 29 30
M  V30 30 2 30 31
M  V30 31 1 31 32
M  V30 32 2 32 33
M  V30 33 1 32 34
M  V30 34 1 34 35
M  V30 35 1 34 36
M  V30 36 1 36 37
M  V30 37 1 34 38
M  V30 38 1 38 39
M  V30 39 1 27 4
M  V30 40 1 33 28
M  V30 41 1 26 7
M  V30 42 1 39 31
M  V30 43 1 24 12
M  V30 44 1 22 16
M  V30 45 1 1 40
M  V30 46 1 1 41
M  V30 47 1 2 42
M  V30 48 1 3 43
M  V30 49 1 3 44
M  V30 50 1 8 45
M  V30 51 1 11 46
M  V30 52 1 13 47
M  V30 53 1 14 48
M  V30 54 1 17 49
M  V30 55 1 17 50
M  V30 56 1 18 51
M  V30 57 1 18 52
M  V30 58 1 20 53
M  V30 59 1 20 54
M  V30 60 1 20 55
M  V30 61 1 21 56
M  V30 62 1 21 57
M  V30 63 1 22 58
M  V30 64 1 22 59
M  V30 65 1 23 60
M  V30 66 1 24 61
M  V30 67 1 29 62
M  V30 68 1 30 63
M  V30 69 1 35 64
M  V30 70 1 36 65
M  V30 71 1 36 66
M  V30 72 1 37 67
M  V30 73 1 37 68
M  V30 74 1 37 69
M  V30 75 1 38 70
M  V30 76 1 38 71
M  V30 77 1 39 72
M  V30 78 1 39 73
M  V30 END BOND
M  V30 END CTAB
M  END
>  <Dataset>  (677) 
ChEMBL_Kinases

>  <Ligand_Instance>  (677) 
nan

>  <PDB_ID>  (677) 
nan

>  <Standardized_SMILES>  (677) 
C=CCn1c(=O)c2cnc(Nc3ccc(N4CCN(C)CC4)cc3)nc2n1-c1ccc2c(n1)C(O)(CC)CC2

>  <Name>  (677) 
nan

>  <Pocket>  (677) 
nan

>  <ATP_Site>  (677) 
nan

>  <Peripheral>  (677) 
nan

>  <Num_H_Atoms_ProtBoundConf>  (677) 
nan

>  <Num_Resolved_Atoms>  (677) 
nan

>  <Num_Not_Resolved_Atoms>  (677) 
nan

$$$$
CHEMBL49354
     RDKit          3D

  0  0  0  0  0  0  0  0  0  0999 V3000
M  V30 BEGIN CTAB
M  V30 COUNTS 66 69 0 0 0
M  V30 BEGIN ATOM
M  V30 1 O 5.508226 1.643608 1.079841 0
M  V30 2 C 4.530262 1.389264 1.844610 0
M  V30 3 N 3.357835 0.858176 1.242859 0
M  V30 4 C 3.227651 0.599259 -0.165983 0
M  V30 5 C 2.875549 -0.836053 -0.472345 0
M  V30 6 N 2.309962 -0.984091 -1.788498 0
M  V30 7 C 3.056954 -0.267444 -2.801240 0
M  V30 8 C 2.311680 0.978942 -3.154108 0
M  V30 9 C 2.422273 2.008241 -2.071081 0
M  V30 10 C 2.093586 1.444758 -0.707118 0
M  V30 11 O 0.915511 0.677904 -0.718253 0
M  V30 12 C -0.236369 0.962108 -0.027965 0
M  V30 13 O -0.175209 1.998121 0.646972 0
M  V30 14 C -1.437289 0.140297 -0.064853 0
M  V30 15 C -2.522383 0.542994 0.676141 0
M  V30 16 C -3.717642 -0.189708 0.701888 0
M  V30 17 O -4.733243 0.321544 1.484948 0
M  V30 18 C -3.827532 -1.351581 -0.030367 0
M  V30 19 C -5.055878 -2.068109 -0.081691 0
M  V30 20 O -5.975741 -1.214570 0.195141 0
M  V30 21 C -5.587059 -3.370868 -0.333484 0
M  V30 22 C -6.880563 -3.373404 -0.877296 0
M  V30 23 O -7.568464 -2.201400 -1.170378 0
M  V30 24 C -7.605180 -4.532079 -1.178968 0
M  V30 25 C -6.991932 -5.707630 -0.917852 0
M  V30 26 C -5.746033 -5.806347 -0.390683 0
M  V30 27 C -5.091661 -4.630839 -0.116034 0
M  V30 28 C -3.828454 -4.756392 0.601000 0
M  V30 29 O -2.955972 -4.096023 1.180833 0
M  V30 30 O -2.960132 -5.738497 0.992082 0
M  V30 31 C -2.682394 -1.696969 -0.761806 0
M  V30 32 O -2.636098 -2.845525 -1.566344 0
M  V30 33 C -1.491968 -1.011140 -0.816428 0
M  V30 34 C 4.694466 1.663002 3.268675 0
M  V30 35 C 5.907632 2.184141 3.666885 0
M  V30 36 C 6.147905 2.474354 5.014817 0
M  V30 37 C 5.141027 2.228551 5.952752 0
M  V30 38 O 5.366417 2.514095 7.310918 0
M  V30 39 C 3.927132 1.702676 5.523092 0
M  V30 40 C 3.686326 1.412673 4.177646 0
M  V30 41 H 2.548511 0.645962 1.867165 0
M  V30 42 H 4.164226 0.870907 -0.697621 0
M  V30 43 H 3.706598 -1.541024 -0.338303 0
M  V30 44 H 2.088057 -1.167675 0.257684 0
M  V30 45 H 2.326691 -2.021295 -2.021484 0
M  V30 46 H 4.111027 -0.077053 -2.513144 0
M  V30 47 H 3.087921 -0.911142 -3.721248 0
M  V30 48 H 1.266400 0.708704 -3.387580 0
M  V30 49 H 2.755379 1.423779 -4.074765 0
M  V30 50 H 1.770162 2.869702 -2.248698 0
M  V30 51 H 3.478321 2.327936 -2.036139 0
M  V30 52 H 1.906719 2.313118 -0.038481 0
M  V30 53 H -2.450269 1.457449 1.259361 0
M  V30 54 H -4.828697 0.227323 2.477765 0
M  V30 55 H -7.624735 -1.797446 -2.104192 0
M  V30 56 H -8.599046 -4.502207 -1.597634 0
M  V30 57 H -7.513813 -6.620228 -1.138282 0
M  V30 58 H -5.276915 -6.758229 -0.190184 0
M  V30 59 H -2.218451 -6.187982 0.470763 0
M  V30 60 H -3.239379 -2.874800 -2.373583 0
M  V30 61 H -0.625413 -1.295178 -1.383676 0
M  V30 62 H 6.745597 2.403937 2.991497 0
M  V30 63 H 7.089604 2.883043 5.349682 0
M  V30 64 H 5.223894 3.461567 7.640303 0
M  V30 65 H 3.156110 1.516942 6.253988 0
M  V30 66 H 2.735085 1.003549 3.865718 0
M  V30 END ATOM
M  V30 BEGIN BOND
M  V30 1 2 1 2
M  V30 2 1 2 3
M  V30 3 1 3 4
M  V30 4 1 4 5
M  V30 5 1 5 6
M  V30 6 1 6 7
M  V30 7 1 7 8
M  V30 8 1 8 9
M  V30 9 1 9 10
M  V30 10 1 10 11
M  V30 11 1 11 12
M  V30 12 2 12 13
M  V30 13 1 12 14
M  V30 14 2 14 15
M  V30 15 1 15 16
M  V30 16 1 16 17
M  V30 17 2 16 18
M  V30 18 1 18 19
M  V30 19 2 19 20
M  V30 20 1 19 21
M  V30 21 2 21 22
M  V30 22 1 22 23
M  V30 23 1 22 24
M  V30 24 2 24 25
M  V30 25 1 25 26
M  V30 26 2 26 27
M  V30 27 1 27 28
M  V30 28 2 28 29
M  V30 29 1 28 30
M  V30 30 1 18 31
M  V30 31 1 31 32
M  V30 32 2 31 33
M  V30 33 1 2 34
M  V30 34 2 34 35
M  V30 35 1 35 36
M  V30 36 2 36 37
M  V30 37 1 37 38
M  V30 38 1 37 39
M  V30 39 2 39 40
M  V30 40 1 10 4
M  V30 41 1 33 14
M  V30 42 1 40 34
M  V30 43 1 27 21
M  V30 44 1 3 41
M  V30 45 1 4 42
M  V30 46 1 5 43
M  V30 47 1 5 44
M  V30 48 1 6 45
M  V30 49 1 7 46
M  V30 50 1 7 47
M  V30 51 1 8 48
M  V30 52 1 8 49
M  V30 53 1 9 50
M  V30 54 1 9 51
M  V30 55 1 10 52
M  V30 56 1 15 53
M  V30 57 1 17 54
M  V30 58 1 23 55
M  V30 59 1 24 56
M  V30 60 1 25 57
M  V30 61 1 26 58
M  V30 62 1 30 59
M  V30 63 1 32 60
M  V30 64 1 33 61
M  V30 65 1 35 62
M  V30 66 1 36 63
M  V30 67 1 38 64
M  V30 68 1 39 65
M  V30 69 1 40 66
M  V30 END BOND
M  V30 END CTAB
M  END
>  <Dataset>  (678) 
ChEMBL_Kinases

>  <Ligand_Instance>  (678) 
nan

>  <PDB_ID>  (678) 
nan

>  <Standardized_SMILES>  (678) 
O=C(NC1CNCCCC1OC(=O)c1cc(O)c(C(=O)c2c(O)cccc2C(=O)O)c(O)c1)c1ccc(O)cc1

>  <Name>  (678) 
nan

>  <Pocket>  (678) 
nan

>  <ATP_Site>  (678) 
nan

>  <Peripheral>  (678) 
nan

>  <Num_H_Atoms_ProtBoundConf>  (678) 
nan

>  <Num_Resolved_Atoms>  (678) 
nan

>  <Num_Not_Resolved_Atoms>  (678) 
nan

$$$$
CHEMBL298445
     RDKit          3D

  0  0  0  0  0  0  0  0  0  0999 V3000
M  V30 BEGIN CTAB
M  V30 COUNTS 35 37 0 0 0
M  V30 BEGIN ATOM
M  V30 1 C 0.865005 -4.832824 0.203746 0
M  V30 2 C 1.641253 -3.732319 0.841021 0
M  V30 3 N 2.465962 -4.024506 1.804706 0
M  V30 4 C 3.155658 -3.172536 2.412232 0
M  V30 5 N 4.120622 -3.313822 3.510470 0
M  V30 6 S 2.615760 -1.583844 1.528655 0
M  V30 7 C 1.508316 -2.433013 0.459059 0
M  V30 8 C 0.707183 -1.705856 -0.538238 0
M  V30 9 C -0.128861 -2.182890 -1.489643 0
M  V30 10 C -0.875831 -1.458083 -2.379236 0
M  V30 11 N -0.747502 -0.119479 -2.277027 0
M  V30 12 C 0.062144 0.438958 -1.360414 0
M  V30 13 N 0.258829 1.837880 -1.162648 0
M  V30 14 C -0.507829 2.488559 -0.130374 0
M  V30 15 C -0.444685 3.836355 0.152718 0
M  V30 16 C -1.185285 4.421940 1.156749 0
M  V30 17 C -2.034521 3.650675 1.927317 0
M  V30 18 C -2.143114 2.274990 1.687483 0
M  V30 19 N -3.003664 1.447491 2.458930 0 CHG=1 VAL=4
M  V30 20 O -3.680862 1.964909 3.380285 0
M  V30 21 O -3.053520 0.110054 2.158750 0 CHG=-1 VAL=1
M  V30 22 C -1.371612 1.763838 0.667875 0
M  V30 23 N 0.733191 -0.360865 -0.557008 0
M  V30 24 H 0.971310 -5.819706 0.708451 0
M  V30 25 H -0.249078 -4.646138 0.258921 0
M  V30 26 H 1.199754 -4.982749 -0.835873 0
M  V30 27 H 3.806607 -3.031194 4.466021 0
M  V30 28 H 5.051682 -3.701926 3.176009 0
M  V30 29 H -0.217202 -3.250349 -1.570759 0
M  V30 30 H -1.512843 -1.939460 -3.100284 0
M  V30 31 H 0.893805 2.466215 -1.677476 0
M  V30 32 H 0.217437 4.449179 -0.442839 0
M  V30 33 H -1.117809 5.477550 1.357528 0
M  V30 34 H -2.632318 4.091980 2.731477 0
M  V30 35 H -1.473820 0.699533 0.502708 0
M  V30 END ATOM
M  V30 BEGIN BOND
M  V30 1 1 1 2
M  V30 2 1 2 3
M  V30 3 2 3 4
M  V30 4 1 4 5
M  V30 5 1 4 6
M  V30 6 1 6 7
M  V30 7 1 7 8
M  V30 8 2 8 9
M  V30 9 1 9 10
M  V30 10 2 10 11
M  V30 11 1 11 12
M  V30 12 1 12 13
M  V30 13 1 13 14
M  V30 14 2 14 15
M  V30 15 1 15 16
M  V30 16 2 16 17
M  V30 17 1 17 18
M  V30 18 1 18 19
M  V30 19 2 19 20
M  V30 20 1 19 21
M  V30 21 2 18 22
M  V30 22 2 12 23
M  V30 23 2 7 2
M  V30 24 1 23 8
M  V30 25 1 22 14
M  V30 26 1 1 24
M  V30 27 1 1 25
M  V30 28 1 1 26
M  V30 29 1 5 27
M  V30 30 1 5 28
M  V30 31 1 9 29
M  V30 32 1 10 30
M  V30 33 1 13 31
M  V30 34 1 15 32
M  V30 35 1 16 33
M  V30 36 1 17 34
M  V30 37 1 22 35
M  V30 END BOND
M  V30 END CTAB
M  END
>  <Dataset>  (679) 
ChEMBL_Kinases

>  <Ligand_Instance>  (679) 
nan

>  <PDB_ID>  (679) 
nan

>  <Standardized_SMILES>  (679) 
Cc1nc(N)sc1-c1ccnc(Nc2cccc([N+](=O)[O-])c2)n1

>  <Name>  (679) 
nan

>  <Pocket>  (679) 
nan

>  <ATP_Site>  (679) 
nan

>  <Peripheral>  (679) 
nan

>  <Num_H_Atoms_ProtBoundConf>  (679) 
nan

>  <Num_Resolved_Atoms>  (679) 
nan

>  <Num_Not_Resolved_Atoms>  (679) 
nan

$$$$
CHEMBL2392359
     RDKit          3D

  0  0  0  0  0  0  0  0  0  0999 V3000
M  V30 BEGIN CTAB
M  V30 COUNTS 39 41 0 0 0
M  V30 BEGIN ATOM
M  V30 1 C 1.380204 -3.414281 6.379088 0
M  V30 2 O 1.937181 -2.601522 5.358282 0
M  V30 3 C 1.122092 -2.017231 4.400380 0
M  V30 4 C 1.691769 -1.231783 3.420080 0
M  V30 5 C 0.853132 -0.666539 2.484505 0
M  V30 6 C -0.515255 -0.807168 2.426354 0
M  V30 7 C -1.353928 -0.188756 1.413628 0
M  V30 8 C -2.712936 -0.394009 1.469106 0
M  V30 9 C -3.511977 0.187039 0.531194 0
M  V30 10 N -2.926249 0.939141 -0.410742 0
M  V30 11 C -1.601934 1.165493 -0.501520 0
M  V30 12 N -1.130557 1.991180 -1.549361 0
M  V30 13 C 0.216915 2.329177 -1.868229 0
M  V30 14 C 1.050835 1.145477 -2.275552 0
M  V30 15 C 1.836455 0.331433 -1.493594 0
M  V30 16 C 2.524930 -0.716159 -2.064972 0
M  V30 17 C 2.453227 -0.981829 -3.415390 0
M  V30 18 Cl 3.341417 -2.318240 -4.098948 0
M  V30 19 C 1.682088 -0.200012 -4.249090 0
M  V30 20 C 1.008115 0.838166 -3.642107 0
M  V30 21 N -0.847584 0.578867 0.436616 0
M  V30 22 C -1.019919 -1.598945 3.427220 0
M  V30 23 C -0.242241 -2.200183 4.401401 0
M  V30 24 H 0.937750 -4.308523 5.902168 0
M  V30 25 H 0.575187 -2.882023 6.935216 0
M  V30 26 H 2.170815 -3.676477 7.112871 0
M  V30 27 H 2.761449 -1.081905 3.410217 0
M  V30 28 H 1.360559 -0.064673 1.750600 0
M  V30 29 H -3.259022 -0.982353 2.191346 0
M  V30 30 H -4.583509 0.083815 0.493661 0
M  V30 31 H -1.845812 2.418591 -2.183803 0
M  V30 32 H 0.273100 3.070157 -2.686907 0
M  V30 33 H 0.732350 2.844377 -1.004127 0
M  V30 34 H 1.811148 0.644628 -0.460391 0
M  V30 35 H 3.115438 -1.302460 -1.379841 0
M  V30 36 H 1.604380 -0.379599 -5.307428 0
M  V30 37 H 0.399642 1.446248 -4.330141 0
M  V30 38 H -2.059707 -1.816417 3.535820 0
M  V30 39 H -0.642584 -2.823508 5.188503 0
M  V30 END ATOM
M  V30 BEGIN BOND
M  V30 1 1 1 2
M  V30 2 1 2 3
M  V30 3 2 3 4
M  V30 4 1 4 5
M  V30 5 2 5 6
M  V30 6 1 6 7
M  V30 7 2 7 8
M  V30 8 1 8 9
M  V30 9 2 9 10
M  V30 10 1 10 11
M  V30 11 1 11 12
M  V30 12 1 12 13
M  V30 13 1 13 14
M  V30 14 2 14 15
M  V30 15 1 15 16
M  V30 16 2 16 17
M  V30 17 1 17 18
M  V30 18 1 17 19
M  V30 19 2 19 20
M  V30 20 2 11 21
M  V30 21 1 6 22
M  V30 22 2 22 23
M  V30 23 1 23 3
M  V30 24 1 21 7
M  V30 25 1 20 14
M  V30 26 1 1 24
M  V30 27 1 1 25
M  V30 28 1 1 26
M  V30 29 1 4 27
M  V30 30 1 5 28
M  V30 31 1 8 29
M  V30 32 1 9 30
M  V30 33 1 12 31
M  V30 34 1 13 32
M  V30 35 1 13 33
M  V30 36 1 15 34
M  V30 37 1 16 35
M  V30 38 1 19 36
M  V30 39 1 20 37
M  V30 40 1 22 38
M  V30 41 1 23 39
M  V30 END BOND
M  V30 END CTAB
M  END
>  <Dataset>  (680) 
ChEMBL_Kinases

>  <Ligand_Instance>  (680) 
nan

>  <PDB_ID>  (680) 
nan

>  <Standardized_SMILES>  (680) 
COc1ccc(-c2ccnc(NCc3ccc(Cl)cc3)n2)cc1

>  <Name>  (680) 
nan

>  <Pocket>  (680) 
nan

>  <ATP_Site>  (680) 
nan

>  <Peripheral>  (680) 
nan

>  <Num_H_Atoms_ProtBoundConf>  (680) 
nan

>  <Num_Resolved_Atoms>  (680) 
nan

>  <Num_Not_Resolved_Atoms>  (680) 
nan

$$$$
CHEMBL1868723
     RDKit          3D

  0  0  0  0  0  0  0  0  0  0999 V3000
M  V30 BEGIN CTAB
M  V30 COUNTS 38 41 0 0 0
M  V30 BEGIN ATOM
M  V30 1 F 0.509183 -1.099264 4.771960 0
M  V30 2 C 0.929763 -1.715720 3.593771 0
M  V30 3 F -0.180412 -1.680275 2.734233 0
M  V30 4 F 1.308948 -3.016029 3.800244 0
M  V30 5 C 2.023160 -0.945186 2.934568 0
M  V30 6 C 3.334542 -1.346941 3.109352 0
M  V30 7 C 4.333541 -0.628778 2.486643 0
M  V30 8 C 4.035276 0.484607 1.691283 0
M  V30 9 C 2.742193 0.921571 1.488579 0
M  V30 10 N 2.412923 2.052069 0.691209 0
M  V30 11 C 1.024363 2.347343 0.447324 0
M  V30 12 N 0.357656 3.518631 0.550286 0
M  V30 13 C -0.980623 3.548847 0.268171 0
M  V30 14 C -1.649515 2.393501 -0.120933 0
M  V30 15 C -0.970636 1.202033 -0.225584 0
M  V30 16 C -1.577287 -0.070325 -0.612577 0
M  V30 17 C -2.896352 -0.260237 -0.936005 0
M  V30 18 C -3.369643 -1.529504 -1.278029 0
M  V30 19 C -2.535254 -2.647473 -1.307826 0
M  V30 20 C -1.221914 -2.402401 -0.975248 0
M  V30 21 C -0.713499 -1.173294 -0.632270 0
M  V30 22 O -0.543078 -3.608635 -1.055633 0
M  V30 23 C -1.480878 -4.679996 -1.140156 0
M  V30 24 O -2.638773 -4.000578 -1.586514 0
M  V30 25 N 0.324750 1.305835 0.076096 0
M  V30 26 C 1.798712 0.160243 2.139904 0
M  V30 27 H 3.539487 -2.201498 3.721302 0
M  V30 28 H 5.361159 -0.954570 2.631569 0
M  V30 29 H 4.837886 1.044765 1.202214 0
M  V30 30 H 3.236124 2.599989 0.329077 0
M  V30 31 H -1.467951 4.506265 0.368081 0
M  V30 32 H -2.710181 2.421985 -0.347283 0
M  V30 33 H -3.541977 0.599787 -0.912916 0
M  V30 34 H -4.406663 -1.683569 -1.532124 0
M  V30 35 H 0.350442 -1.059827 -0.380683 0
M  V30 36 H -1.157392 -5.472910 -1.842525 0
M  V30 37 H -1.677383 -5.138181 -0.155326 0
M  V30 38 H 0.734021 0.386586 2.087945 0
M  V30 END ATOM
M  V30 BEGIN BOND
M  V30 1 1 1 2
M  V30 2 1 2 3
M  V30 3 1 2 4
M  V30 4 1 2 5
M  V30 5 2 5 6
M  V30 6 1 6 7
M  V30 7 2 7 8
M  V30 8 1 8 9
M  V30 9 1 9 10
M  V30 10 1 10 11
M  V30 11 2 11 12
M  V30 12 1 12 13
M  V30 13 2 13 14
M  V30 14 1 14 15
M  V30 15 1 15 16
M  V30 16 2 16 17
M  V30 17 1 17 18
M  V30 18 2 18 19
M  V30 19 1 19 20
M  V30 20 2 20 21
M  V30 21 1 20 22
M  V30 22 1 22 23
M  V30 23 1 23 24
M  V30 24 2 15 25
M  V30 25 2 9 26
M  V30 26 1 26 5
M  V30 27 1 25 11
M  V30 28 1 21 16
M  V30 29 1 24 19
M  V30 30 1 6 27
M  V30 31 1 7 28
M  V30 32 1 8 29
M  V30 33 1 10 30
M  V30 34 1 13 31
M  V30 35 1 14 32
M  V30 36 1 17 33
M  V30 37 1 18 34
M  V30 38 1 21 35
M  V30 39 1 23 36
M  V30 40 1 23 37
M  V30 41 1 26 38
M  V30 END BOND
M  V30 END CTAB
M  END
>  <Dataset>  (681) 
ChEMBL_Kinases

>  <Ligand_Instance>  (681) 
nan

>  <PDB_ID>  (681) 
nan

>  <Standardized_SMILES>  (681) 
FC(F)(F)c1cccc(Nc2nccc(-c3ccc4c(c3)OCO4)n2)c1

>  <Name>  (681) 
nan

>  <Pocket>  (681) 
nan

>  <ATP_Site>  (681) 
nan

>  <Peripheral>  (681) 
nan

>  <Num_H_Atoms_ProtBoundConf>  (681) 
nan

>  <Num_Resolved_Atoms>  (681) 
nan

>  <Num_Not_Resolved_Atoms>  (681) 
nan

$$$$
CHEMBL4071234
     RDKit          3D

  0  0  0  0  0  0  0  0  0  0999 V3000
M  V30 BEGIN CTAB
M  V30 COUNTS 42 44 0 0 0
M  V30 BEGIN ATOM
M  V30 1 C 1.170834 -5.397998 3.561462 0
M  V30 2 C 1.580275 -3.952316 3.791773 0
M  V30 3 C 1.920938 -3.346385 2.433993 0 CFG=1
M  V30 4 C 0.677459 -3.441537 1.584655 0
M  V30 5 O 0.801158 -2.906169 0.329533 0
M  V30 6 N 2.351931 -2.003279 2.655587 0
M  V30 7 C 2.768735 -1.060933 1.670796 0
M  V30 8 C 4.049638 -0.830610 1.171256 0
M  V30 9 C 4.205611 0.147930 0.209399 0
M  V30 10 C 3.112102 0.867549 -0.232705 0
M  V30 11 N 3.043815 1.852560 -1.151463 0
M  V30 12 C 1.763733 2.254999 -1.251933 0
M  V30 13 C 1.073986 1.468133 -0.354592 0
M  V30 14 C -0.367680 1.597235 -0.160485 0
M  V30 15 C -1.099967 0.833137 0.724641 0
M  V30 16 C -2.464575 0.988407 0.877043 0
M  V30 17 N -3.088154 1.923052 0.127920 0
M  V30 18 C -2.387946 2.672342 -0.736126 0
M  V30 19 S -3.266063 3.877907 -1.686199 0 CHG=1 VAL=3
M  V30 20 C -3.819131 3.146743 -3.194354 0
M  V30 21 O -4.589584 4.391528 -0.819010 0 CHG=-1 VAL=1
M  V30 22 N -1.061153 2.506782 -0.870474 0
M  V30 23 N 1.891262 0.608432 0.280945 0
M  V30 24 N 1.750290 -0.315215 1.187472 0
M  V30 25 H 0.071120 -5.509320 3.472960 0
M  V30 26 H 1.609621 -5.779569 2.620805 0
M  V30 27 H 1.485150 -6.046028 4.411045 0
M  V30 28 H 2.453108 -3.863643 4.482844 0
M  V30 29 H 0.677503 -3.432146 4.188521 0
M  V30 30 H 2.686564 -3.995703 1.993154 0
M  V30 31 H 0.338031 -4.493463 1.510348 0
M  V30 32 H -0.183921 -2.910549 2.075518 0
M  V30 33 H 0.263844 -3.354158 -0.358497 0
M  V30 34 H 2.433606 -1.488471 3.572948 0
M  V30 35 H 4.795239 -1.475450 1.618850 0
M  V30 36 H 5.225366 0.278820 -0.138552 0
M  V30 37 H 1.435789 3.030704 -1.915277 0
M  V30 38 H -0.589129 0.090219 1.316770 0
M  V30 39 H -3.018711 0.365258 1.589439 0
M  V30 40 H -3.879952 2.024294 -3.121639 0
M  V30 41 H -3.109272 3.384854 -4.017650 0
M  V30 42 H -4.846578 3.499512 -3.419009 0
M  V30 END ATOM
M  V30 BEGIN BOND
M  V30 1 1 1 2
M  V30 2 1 2 3
M  V30 3 1 3 4
M  V30 4 1 4 5
M  V30 5 1 3 6
M  V30 6 1 6 7
M  V30 7 1 7 8
M  V30 8 2 8 9
M  V30 9 1 9 10
M  V30 10 2 10 11
M  V30 11 1 11 12
M  V30 12 2 12 13
M  V30 13 1 13 14
M  V30 14 2 14 15
M  V30 15 1 15 16
M  V30 16 2 16 17
M  V30 17 1 17 18
M  V30 18 1 18 19
M  V30 19 1 19 20
M  V30 20 1 19 21
M  V30 21 2 18 22
M  V30 22 1 13 23
M  V30 23 1 23 24
M  V30 24 2 24 7
M  V30 25 1 23 10
M  V30 26 1 22 14
M  V30 27 1 1 25
M  V30 28 1 1 26
M  V30 29 1 1 27
M  V30 30 1 2 28
M  V30 31 1 2 29
M  V30 32 1 3 30 CFG=3
M  V30 33 1 4 31
M  V30 34 1 4 32
M  V30 35 1 5 33
M  V30 36 1 6 34
M  V30 37 1 8 35
M  V30 38 1 9 36
M  V30 39 1 12 37
M  V30 40 1 15 38
M  V30 41 1 16 39
M  V30 42 1 20 40
M  V30 43 1 20 41
M  V30 44 1 20 42
M  V30 END BOND
M  V30 END CTAB
M  END
>  <Dataset>  (682) 
ChEMBL_Kinases

>  <Ligand_Instance>  (682) 
nan

>  <PDB_ID>  (682) 
nan

>  <Standardized_SMILES>  (682) 
CC[C@@H](CO)Nc1ccc2ncc(-c3ccnc([S+](C)[O-])n3)n2n1

>  <Name>  (682) 
nan

>  <Pocket>  (682) 
nan

>  <ATP_Site>  (682) 
nan

>  <Peripheral>  (682) 
nan

>  <Num_H_Atoms_ProtBoundConf>  (682) 
nan

>  <Num_Resolved_Atoms>  (682) 
nan

>  <Num_Not_Resolved_Atoms>  (682) 
nan

$$$$
CHEMBL3298823
     RDKit          3D

  0  0  0  0  0  0  0  0  0  0999 V3000
M  V30 BEGIN CTAB
M  V30 COUNTS 45 48 0 0 0
M  V30 BEGIN ATOM
M  V30 1 O -0.317099 -3.004310 -0.022594 0
M  V30 2 C -0.220593 -2.189762 0.930911 0
M  V30 3 C 0.542480 -0.934294 1.095609 0
M  V30 4 C 1.293822 -0.642538 -0.160482 0
M  V30 5 C 0.415607 -0.471488 -1.351222 0
M  V30 6 N 1.145894 0.149254 -2.447218 0
M  V30 7 C 1.928078 1.317729 -2.243359 0
M  V30 8 O 2.177665 2.140757 -3.181334 0
M  V30 9 C 2.422111 1.503592 -0.884319 0
M  V30 10 C 3.194704 2.485716 -0.304405 0
M  V30 11 C 3.360389 2.154540 1.024198 0
M  V30 12 C 4.121375 2.945824 1.981946 0
M  V30 13 C 5.238335 3.689761 1.584460 0
M  V30 14 N 5.744491 4.317018 2.660964 0
M  V30 15 N 5.021252 4.021280 3.723806 0
M  V30 16 C 4.033793 3.193568 3.338455 0
M  V30 17 C 2.675801 0.981620 1.183826 0
M  V30 18 N 2.094001 0.569555 0.019156 0
M  V30 19 N -1.017095 -2.607373 2.029314 0
M  V30 20 C -1.860402 -3.790774 2.135378 0
M  V30 21 C -3.134646 -3.618426 1.394983 0
M  V30 22 C -4.176819 -3.041318 2.129416 0
M  V30 23 C -5.427987 -2.825064 1.559649 0
M  V30 24 C -5.672546 -3.174772 0.253957 0
M  V30 25 C -4.664552 -3.739296 -0.475153 0
M  V30 26 F -4.792698 -4.120161 -1.760580 0
M  V30 27 C -3.428657 -3.951794 0.091661 0
M  V30 28 H 1.234884 -0.968031 1.958582 0
M  V30 29 H -0.160290 -0.072284 1.273556 0
M  V30 30 H 1.969652 -1.521429 -0.352541 0
M  V30 31 H 0.092842 -1.473565 -1.702457 0
M  V30 32 H -0.487022 0.141113 -1.081758 0
M  V30 33 H 1.108175 -0.261499 -3.428948 0
M  V30 34 H 3.575722 3.342355 -0.845153 0
M  V30 35 H 5.642542 3.757418 0.567430 0
M  V30 36 H 5.173045 4.362297 4.710221 0
M  V30 37 H 3.238140 2.731414 3.912952 0
M  V30 38 H 2.643468 0.493977 2.152155 0
M  V30 39 H -1.033587 -2.010870 2.912762 0
M  V30 40 H -2.005945 -4.102329 3.172392 0
M  V30 41 H -1.242873 -4.604872 1.645945 0
M  V30 42 H -4.129590 -2.715777 3.166972 0
M  V30 43 H -6.258886 -2.383147 2.092366 0
M  V30 44 H -6.607800 -3.050855 -0.288176 0
M  V30 45 H -2.620344 -4.395765 -0.453181 0
M  V30 END ATOM
M  V30 BEGIN BOND
M  V30 1 2 1 2
M  V30 2 1 2 3
M  V30 3 1 3 4
M  V30 4 1 4 5
M  V30 5 1 5 6
M  V30 6 1 6 7
M  V30 7 2 7 8
M  V30 8 1 7 9
M  V30 9 2 9 10
M  V30 10 1 10 11
M  V30 11 1 11 12
M  V30 12 1 12 13
M  V30 13 2 13 14
M  V30 14 1 14 15
M  V30 15 1 15 16
M  V30 16 2 11 17
M  V30 17 1 17 18
M  V30 18 1 2 19
M  V30 19 1 19 20
M  V30 20 1 20 21
M  V30 21 2 21 22
M  V30 22 1 22 23
M  V30 23 2 23 24
M  V30 24 1 24 25
M  V30 25 1 25 26
M  V30 26 2 25 27
M  V30 27 1 18 4
M  V30 28 1 27 21
M  V30 29 1 18 9
M  V30 30 2 16 12
M  V30 31 1 3 28
M  V30 32 1 3 29
M  V30 33 1 4 30
M  V30 34 1 5 31
M  V30 35 1 5 32
M  V30 36 1 6 33
M  V30 37 1 10 34
M  V30 38 1 13 35
M  V30 39 1 15 36
M  V30 40 1 16 37
M  V30 41 1 17 38
M  V30 42 1 19 39
M  V30 43 1 20 40
M  V30 44 1 20 41
M  V30 45 1 22 42
M  V30 46 1 23 43
M  V30 47 1 24 44
M  V30 48 1 27 45
M  V30 END BOND
M  V30 END CTAB
M  END
>  <Dataset>  (683) 
ChEMBL_Kinases

>  <Ligand_Instance>  (683) 
nan

>  <PDB_ID>  (683) 
nan

>  <Standardized_SMILES>  (683) 
O=C(CC1CNC(=O)c2cc(-c3cn[nH]c3)cn21)NCc1cccc(F)c1

>  <Name>  (683) 
nan

>  <Pocket>  (683) 
nan

>  <ATP_Site>  (683) 
nan

>  <Peripheral>  (683) 
nan

>  <Num_H_Atoms_ProtBoundConf>  (683) 
nan

>  <Num_Resolved_Atoms>  (683) 
nan

>  <Num_Not_Resolved_Atoms>  (683) 
nan

$$$$
CHEMBL2321968
     RDKit          3D

  0  0  0  0  0  0  0  0  0  0999 V3000
M  V30 BEGIN CTAB
M  V30 COUNTS 33 36 0 0 0
M  V30 BEGIN ATOM
M  V30 1 O 2.298326 -0.660032 3.490645 0
M  V30 2 C 2.191796 -1.497198 2.568365 0
M  V30 3 N 2.973727 -2.683407 2.521524 0
M  V30 4 C 2.543400 -3.353320 1.317417 0
M  V30 5 C 3.073064 -4.571786 0.899854 0
M  V30 6 C 2.607590 -5.146047 -0.262791 0
M  V30 7 C 1.610714 -4.459571 -0.970916 0
M  V30 8 C 1.152618 -3.260652 -0.474865 0
M  V30 9 C 1.568442 -2.652838 0.651920 0
M  V30 10 C 1.328006 -1.489410 1.408941 0
M  V30 11 C 0.482393 -0.559355 1.131576 0
M  V30 12 N 0.211423 0.621145 1.863199 0
M  V30 13 C -0.788513 1.450585 1.283863 0
M  V30 14 C -1.289520 2.655418 1.727411 0
M  V30 15 C -2.263414 3.214787 0.932139 0
M  V30 16 C -2.714800 2.640748 -0.211234 0
M  V30 17 C -3.750098 3.282004 -1.013321 0
M  V30 18 O -4.240751 4.382546 -0.652799 0
M  V30 19 O -4.223231 2.708409 -2.185619 0
M  V30 20 C -2.169575 1.445561 -0.586093 0
M  V30 21 C -1.173296 0.763315 0.125165 0
M  V30 22 C -0.408001 -0.465721 0.016058 0
M  V30 23 O -0.676910 -1.134200 -0.968669 0
M  V30 24 H 3.686918 -2.963132 3.224689 0
M  V30 25 H 3.837798 -5.109572 1.432691 0
M  V30 26 H 3.011554 -6.088184 -0.593202 0
M  V30 27 H 1.303017 -4.978336 -1.868861 0
M  V30 28 H 0.426374 -2.898699 -1.119225 0
M  V30 29 H 0.715258 0.844410 2.751266 0
M  V30 30 H -0.934623 3.109959 2.629359 0
M  V30 31 H -2.683074 4.153809 1.238419 0
M  V30 32 H -5.236909 2.724942 -2.378689 0
M  V30 33 H -2.528725 0.991753 -1.493108 0
M  V30 END ATOM
M  V30 BEGIN BOND
M  V30 1 2 1 2
M  V30 2 1 2 3
M  V30 3 1 3 4
M  V30 4 2 4 5
M  V30 5 1 5 6
M  V30 6 2 6 7
M  V30 7 1 7 8
M  V30 8 2 8 9
M  V30 9 1 9 10
M  V30 10 2 10 11
M  V30 11 1 11 12
M  V30 12 1 12 13
M  V30 13 2 13 14
M  V30 14 1 14 15
M  V30 15 2 15 16
M  V30 16 1 16 17
M  V30 17 2 17 18
M  V30 18 1 17 19
M  V30 19 1 16 20
M  V30 20 2 20 21
M  V30 21 1 21 22
M  V30 22 2 22 23
M  V30 23 1 10 2
M  V30 24 1 22 11
M  V30 25 1 9 4
M  V30 26 1 21 13
M  V30 27 1 3 24
M  V30 28 1 5 25
M  V30 29 1 6 26
M  V30 30 1 7 27
M  V30 31 1 8 28
M  V30 32 1 12 29
M  V30 33 1 14 30
M  V30 34 1 15 31
M  V30 35 1 19 32
M  V30 36 1 20 33
M  V30 END BOND
M  V30 END CTAB
M  END
>  <Dataset>  (684) 
ChEMBL_Kinases

>  <Ligand_Instance>  (684) 
nan

>  <PDB_ID>  (684) 
nan

>  <Standardized_SMILES>  (684) 
O=C1Nc2ccccc2/C1=C1/Nc2ccc(C(=O)O)cc2C1=O

>  <Name>  (684) 
nan

>  <Pocket>  (684) 
nan

>  <ATP_Site>  (684) 
nan

>  <Peripheral>  (684) 
nan

>  <Num_H_Atoms_ProtBoundConf>  (684) 
nan

>  <Num_Resolved_Atoms>  (684) 
nan

>  <Num_Not_Resolved_Atoms>  (684) 
nan

$$$$
CHEMBL1614701
     RDKit          3D

  0  0  0  0  0  0  0  0  0  0999 V3000
M  V30 BEGIN CTAB
M  V30 COUNTS 42 44 0 0 0
M  V30 BEGIN ATOM
M  V30 1 C 3.023546 -5.148626 -0.299439 0
M  V30 2 N 2.715538 -4.030013 -1.198998 0
M  V30 3 C 3.223327 -3.907943 -2.435912 0
M  V30 4 N 2.731861 -2.779840 -2.962485 0
M  V30 5 C 1.915760 -2.161172 -2.101616 0
M  V30 6 C 1.132066 -1.002213 -2.054719 0
M  V30 7 F 1.233650 -0.337445 -3.242472 0
M  V30 8 C 0.379410 -0.678168 -0.916639 0
M  V30 9 N -0.307279 0.532715 -1.087158 0
M  V30 10 C -0.328255 1.904409 -0.752690 0
M  V30 11 C -1.483743 2.376898 -0.133618 0
M  V30 12 C -1.682244 3.674052 0.276914 0
M  V30 13 C -0.618662 4.511586 0.025279 0
M  V30 14 Br -0.812291 6.333840 0.567113 0
M  V30 15 C 0.569374 4.161476 -0.577348 0
M  V30 16 C 0.663207 2.839078 -0.948549 0
M  V30 17 Cl 2.153041 2.339380 -1.701753 0
M  V30 18 C 0.435070 -1.538792 0.154240 0
M  V30 19 C -0.367560 -1.161917 1.301049 0
M  V30 20 O -1.145499 -0.239542 1.626839 0
M  V30 21 N -0.367531 -1.983626 2.460495 0
M  V30 22 O -1.097624 -1.683474 3.564109 0
M  V30 23 C -0.279178 -0.902426 4.378598 0
M  V30 24 C -0.988350 -0.492070 5.653800 0
M  V30 25 O -2.131679 0.249383 5.392771 0
M  V30 26 C 1.172846 -2.678415 0.176668 0
M  V30 27 C 1.898314 -2.960141 -0.959928 0
M  V30 28 H 3.984311 -4.977223 0.236844 0
M  V30 29 H 2.247582 -5.223823 0.503557 0
M  V30 30 H 3.055913 -6.100888 -0.843311 0
M  V30 31 H 3.904731 -4.584043 -2.933990 0
M  V30 32 H -1.132781 0.304494 -1.719986 0
M  V30 33 H -2.317830 1.685668 0.054621 0
M  V30 34 H -2.593745 4.002267 0.754168 0
M  V30 35 H 1.373390 4.849154 -0.754148 0
M  V30 36 H 0.177285 -2.889056 2.598814 0
M  V30 37 H 0.033076 0.045126 3.895941 0
M  V30 38 H 0.653465 -1.441119 4.642023 0
M  V30 39 H -0.290598 0.138210 6.236812 0
M  V30 40 H -1.194958 -1.393409 6.258269 0
M  V30 41 H -2.905185 -0.086509 5.908748 0
M  V30 42 H 1.233121 -3.358388 0.988798 0
M  V30 END ATOM
M  V30 BEGIN BOND
M  V30 1 1 1 2
M  V30 2 1 2 3
M  V30 3 2 3 4
M  V30 4 1 4 5
M  V30 5 2 5 6
M  V30 6 1 6 7
M  V30 7 1 6 8
M  V30 8 1 8 9
M  V30 9 1 9 10
M  V30 10 2 10 11
M  V30 11 1 11 12
M  V30 12 2 12 13
M  V30 13 1 13 14
M  V30 14 1 13 15
M  V30 15 2 15 16
M  V30 16 1 16 17
M  V30 17 2 8 18
M  V30 18 1 18 19
M  V30 19 2 19 20
M  V30 20 1 19 21
M  V30 21 1 21 22
M  V30 22 1 22 23
M  V30 23 1 23 24
M  V30 24 1 24 25
M  V30 25 1 18 26
M  V30 26 2 26 27
M  V30 27 1 27 2
M  V30 28 1 27 5
M  V30 29 1 16 10
M  V30 30 1 1 28
M  V30 31 1 1 29
M  V30 32 1 1 30
M  V30 33 1 3 31
M  V30 34 1 9 32
M  V30 35 1 11 33
M  V30 36 1 12 34
M  V30 37 1 15 35
M  V30 38 1 21 36
M  V30 39 1 23 37
M  V30 40 1 23 38
M  V30 41 1 24 39
M  V30 42 1 24 40
M  V30 43 1 25 41
M  V30 44 1 26 42
M  V30 END BOND
M  V30 END CTAB
M  END
>  <Dataset>  (685) 
ChEMBL_Kinases

>  <Ligand_Instance>  (685) 
nan

>  <PDB_ID>  (685) 
nan

>  <Standardized_SMILES>  (685) 
Cn1cnc2c(F)c(Nc3ccc(Br)cc3Cl)c(C(=O)NOCCO)cc21

>  <Name>  (685) 
SELUMETINIB

>  <Pocket>  (685) 
nan

>  <ATP_Site>  (685) 
nan

>  <Peripheral>  (685) 
nan

>  <Num_H_Atoms_ProtBoundConf>  (685) 
nan

>  <Num_Resolved_Atoms>  (685) 
nan

>  <Num_Not_Resolved_Atoms>  (685) 
nan

$$$$
CHEMBL2321952
     RDKit          3D

  0  0  0  0  0  0  0  0  0  0999 V3000
M  V30 BEGIN CTAB
M  V30 COUNTS 35 38 0 0 0
M  V30 BEGIN ATOM
M  V30 1 O -0.451082 0.020643 4.401694 0
M  V30 2 C 0.480289 -0.568018 3.838837 0
M  V30 3 N 1.527139 -1.204228 4.560191 0
M  V30 4 C 2.389604 -1.758677 3.542059 0
M  V30 5 C 3.552611 -2.474733 3.851476 0
M  V30 6 C 4.292963 -2.954139 2.793836 0
M  V30 7 C 3.846925 -2.701832 1.487729 0
M  V30 8 C 2.687386 -1.985422 1.311843 0
M  V30 9 C 1.914222 -1.487276 2.282806 0
M  V30 10 C 0.721424 -0.744446 2.414754 0
M  V30 11 C -0.004097 -0.312498 1.439509 0
M  V30 12 N -1.196385 0.430962 1.625133 0
M  V30 13 C -1.809288 0.788237 0.393902 0
M  V30 14 C -2.978004 1.508717 0.134784 0
M  V30 15 C -3.298427 1.682683 -1.192081 0
M  V30 16 C -2.526942 1.184602 -2.218980 0
M  V30 17 C -2.936322 1.412532 -3.613588 0
M  V30 18 O -2.226445 0.954002 -4.569521 0
M  V30 19 O -4.096157 2.127508 -3.874938 0
M  V30 20 C -1.388937 0.484422 -1.893564 0
M  V30 21 C -0.986499 0.259333 -0.578511 0
M  V30 22 C 0.140368 -0.428905 0.014566 0
M  V30 23 N 1.000647 -0.975796 -0.677761 0
M  V30 24 O 0.990768 -0.994925 -2.023454 0
M  V30 25 H 1.610964 -1.236651 5.603637 0
M  V30 26 H 3.891433 -2.666355 4.845709 0
M  V30 27 H 5.189614 -3.506354 3.024032 0
M  V30 28 H 4.531754 -3.140652 0.756062 0
M  V30 29 H 2.557124 -1.923880 0.284224 0
M  V30 30 H -1.606544 0.702586 2.534721 0
M  V30 31 H -3.586535 1.901463 0.937994 0
M  V30 32 H -4.207617 2.243892 -1.355690 0
M  V30 33 H -4.443782 2.266739 -4.827772 0
M  V30 34 H -0.849312 0.133275 -2.758742 0
M  V30 35 H 1.161305 -1.908263 -2.465605 0
M  V30 END ATOM
M  V30 BEGIN BOND
M  V30 1 2 1 2
M  V30 2 1 2 3
M  V30 3 1 3 4
M  V30 4 2 4 5
M  V30 5 1 5 6
M  V30 6 2 6 7
M  V30 7 1 7 8
M  V30 8 2 8 9
M  V30 9 1 9 10
M  V30 10 2 10 11
M  V30 11 1 11 12
M  V30 12 1 12 13
M  V30 13 2 13 14
M  V30 14 1 14 15
M  V30 15 2 15 16
M  V30 16 1 16 17
M  V30 17 2 17 18
M  V30 18 1 17 19
M  V30 19 1 16 20
M  V30 20 2 20 21
M  V30 21 1 21 22
M  V30 22 2 22 23
M  V30 23 1 23 24
M  V30 24 1 10 2
M  V30 25 1 22 11
M  V30 26 1 9 4
M  V30 27 1 21 13
M  V30 28 1 3 25
M  V30 29 1 5 26
M  V30 30 1 6 27
M  V30 31 1 7 28
M  V30 32 1 8 29
M  V30 33 1 12 30
M  V30 34 1 14 31
M  V30 35 1 15 32
M  V30 36 1 19 33
M  V30 37 1 20 34
M  V30 38 1 24 35
M  V30 END BOND
M  V30 END CTAB
M  END
>  <Dataset>  (686) 
ChEMBL_Kinases

>  <Ligand_Instance>  (686) 
nan

>  <PDB_ID>  (686) 
nan

>  <Standardized_SMILES>  (686) 
O=C1Nc2ccccc2/C1=C1/Nc2ccc(C(=O)O)cc2/C1=N\O

>  <Name>  (686) 
nan

>  <Pocket>  (686) 
nan

>  <ATP_Site>  (686) 
nan

>  <Peripheral>  (686) 
nan

>  <Num_H_Atoms_ProtBoundConf>  (686) 
nan

>  <Num_Resolved_Atoms>  (686) 
nan

>  <Num_Not_Resolved_Atoms>  (686) 
nan

$$$$
CHEMBL4783398
     RDKit          3D

  0  0  0  0  0  0  0  0  0  0999 V3000
M  V30 BEGIN CTAB
M  V30 COUNTS 53 57 0 0 0
M  V30 BEGIN ATOM
M  V30 1 C 3.240693 -3.264025 7.531210 0
M  V30 2 C 3.348990 -2.564599 6.217181 0
M  V30 3 C 4.345544 -2.925814 5.337776 0
M  V30 4 C 4.473484 -2.299729 4.115195 0
M  V30 5 C 3.588655 -1.297261 3.771037 0
M  V30 6 N 3.525388 -0.520114 2.582916 0
M  V30 7 C 3.030372 -0.933701 1.404357 0
M  V30 8 C 3.090947 0.038631 0.396291 0
M  V30 9 C 2.613717 -0.190400 -0.972408 0
M  V30 10 O 1.286267 0.091233 -1.225901 0
M  V30 11 C 0.574405 1.239027 -1.136073 0
M  V30 12 C 0.971520 2.503234 -0.759767 0
M  V30 13 C 0.163678 3.616915 -0.700590 0
M  V30 14 C -1.160945 3.471514 -1.044933 0
M  V30 15 C -1.622822 2.225761 -1.432530 0
M  V30 16 C -2.930321 2.079357 -1.773199 0
M  V30 17 N -3.325201 0.872429 -2.136314 0
M  V30 18 C -2.581743 -0.238794 -2.209971 0
M  V30 19 N -2.980209 -1.542637 -2.595362 0
M  V30 20 C -4.274103 -1.956183 -2.993159 0
M  V30 21 C -5.389136 -1.157614 -3.082841 0
M  V30 22 C -6.644062 -1.570479 -3.470626 0
M  V30 23 C -6.822866 -2.894972 -3.802647 0
M  V30 24 C -5.736932 -3.735351 -3.728995 0
M  V30 25 Cl -5.960397 -5.419825 -4.150283 0
M  V30 26 C -4.517898 -3.266006 -3.337358 0
M  V30 27 N -1.311168 -0.014595 -1.860622 0
M  V30 28 C -0.783909 1.144539 -1.477025 0
M  V30 29 N 3.661178 1.051505 1.083167 0
M  V30 30 N 3.900562 0.716361 2.322169 0
M  V30 31 C 2.586129 -0.947084 4.677509 0
M  V30 32 N 1.602621 0.077814 4.443428 0 CHG=1 VAL=4
M  V30 33 O 1.290902 0.326800 3.264580 0
M  V30 34 O 1.014478 0.624711 3.337009 0 CHG=-1 VAL=1
M  V30 35 C 2.444568 -1.567798 5.911380 0
M  V30 36 H 3.026023 -2.491578 8.316075 0
M  V30 37 H 2.380254 -3.966875 7.557528 0
M  V30 38 H 4.194806 -3.745801 7.769027 0
M  V30 39 H 5.076789 -3.709922 5.549114 0
M  V30 40 H 5.207673 -2.493116 3.347474 0
M  V30 41 H 2.619243 -1.947200 1.263361 0
M  V30 42 H 3.323992 0.334060 -1.651936 0
M  V30 43 H 2.758544 -1.288758 -1.195591 0
M  V30 44 H 2.006766 2.602714 -0.498181 0
M  V30 45 H 0.566900 4.562991 -0.393914 0
M  V30 46 H -1.819191 4.328699 -1.007899 0
M  V30 47 H -3.622725 2.910069 -1.750312 0
M  V30 48 H -2.244307 -2.284626 -2.587531 0
M  V30 49 H -5.316240 -0.110569 -2.836804 0
M  V30 50 H -7.481884 -0.887933 -3.520038 0
M  V30 51 H -7.775371 -3.287452 -4.114227 0
M  V30 52 H -3.712302 -3.994508 -3.305652 0
M  V30 53 H 1.684711 -1.317028 6.622505 0
M  V30 END ATOM
M  V30 BEGIN BOND
M  V30 1 1 1 2
M  V30 2 2 2 3
M  V30 3 1 3 4
M  V30 4 2 4 5
M  V30 5 1 5 6
M  V30 6 1 6 7
M  V30 7 2 7 8
M  V30 8 1 8 9
M  V30 9 1 9 10
M  V30 10 1 10 11
M  V30 11 2 11 12
M  V30 12 1 12 13
M  V30 13 2 13 14
M  V30 14 1 14 15
M  V30 15 2 15 16
M  V30 16 1 16 17
M  V30 17 2 17 18
M  V30 18 1 18 19
M  V30 19 1 19 20
M  V30 20 2 20 21
M  V30 21 1 21 22
M  V30 22 2 22 23
M  V30 23 1 23 24
M  V30 24 1 24 25
M  V30 25 2 24 26
M  V30 26 1 18 27
M  V30 27 2 27 28
M  V30 28 1 8 29
M  V30 29 2 29 30
M  V30 30 1 5 31
M  V30 31 1 31 32
M  V30 32 2 32 33
M  V30 33 1 32 34
M  V30 34 2 31 35
M  V30 35 1 35 2
M  V30 36 1 30 6
M  V30 37 1 28 11
M  V30 38 1 28 15
M  V30 39 1 26 20
M  V30 40 1 1 36
M  V30 41 1 1 37
M  V30 42 1 1 38
M  V30 43 1 3 39
M  V30 44 1 4 40
M  V30 45 1 7 41
M  V30 46 1 9 42
M  V30 47 1 9 43
M  V30 48 1 12 44
M  V30 49 1 13 45
M  V30 50 1 14 46
M  V30 51 1 16 47
M  V30 52 1 19 48
M  V30 53 1 21 49
M  V30 54 1 22 50
M  V30 55 1 23 51
M  V30 56 1 26 52
M  V30 57 1 35 53
M  V30 END BOND
M  V30 END CTAB
M  END
>  <Dataset>  (687) 
ChEMBL_Kinases

>  <Ligand_Instance>  (687) 
nan

>  <PDB_ID>  (687) 
nan

>  <Standardized_SMILES>  (687) 
Cc1ccc(-n2cc(COc3cccc4cnc(Nc5cccc(Cl)c5)nc34)nn2)c([N+](=O)[O-])c1

>  <Name>  (687) 
nan

>  <Pocket>  (687) 
nan

>  <ATP_Site>  (687) 
nan

>  <Peripheral>  (687) 
nan

>  <Num_H_Atoms_ProtBoundConf>  (687) 
nan

>  <Num_Resolved_Atoms>  (687) 
nan

>  <Num_Not_Resolved_Atoms>  (687) 
nan

$$$$
CHEMBL386051
     RDKit          3D

  0  0  0  0  0  0  0  0  0  0999 V3000
M  V30 BEGIN CTAB
M  V30 COUNTS 45 48 0 0 0
M  V30 BEGIN ATOM
M  V30 1 C 0.687796 -5.271286 3.023153 0
M  V30 2 S 1.033582 -5.381450 1.259338 0
M  V30 3 C 2.594333 -4.715010 0.781325 0
M  V30 4 C 3.760574 -5.410461 0.660713 0
M  V30 5 C 4.963543 -4.876677 0.288413 0
M  V30 6 C 5.032937 -3.530560 0.007510 0
M  V30 7 C 3.874965 -2.753243 0.111068 0
M  V30 8 N 3.783262 -1.336620 -0.157328 0
M  V30 9 C 2.602330 -0.589964 0.087621 0
M  V30 10 N 2.697998 0.082915 1.274835 0
M  V30 11 C 1.681640 0.853404 1.715226 0
M  V30 12 C 0.519059 0.982328 0.980317 0
M  V30 13 C -0.572582 1.753009 1.361065 0
M  V30 14 C -1.701749 1.810042 0.536548 0
M  V30 15 C -2.713200 2.673490 1.126099 0
M  V30 16 C -3.725120 2.292109 1.987939 0
M  V30 17 Cl -3.778188 0.572507 2.388282 0
M  V30 18 C -4.645872 3.150720 2.522019 0
M  V30 19 C -4.582140 4.514005 2.190167 0
M  V30 20 C -3.586811 4.897266 1.339442 0
M  V30 21 C -2.682442 4.010197 0.824346 0
M  V30 22 Cl -1.485614 4.735004 -0.252565 0
M  V30 23 C -1.686021 1.089385 -0.635085 0
M  V30 24 O -2.760246 1.225680 -1.284250 0
M  V30 25 N -0.643219 0.342392 -1.017176 0
M  V30 26 C -0.756495 -0.384422 -2.280466 0
M  V30 27 C 0.434740 0.298344 -0.214555 0
M  V30 28 N 1.468254 -0.460547 -0.622914 0
M  V30 29 C 2.679621 -3.367017 0.496728 0
M  V30 30 H 1.541967 -4.956342 3.634062 0
M  V30 31 H -0.215927 -4.626990 3.223689 0
M  V30 32 H 0.396353 -6.276029 3.395731 0
M  V30 33 H 3.731631 -6.487407 0.881211 0
M  V30 34 H 5.897887 -5.394606 0.182105 0
M  V30 35 H 5.867443 -2.913860 -0.298229 0
M  V30 36 H 4.627621 -0.871512 -0.539958 0
M  V30 37 H 1.747895 1.397638 2.663460 0
M  V30 38 H -0.422024 2.254596 2.308603 0
M  V30 39 H -5.408755 2.734929 3.201317 0
M  V30 40 H -5.378358 5.096397 2.684128 0
M  V30 41 H -3.588929 5.956431 1.122919 0
M  V30 42 H -0.298799 -1.382713 -2.093001 0
M  V30 43 H -0.154134 0.088017 -3.081389 0
M  V30 44 H -1.779603 -0.435052 -2.642138 0
M  V30 45 H 1.769630 -2.762042 0.579822 0
M  V30 END ATOM
M  V30 BEGIN BOND
M  V30 1 1 1 2
M  V30 2 1 2 3
M  V30 3 2 3 4
M  V30 4 1 4 5
M  V30 5 2 5 6
M  V30 6 1 6 7
M  V30 7 1 7 8
M  V30 8 1 8 9
M  V30 9 2 9 10
M  V30 10 1 10 11
M  V30 11 2 11 12
M  V30 12 1 12 13
M  V30 13 2 13 14
M  V30 14 1 14 15
M  V30 15 2 15 16
M  V30 16 1 16 17
M  V30 17 1 16 18
M  V30 18 2 18 19
M  V30 19 1 19 20
M  V30 20 2 20 21
M  V30 21 1 21 22
M  V30 22 1 14 23
M  V30 23 2 23 24
M  V30 24 1 23 25
M  V30 25 1 25 26
M  V30 26 1 25 27
M  V30 27 2 27 28
M  V30 28 2 7 29
M  V30 29 1 29 3
M  V30 30 1 28 9
M  V30 31 1 27 12
M  V30 32 1 21 15
M  V30 33 1 1 30
M  V30 34 1 1 31
M  V30 35 1 1 32
M  V30 36 1 4 33
M  V30 37 1 5 34
M  V30 38 1 6 35
M  V30 39 1 8 36
M  V30 40 1 11 37
M  V30 41 1 13 38
M  V30 42 1 18 39
M  V30 43 1 19 40
M  V30 44 1 20 41
M  V30 45 1 26 42
M  V30 46 1 26 43
M  V30 47 1 26 44
M  V30 48 1 29 45
M  V30 END BOND
M  V30 END CTAB
M  END
>  <Dataset>  (688) 
ChEMBL_Kinases

>  <Ligand_Instance>  (688) 
nan

>  <PDB_ID>  (688) 
nan

>  <Standardized_SMILES>  (688) 
CSc1cccc(Nc2ncc3cc(-c4c(Cl)cccc4Cl)c(=O)n(C)c3n2)c1

>  <Name>  (688) 
nan

>  <Pocket>  (688) 
nan

>  <ATP_Site>  (688) 
nan

>  <Peripheral>  (688) 
nan

>  <Num_H_Atoms_ProtBoundConf>  (688) 
nan

>  <Num_Resolved_Atoms>  (688) 
nan

>  <Num_Not_Resolved_Atoms>  (688) 
nan

$$$$
CHEMBL2321959
     RDKit          3D

  0  0  0  0  0  0  0  0  0  0999 V3000
M  V30 BEGIN CTAB
M  V30 COUNTS 35 38 0 0 0
M  V30 BEGIN ATOM
M  V30 1 O 0.044982 -0.757760 4.225805 0
M  V30 2 C 0.721336 -1.467745 3.441283 0
M  V30 3 N 1.575530 -2.501102 3.910371 0
M  V30 4 C 2.150301 -3.054121 2.706156 0
M  V30 5 C 3.062300 -4.112825 2.730926 0
M  V30 6 C 3.551379 -4.566509 1.525986 0
M  V30 7 C 3.110075 -3.945090 0.348545 0
M  V30 8 C 2.210109 -2.912026 0.448754 0
M  V30 9 C 1.690179 -2.415992 1.583036 0
M  V30 10 C 0.785927 -1.406913 1.992502 0
M  V30 11 C 0.147881 -0.594936 1.214149 0
M  V30 12 N -0.740627 0.392288 1.662849 0
M  V30 13 C -1.305836 1.146744 0.597633 0
M  V30 14 C -2.216845 2.199754 0.622040 0
M  V30 15 C -2.566517 2.718906 -0.596743 0
M  V30 16 C -3.519368 3.820553 -0.573965 0
M  V30 17 O -3.970358 4.241412 0.512010 0
M  V30 18 O -4.016317 4.499497 -1.678255 0
M  V30 19 C -2.056737 2.239509 -1.783713 0
M  V30 20 C -1.160403 1.196667 -1.735140 0
M  V30 21 C -0.746105 0.605066 -0.542139 0
M  V30 22 C 0.158625 -0.473875 -0.211889 0
M  V30 23 N 0.755465 -1.081650 -1.104832 0
M  V30 24 O 0.653901 -0.840310 -2.426021 0
M  V30 25 H 1.720593 -2.763043 4.913336 0
M  V30 26 H 3.404490 -4.593678 3.633239 0
M  V30 27 H 4.254482 -5.382434 1.542150 0
M  V30 28 H 3.568100 -4.393785 -0.525509 0
M  V30 29 H 2.020417 -2.601052 -0.525756 0
M  V30 30 H -0.981554 0.578121 2.658933 0
M  V30 31 H -2.616544 2.575551 1.553515 0
M  V30 32 H -3.966833 5.507248 -1.745059 0
M  V30 33 H -2.387788 2.708781 -2.700037 0
M  V30 34 H -0.819903 0.892128 -2.695285 0
M  V30 35 H 1.379824 -0.328836 -2.949587 0
M  V30 END ATOM
M  V30 BEGIN BOND
M  V30 1 2 1 2
M  V30 2 1 2 3
M  V30 3 1 3 4
M  V30 4 2 4 5
M  V30 5 1 5 6
M  V30 6 2 6 7
M  V30 7 1 7 8
M  V30 8 2 8 9
M  V30 9 1 9 10
M  V30 10 2 10 11
M  V30 11 1 11 12
M  V30 12 1 12 13
M  V30 13 2 13 14
M  V30 14 1 14 15
M  V30 15 1 15 16
M  V30 16 2 16 17
M  V30 17 1 16 18
M  V30 18 2 15 19
M  V30 19 1 19 20
M  V30 20 2 20 21
M  V30 21 1 21 22
M  V30 22 2 22 23
M  V30 23 1 23 24
M  V30 24 1 10 2
M  V30 25 1 22 11
M  V30 26 1 9 4
M  V30 27 1 21 13
M  V30 28 1 3 25
M  V30 29 1 5 26
M  V30 30 1 6 27
M  V30 31 1 7 28
M  V30 32 1 8 29
M  V30 33 1 12 30
M  V30 34 1 14 31
M  V30 35 1 18 32
M  V30 36 1 19 33
M  V30 37 1 20 34
M  V30 38 1 24 35
M  V30 END BOND
M  V30 END CTAB
M  END
>  <Dataset>  (689) 
ChEMBL_Kinases

>  <Ligand_Instance>  (689) 
nan

>  <PDB_ID>  (689) 
nan

>  <Standardized_SMILES>  (689) 
O=C1Nc2ccccc2/C1=C1/Nc2cc(C(=O)O)ccc2/C1=N\O

>  <Name>  (689) 
nan

>  <Pocket>  (689) 
nan

>  <ATP_Site>  (689) 
nan

>  <Peripheral>  (689) 
nan

>  <Num_H_Atoms_ProtBoundConf>  (689) 
nan

>  <Num_Resolved_Atoms>  (689) 
nan

>  <Num_Not_Resolved_Atoms>  (689) 
nan

$$$$
CHEMBL4747992
     RDKit          3D

  0  0  0  0  0  0  0  0  0  0999 V3000
M  V30 BEGIN CTAB
M  V30 COUNTS 70 74 0 0 0
M  V30 BEGIN ATOM
M  V30 1 N 2.256773 -1.584014 4.222775 0
M  V30 2 C 1.213190 -1.899864 3.321102 0
M  V30 3 O 0.134675 -2.289303 3.814887 0
M  V30 4 C 1.453462 -1.756517 1.927511 0
M  V30 5 S 3.013621 -1.191040 1.176943 0
M  V30 6 C 2.375861 -1.332833 -0.542429 0
M  V30 7 C 3.318481 -0.965723 -1.626579 0
M  V30 8 C 4.600763 -0.548328 -1.407869 0
M  V30 9 C 5.423119 -0.221256 -2.464858 0
M  V30 10 N 4.915547 -0.329241 -3.705091 0
M  V30 11 C 3.662278 -0.734280 -3.980807 0
M  V30 12 N 3.218544 -0.814995 -5.343239 0
M  V30 13 C 4.179622 -0.446229 -6.326257 0
M  V30 14 O 5.345291 -0.071739 -6.042958 0
M  V30 15 C 3.808914 -0.499149 -7.763622 0
M  V30 16 C 2.951554 -1.578103 -8.301587 0
M  V30 17 C 2.404254 -0.170070 -8.078776 0
M  V30 18 C 2.851360 -1.058690 -2.898248 0
M  V30 19 N 1.256499 -1.721469 -0.393006 0
M  V30 20 C 0.687118 -1.967134 0.771236 0
M  V30 21 O -0.599429 -2.417780 1.034581 0
M  V30 22 C -1.473358 -2.669675 -0.044169 0
M  V30 23 C -2.809132 -3.144233 0.377837 0
M  V30 24 C -3.624518 -2.336923 1.303827 0
M  V30 25 C -4.062409 -0.977408 0.977361 0
M  V30 26 C -3.071031 0.098444 0.754457 0
M  V30 27 C -2.466328 0.599773 2.076494 0
M  V30 28 N -3.538362 0.942237 2.931432 0
M  V30 29 C -3.269904 1.868517 3.969937 0
M  V30 30 C -2.221646 1.356882 4.867806 0
M  V30 31 C -0.889581 1.624007 4.631691 0
M  V30 32 C 0.143695 1.177056 5.430746 0
M  V30 33 C -0.158586 0.418993 6.531838 0
M  V30 34 F 0.857507 -0.021977 7.320512 0
M  V30 35 C -1.478473 0.134264 6.795974 0
M  V30 36 C -2.487088 0.591319 5.984820 0
M  V30 37 C -4.857293 0.874493 2.449366 0
M  V30 38 C -5.132538 -0.553927 1.988300 0
M  V30 39 H 2.502859 -0.950460 5.032375 0
M  V30 40 H 2.340679 -0.887876 5.011596 0
M  V30 41 H 4.974489 -0.472736 -0.408893 0
M  V30 42 H 6.428025 0.102971 -2.239876 0
M  V30 43 H 2.247332 -1.127710 -5.555629 0
M  V30 44 H 4.639660 -0.187510 -8.424281 0
M  V30 45 H 2.528751 -2.375896 -7.651930 0
M  V30 46 H 3.102010 -1.905512 -9.351882 0
M  V30 47 H 2.199087 0.384265 -8.996892 0
M  V30 48 H 1.681469 -0.014266 -7.242724 0
M  V30 49 H 1.852356 -1.381788 -3.112106 0
M  V30 50 H -0.940580 -3.580801 -0.565555 0
M  V30 51 H -1.479974 -1.939708 -0.850149 0
M  V30 52 H -2.643702 -4.162175 0.877522 0
M  V30 53 H -3.435044 -3.457418 -0.531430 0
M  V30 54 H -4.586333 -2.916869 1.559349 0
M  V30 55 H -3.080834 -2.369000 2.318896 0
M  V30 56 H -4.651951 -1.051155 0.004281 0
M  V30 57 H -2.299785 -0.160814 0.067381 0
M  V30 58 H -3.637801 0.961354 0.292317 0
M  V30 59 H -1.834917 -0.162530 2.536300 0
M  V30 60 H -1.840541 1.467226 1.803232 0
M  V30 61 H -3.052098 2.871125 3.536828 0
M  V30 62 H -4.247957 2.012181 4.517819 0
M  V30 63 H -0.627705 2.219182 3.770215 0
M  V30 64 H 1.177075 1.416653 5.198786 0
M  V30 65 H -1.658751 -0.467115 7.676225 0
M  V30 66 H -3.522279 0.341060 6.232349 0
M  V30 67 H -5.544293 1.145346 3.276569 0
M  V30 68 H -5.078630 1.538110 1.602358 0
M  V30 69 H -5.021575 -1.196717 2.884558 0
M  V30 70 H -6.139729 -0.709824 1.608960 0
M  V30 END ATOM
M  V30 BEGIN BOND
M  V30 1 1 1 2
M  V30 2 2 2 3
M  V30 3 1 2 4
M  V30 4 1 4 5
M  V30 5 1 5 6
M  V30 6 1 6 7
M  V30 7 2 7 8
M  V30 8 1 8 9
M  V30 9 2 9 10
M  V30 10 1 10 11
M  V30 11 1 11 12
M  V30 12 1 12 13
M  V30 13 2 13 14
M  V30 14 1 13 15
M  V30 15 1 15 16
M  V30 16 1 16 17
M  V30 17 2 11 18
M  V30 18 2 6 19
M  V30 19 1 19 20
M  V30 20 1 20 21
M  V30 21 1 21 22
M  V30 22 1 22 23
M  V30 23 1 23 24
M  V30 24 1 24 25
M  V30 25 1 25 26
M  V30 26 1 26 27
M  V30 27 1 27 28
M  V30 28 1 28 29
M  V30 29 1 29 30
M  V30 30 2 30 31
M  V30 31 1 31 32
M  V30 32 2 32 33
M  V30 33 1 33 34
M  V30 34 1 33 35
M  V30 35 2 35 36
M  V30 36 1 28 37
M  V30 37 1 37 38
M  V30 38 2 20 4
M  V30 39 1 38 25
M  V30 40 1 18 7
M  V30 41 1 36 30
M  V30 42 1 17 15
M  V30 43 1 1 39
M  V30 44 1 1 40
M  V30 45 1 8 41
M  V30 46 1 9 42
M  V30 47 1 12 43
M  V30 48 1 15 44
M  V30 49 1 16 45
M  V30 50 1 16 46
M  V30 51 1 17 47
M  V30 52 1 17 48
M  V30 53 1 18 49
M  V30 54 1 22 50
M  V30 55 1 22 51
M  V30 56 1 23 52
M  V30 57 1 23 53
M  V30 58 1 24 54
M  V30 59 1 24 55
M  V30 60 1 25 56
M  V30 61 1 26 57
M  V30 62 1 26 58
M  V30 63 1 27 59
M  V30 64 1 27 60
M  V30 65 1 29 61
M  V30 66 1 29 62
M  V30 67 1 31 63
M  V30 68 1 32 64
M  V30 69 1 35 65
M  V30 70 1 36 66
M  V30 71 1 37 67
M  V30 72 1 37 68
M  V30 73 1 38 69
M  V30 74 1 38 70
M  V30 END BOND
M  V30 END CTAB
M  END
>  <Dataset>  (690) 
ChEMBL_Kinases

>  <Ligand_Instance>  (690) 
nan

>  <PDB_ID>  (690) 
nan

>  <Standardized_SMILES>  (690) 
NC(=O)c1sc(-c2ccnc(NC(=O)C3CC3)c2)nc1OCCCC1CCN(Cc2ccc(F)cc2)CC1

>  <Name>  (690) 
nan

>  <Pocket>  (690) 
nan

>  <ATP_Site>  (690) 
nan

>  <Peripheral>  (690) 
nan

>  <Num_H_Atoms_ProtBoundConf>  (690) 
nan

>  <Num_Resolved_Atoms>  (690) 
nan

>  <Num_Not_Resolved_Atoms>  (690) 
nan

$$$$
CHEMBL1803070
     RDKit          3D

  0  0  0  0  0  0  0  0  0  0999 V3000
M  V30 BEGIN CTAB
M  V30 COUNTS 40 43 0 0 0
M  V30 BEGIN ATOM
M  V30 1 C 2.296633 -4.453781 -1.058757 0
M  V30 2 N 2.144535 -3.074893 -0.636127 0
M  V30 3 C 3.100282 -2.029063 -0.502089 0
M  V30 4 O 4.326721 -2.161171 -0.750518 0
M  V30 5 C 2.439428 -0.815849 -0.042179 0
M  V30 6 C 3.084151 0.321386 0.152452 0
M  V30 7 C 2.222643 1.404487 0.614493 0
M  V30 8 C 1.241974 1.298982 1.575954 0
M  V30 9 C 0.443027 2.356058 1.942094 0
M  V30 10 C 0.587000 3.591897 1.355834 0
M  V30 11 C 1.586617 3.693283 0.379018 0
M  V30 12 C 2.391565 2.628908 0.009958 0
M  V30 13 O 1.559965 5.025730 -0.082273 0
M  V30 14 C 0.241157 5.530638 0.177650 0
M  V30 15 O 0.006026 4.871996 1.434330 0
M  V30 16 N 1.074983 -1.197517 0.084376 0
M  V30 17 C 0.910386 -2.445915 -0.244240 0
M  V30 18 N -0.367693 -3.064276 -0.215848 0
M  V30 19 C -1.367129 -2.794052 0.753769 0
M  V30 20 C -1.195730 -2.003031 1.863267 0
M  V30 21 C -2.153986 -1.718770 2.810703 0
M  V30 22 C -3.402733 -2.310363 2.584849 0
M  V30 23 O -4.383650 -2.024366 3.547060 0
M  V30 24 C -3.682943 -3.127895 1.494681 0
M  V30 25 C -2.614800 -3.322602 0.622963 0
M  V30 26 H 1.580726 -5.059954 -0.430378 0
M  V30 27 H 1.991622 -4.627334 -2.107623 0
M  V30 28 H 3.305259 -4.832561 -0.833940 0
M  V30 29 H 4.145506 0.434199 -0.014013 0
M  V30 30 H 1.166024 0.322354 2.013230 0
M  V30 31 H -0.321733 2.254131 2.697462 0
M  V30 32 H 3.150243 2.760050 -0.752044 0
M  V30 33 H 0.227780 6.629641 0.306128 0
M  V30 34 H -0.512286 5.135802 -0.524842 0
M  V30 35 H -0.568349 -3.775444 -0.976183 0
M  V30 36 H -0.234436 -1.563252 2.025497 0
M  V30 37 H -1.967875 -1.087935 3.668960 0
M  V30 38 H -4.757912 -1.096038 3.629119 0
M  V30 39 H -4.643041 -3.556882 1.363250 0
M  V30 40 H -2.846476 -3.965039 -0.230215 0
M  V30 END ATOM
M  V30 BEGIN BOND
M  V30 1 1 1 2
M  V30 2 1 2 3
M  V30 3 2 3 4
M  V30 4 1 3 5
M  V30 5 2 5 6
M  V30 6 1 6 7
M  V30 7 2 7 8
M  V30 8 1 8 9
M  V30 9 2 9 10
M  V30 10 1 10 11
M  V30 11 2 11 12
M  V30 12 1 11 13
M  V30 13 1 13 14
M  V30 14 1 14 15
M  V30 15 1 5 16
M  V30 16 2 16 17
M  V30 17 1 17 18
M  V30 18 1 18 19
M  V30 19 2 19 20
M  V30 20 1 20 21
M  V30 21 2 21 22
M  V30 22 1 22 23
M  V30 23 1 22 24
M  V30 24 2 24 25
M  V30 25 1 17 2
M  V30 26 1 25 19
M  V30 27 1 12 7
M  V30 28 1 15 10
M  V30 29 1 1 26
M  V30 30 1 1 27
M  V30 31 1 1 28
M  V30 32 1 6 29
M  V30 33 1 8 30
M  V30 34 1 9 31
M  V30 35 1 12 32
M  V30 36 1 14 33
M  V30 37 1 14 34
M  V30 38 1 18 35
M  V30 39 1 20 36
M  V30 40 1 21 37
M  V30 41 1 23 38
M  V30 42 1 24 39
M  V30 43 1 25 40
M  V30 END BOND
M  V30 END CTAB
M  END
>  <Dataset>  (691) 
ChEMBL_Kinases

>  <Ligand_Instance>  (691) 
nan

>  <PDB_ID>  (691) 
nan

>  <Standardized_SMILES>  (691) 
CN1C(=O)/C(=C/c2ccc3c(c2)OCO3)N=C1Nc1ccc(O)cc1

>  <Name>  (691) 
nan

>  <Pocket>  (691) 
nan

>  <ATP_Site>  (691) 
nan

>  <Peripheral>  (691) 
nan

>  <Num_H_Atoms_ProtBoundConf>  (691) 
nan

>  <Num_Resolved_Atoms>  (691) 
nan

>  <Num_Not_Resolved_Atoms>  (691) 
nan

$$$$
CHEMBL2392368
     RDKit          3D

  0  0  0  0  0  0  0  0  0  0999 V3000
M  V30 BEGIN CTAB
M  V30 COUNTS 38 41 0 0 0
M  V30 BEGIN ATOM
M  V30 1 F 6.063379 -0.925251 4.422104 0
M  V30 2 C 5.910865 -0.792275 3.042337 0
M  V30 3 F 6.067494 -2.055556 2.505229 0
M  V30 4 F 6.940133 -0.002229 2.594688 0
M  V30 5 C 4.568051 -0.231194 2.772969 0
M  V30 6 C 3.726159 0.194560 3.781703 0
M  V30 7 C 2.474399 0.714697 3.494153 0
M  V30 8 Br 1.313280 1.302923 4.903827 0
M  V30 9 C 2.009514 0.831888 2.184191 0
M  V30 10 C 2.850827 0.404914 1.151872 0
M  V30 11 N 2.399366 0.513714 -0.194086 0
M  V30 12 C 1.095285 1.063007 -0.380680 0
M  V30 13 N 0.847403 2.395139 -0.551452 0
M  V30 14 C -0.404092 2.846081 -0.721772 0
M  V30 15 C -1.424132 1.912387 -0.717151 0
M  V30 16 C -1.206735 0.564773 -0.547613 0
M  V30 17 C -2.284812 -0.417589 -0.543053 0
M  V30 18 C -3.614455 -0.138639 -0.701961 0
M  V30 19 C -4.558415 -1.143202 -0.681933 0
M  V30 20 C -4.209119 -2.465386 -0.502291 0
M  V30 21 C -2.871280 -2.774451 -0.339310 0
M  V30 22 C -1.948292 -1.743812 -0.364213 0
M  V30 23 O -2.779878 -4.155204 -0.177991 0
M  V30 24 C -4.008685 -4.765203 -0.534683 0
M  V30 25 O -4.898874 -3.668620 -0.435854 0
M  V30 26 N 0.079501 0.212874 -0.384831 0
M  V30 27 C 4.088234 -0.106117 1.485953 0
M  V30 28 H 4.069077 0.111569 4.802564 0
M  V30 29 H 1.031378 1.240987 2.003129 0
M  V30 30 H 3.050070 0.185995 -0.947442 0
M  V30 31 H -0.601790 3.909271 -0.858053 0
M  V30 32 H -2.422224 2.293564 -0.855394 0
M  V30 33 H -3.902157 0.893200 -0.843589 0
M  V30 34 H -5.613990 -0.923858 -0.807809 0
M  V30 35 H -0.906697 -2.013053 -0.234171 0
M  V30 36 H -3.943571 -5.054584 -1.586155 0
M  V30 37 H -4.279325 -5.588031 0.150916 0
M  V30 38 H 4.768827 -0.448424 0.698031 0
M  V30 END ATOM
M  V30 BEGIN BOND
M  V30 1 1 1 2
M  V30 2 1 2 3
M  V30 3 1 2 4
M  V30 4 1 2 5
M  V30 5 2 5 6
M  V30 6 1 6 7
M  V30 7 1 7 8
M  V30 8 2 7 9
M  V30 9 1 9 10
M  V30 10 1 10 11
M  V30 11 1 11 12
M  V30 12 2 12 13
M  V30 13 1 13 14
M  V30 14 2 14 15
M  V30 15 1 15 16
M  V30 16 1 16 17
M  V30 17 2 17 18
M  V30 18 1 18 19
M  V30 19 2 19 20
M  V30 20 1 20 21
M  V30 21 2 21 22
M  V30 22 1 21 23
M  V30 23 1 23 24
M  V30 24 1 24 25
M  V30 25 2 16 26
M  V30 26 2 10 27
M  V30 27 1 27 5
M  V30 28 1 26 12
M  V30 29 1 22 17
M  V30 30 1 25 20
M  V30 31 1 6 28
M  V30 32 1 9 29
M  V30 33 1 11 30
M  V30 34 1 14 31
M  V30 35 1 15 32
M  V30 36 1 18 33
M  V30 37 1 19 34
M  V30 38 1 22 35
M  V30 39 1 24 36
M  V30 40 1 24 37
M  V30 41 1 27 38
M  V30 END BOND
M  V30 END CTAB
M  END
>  <Dataset>  (692) 
ChEMBL_Kinases

>  <Ligand_Instance>  (692) 
nan

>  <PDB_ID>  (692) 
nan

>  <Standardized_SMILES>  (692) 
FC(F)(F)c1cc(Br)cc(Nc2nccc(-c3ccc4c(c3)OCO4)n2)c1

>  <Name>  (692) 
nan

>  <Pocket>  (692) 
nan

>  <ATP_Site>  (692) 
nan

>  <Peripheral>  (692) 
nan

>  <Num_H_Atoms_ProtBoundConf>  (692) 
nan

>  <Num_Resolved_Atoms>  (692) 
nan

>  <Num_Not_Resolved_Atoms>  (692) 
nan

$$$$
CHEMBL4099677
     RDKit          3D

  0  0  0  0  0  0  0  0  0  0999 V3000
M  V30 BEGIN CTAB
M  V30 COUNTS 27 29 0 0 0
M  V30 BEGIN ATOM
M  V30 1 F -1.910625 -3.290952 3.979252 0
M  V30 2 C -0.722173 -2.872509 3.505125 0
M  V30 3 C 0.370626 -3.311230 4.259333 0
M  V30 4 C 1.633704 -2.908282 3.815807 0
M  V30 5 C 1.780374 -2.118671 2.690716 0
M  V30 6 N 2.867900 -1.595929 2.054760 0
M  V30 7 C 2.431880 -0.894041 0.992402 0
M  V30 8 C 1.037702 -0.968433 0.946655 0
M  V30 9 C 0.207426 -0.325475 -0.073878 0
M  V30 10 C -0.835604 -1.049267 -0.662747 0
M  V30 11 C -1.605888 -0.416704 -1.625868 0
M  V30 12 C -1.321396 0.888307 -1.966557 0
M  V30 13 C -0.297838 1.617373 -1.397181 0
M  V30 14 C -0.044791 3.031230 -1.814763 0
M  V30 15 F -0.522556 3.827617 -0.767393 0
M  V30 16 F 1.279838 3.293633 -2.038413 0
M  V30 17 F -0.850976 3.316205 -2.903999 0
M  V30 18 C 0.459857 0.991027 -0.447938 0
M  V30 19 N 0.682018 -1.734751 2.015100 0
M  V30 20 N -0.536048 -2.096545 2.404095 0
M  V30 21 H 0.281991 -3.929909 5.143756 0
M  V30 22 H 2.536293 -3.187369 4.318388 0
M  V30 23 H 3.094062 -0.373733 0.313199 0
M  V30 24 H -1.061425 -2.071121 -0.398666 0
M  V30 25 H -2.443132 -0.900226 -2.142667 0
M  V30 26 H -1.922682 1.381094 -2.717921 0
M  V30 27 H 1.257124 1.554297 -0.002364 0
M  V30 END ATOM
M  V30 BEGIN BOND
M  V30 1 1 1 2
M  V30 2 1 2 3
M  V30 3 2 3 4
M  V30 4 1 4 5
M  V30 5 2 5 6
M  V30 6 1 6 7
M  V30 7 2 7 8
M  V30 8 1 8 9
M  V30 9 2 9 10
M  V30 10 1 10 11
M  V30 11 2 11 12
M  V30 12 1 12 13
M  V30 13 1 13 14
M  V30 14 1 14 15
M  V30 15 1 14 16
M  V30 16 1 14 17
M  V30 17 2 13 18
M  V30 18 1 8 19
M  V30 19 1 19 20
M  V30 20 2 20 2
M  V30 21 1 19 5
M  V30 22 1 18 9
M  V30 23 1 3 21
M  V30 24 1 4 22
M  V30 25 1 7 23
M  V30 26 1 10 24
M  V30 27 1 11 25
M  V30 28 1 12 26
M  V30 29 1 18 27
M  V30 END BOND
M  V30 END CTAB
M  END
>  <Dataset>  (693) 
ChEMBL_Kinases

>  <Ligand_Instance>  (693) 
nan

>  <PDB_ID>  (693) 
nan

>  <Standardized_SMILES>  (693) 
Fc1ccc2ncc(-c3cccc(C(F)(F)F)c3)n2n1

>  <Name>  (693) 
nan

>  <Pocket>  (693) 
nan

>  <ATP_Site>  (693) 
nan

>  <Peripheral>  (693) 
nan

>  <Num_H_Atoms_ProtBoundConf>  (693) 
nan

>  <Num_Resolved_Atoms>  (693) 
nan

>  <Num_Not_Resolved_Atoms>  (693) 
nan

$$$$
CHEMBL4853178
     RDKit          3D

  0  0  0  0  0  0  0  0  0  0999 V3000
M  V30 BEGIN CTAB
M  V30 COUNTS 51 55 0 0 0
M  V30 BEGIN ATOM
M  V30 1 C 3.112813 -3.534272 6.776017 0
M  V30 2 O 2.472915 -3.736184 5.529264 0
M  V30 3 C 2.949216 -3.184577 4.364295 0
M  V30 4 C 4.060649 -2.387168 4.200420 0
M  V30 5 C 4.455125 -1.880900 2.978891 0
M  V30 6 C 3.700286 -2.182409 1.839463 0
M  V30 7 C 4.211101 -1.591567 0.577101 0
M  V30 8 N 3.606976 -0.273333 0.428403 0
M  V30 9 C 2.284067 0.025017 0.017135 0
M  V30 10 O 1.487722 -0.905007 -0.268398 0
M  V30 11 C 1.829066 1.404147 -0.080633 0
M  V30 12 C 2.589784 2.535523 0.193506 0
M  V30 13 N 1.786526 3.609222 -0.021479 0
M  V30 14 C 0.567224 3.167157 -0.415860 0
M  V30 15 C -0.599952 3.815358 -0.757355 0
M  V30 16 C -1.757779 3.173747 -1.138457 0
M  V30 17 C -1.677206 1.787648 -1.159010 0
M  V30 18 C -2.878027 1.030785 -1.556979 0
M  V30 19 C -3.789239 1.528850 -2.472959 0
M  V30 20 C -4.877896 0.728713 -2.767727 0
M  V30 21 C -5.074849 -0.511283 -2.193347 0
M  V30 22 N -6.135055 -1.296785 -2.477055 0
M  V30 23 C -6.324966 -2.507488 -1.914815 0
M  V30 24 C -5.429234 -3.035651 -0.992356 0
M  V30 25 C -4.339818 -2.239224 -0.694668 0
M  V30 26 C -4.146857 -1.001760 -1.270099 0
M  V30 27 C -3.045562 -0.216570 -0.958029 0
M  V30 28 C -0.494325 1.139170 -0.812600 0
M  V30 29 N 0.607389 1.823842 -0.447496 0
M  V30 30 C 2.591863 -2.980632 2.016772 0
M  V30 31 C 2.199912 -3.482398 3.224394 0
M  V30 32 H 2.796924 -2.570423 7.223697 0
M  V30 33 H 2.817197 -4.340331 7.480969 0
M  V30 34 H 4.207774 -3.541921 6.679893 0
M  V30 35 H 4.572226 -2.217713 5.153328 0
M  V30 36 H 5.359357 -1.260536 2.996635 0
M  V30 37 H 3.950890 -2.249510 -0.284049 0
M  V30 38 H 5.303246 -1.525460 0.586971 0
M  V30 39 H 4.226633 0.561428 0.653323 0
M  V30 40 H 3.617530 2.606689 0.516238 0
M  V30 41 H -0.566220 4.904125 -0.710968 0
M  V30 42 H -2.669903 3.699650 -1.404545 0
M  V30 43 H -3.641200 2.483395 -2.917261 0
M  V30 44 H -5.620686 1.065331 -3.474761 0
M  V30 45 H -7.218775 -3.046623 -2.224186 0
M  V30 46 H -5.609067 -4.002714 -0.562608 0
M  V30 47 H -3.625974 -2.627753 0.022285 0
M  V30 48 H -2.380485 -0.649713 -0.249652 0
M  V30 49 H -0.553825 0.061231 -0.866648 0
M  V30 50 H 2.035135 -3.195121 1.116539 0
M  V30 51 H 1.305058 -4.102708 3.243124 0
M  V30 END ATOM
M  V30 BEGIN BOND
M  V30 1 1 1 2
M  V30 2 1 2 3
M  V30 3 2 3 4
M  V30 4 1 4 5
M  V30 5 2 5 6
M  V30 6 1 6 7
M  V30 7 1 7 8
M  V30 8 1 8 9
M  V30 9 2 9 10
M  V30 10 1 9 11
M  V30 11 2 11 12
M  V30 12 1 12 13
M  V30 13 2 13 14
M  V30 14 1 14 15
M  V30 15 2 15 16
M  V30 16 1 16 17
M  V30 17 1 17 18
M  V30 18 2 18 19
M  V30 19 1 19 20
M  V30 20 2 20 21
M  V30 21 1 21 22
M  V30 22 2 22 23
M  V30 23 1 23 24
M  V30 24 2 24 25
M  V30 25 1 25 26
M  V30 26 2 26 27
M  V30 27 2 17 28
M  V30 28 1 28 29
M  V30 29 1 6 30
M  V30 30 2 30 31
M  V30 31 1 31 3
M  V30 32 1 29 11
M  V30 33 1 29 14
M  V30 34 1 27 18
M  V30 35 1 26 21
M  V30 36 1 1 32
M  V30 37 1 1 33
M  V30 38 1 1 34
M  V30 39 1 4 35
M  V30 40 1 5 36
M  V30 41 1 7 37
M  V30 42 1 7 38
M  V30 43 1 8 39
M  V30 44 1 12 40
M  V30 45 1 15 41
M  V30 46 1 16 42
M  V30 47 1 19 43
M  V30 48 1 20 44
M  V30 49 1 23 45
M  V30 50 1 24 46
M  V30 51 1 25 47
M  V30 52 1 27 48
M  V30 53 1 28 49
M  V30 54 1 30 50
M  V30 55 1 31 51
M  V30 END BOND
M  V30 END CTAB
M  END
>  <Dataset>  (694) 
ChEMBL_Kinases

>  <Ligand_Instance>  (694) 
nan

>  <PDB_ID>  (694) 
nan

>  <Standardized_SMILES>  (694) 
COc1ccc(CNC(=O)c2cnc3ccc(-c4ccc5ncccc5c4)cn23)cc1

>  <Name>  (694) 
nan

>  <Pocket>  (694) 
nan

>  <ATP_Site>  (694) 
nan

>  <Peripheral>  (694) 
nan

>  <Num_H_Atoms_ProtBoundConf>  (694) 
nan

>  <Num_Resolved_Atoms>  (694) 
nan

>  <Num_Not_Resolved_Atoms>  (694) 
nan

$$$$
CHEMBL460702
     RDKit          3D

  0  0  0  0  0  0  0  0  0  0999 V3000
M  V30 BEGIN CTAB
M  V30 COUNTS 55 58 0 0 0
M  V30 BEGIN ATOM
M  V30 1 C -0.211405 -0.255884 5.481888 0
M  V30 2 C 0.892990 -0.861317 4.657734 0
M  V30 3 O 0.821361 -0.517475 3.287880 0
M  V30 4 C 0.884064 0.770351 2.790571 0
M  V30 5 C 1.033026 1.838117 3.684370 0
M  V30 6 C 1.105090 3.149743 3.284017 0
M  V30 7 N 1.028457 3.423350 1.961068 0
M  V30 8 C 1.098808 4.769408 1.507033 0
M  V30 9 C 2.154168 5.362137 0.843220 0
M  V30 10 C 2.096461 6.686184 0.454110 0
M  V30 11 C 0.954254 7.416714 0.742232 0
M  V30 12 F 0.931755 8.716640 0.344849 0
M  V30 13 C -0.111335 6.824384 1.410545 0
M  V30 14 C -0.042953 5.510842 1.791597 0
M  V30 15 C 0.885943 2.391084 1.116154 0
M  V30 16 O 0.820815 2.705200 -0.093230 0
M  V30 17 C 0.808014 1.070264 1.447276 0
M  V30 18 C 0.653619 -0.052201 0.542071 0
M  V30 19 O 0.601288 -1.220127 1.047978 0
M  V30 20 N 0.544901 -0.090344 -0.871469 0
M  V30 21 C 0.409137 -1.448559 -1.280543 0
M  V30 22 C -0.881583 -1.929116 -1.361372 0
M  V30 23 C -1.126145 -3.224158 -1.745074 0
M  V30 24 C -0.102639 -4.089366 -2.062151 0
M  V30 25 O -0.089163 -5.390417 -2.459793 0
M  V30 26 C -1.125162 -6.251345 -2.651232 0
M  V30 27 C -1.407267 -6.838162 -3.883870 0
M  V30 28 C -2.443161 -7.716780 -4.131898 0
M  V30 29 N -3.269258 -8.056233 -3.118592 0
M  V30 30 C -3.069700 -7.536308 -1.894502 0
M  V30 31 N -3.947502 -7.895403 -0.812528 0
M  V30 32 C -2.033538 -6.664264 -1.668662 0
M  V30 33 Cl -1.827005 -6.036142 -0.047439 0
M  V30 34 C 1.205300 -3.596108 -1.978438 0
M  V30 35 F 2.357415 -4.295155 -2.251059 0
M  V30 36 C 1.468955 -2.276977 -1.588426 0
M  V30 37 H -0.872782 -1.100192 5.804446 0
M  V30 38 H -0.880671 0.394486 4.879986 0
M  V30 39 H 0.186421 0.225087 6.378585 0
M  V30 40 H 0.943975 -1.956418 4.797832 0
M  V30 41 H 1.864077 -0.466471 5.050785 0
M  V30 42 H 1.104796 1.717261 4.749491 0
M  V30 43 H 1.219826 3.979649 3.966384 0
M  V30 44 H 2.999378 4.690713 0.670944 0
M  V30 45 H 2.948364 7.085283 -0.056844 0
M  V30 46 H -0.940294 7.480362 1.580336 0
M  V30 47 H -0.921706 5.166381 2.297563 0
M  V30 48 H 0.579103 0.817057 -1.351484 0
M  V30 49 H -1.770478 -1.357845 -1.140884 0
M  V30 50 H -2.088648 -3.675079 -1.837871 0
M  V30 51 H -0.734905 -6.562001 -4.708738 0
M  V30 52 H -2.530609 -8.090940 -5.159461 0
M  V30 53 H -4.111063 -8.745942 -0.231042 0
M  V30 54 H -4.571597 -7.074188 -0.565258 0
M  V30 55 H 2.453888 -1.860714 -1.511839 0
M  V30 END ATOM
M  V30 BEGIN BOND
M  V30 1 1 1 2
M  V30 2 1 2 3
M  V30 3 1 3 4
M  V30 4 1 4 5
M  V30 5 2 5 6
M  V30 6 1 6 7
M  V30 7 1 7 8
M  V30 8 2 8 9
M  V30 9 1 9 10
M  V30 10 2 10 11
M  V30 11 1 11 12
M  V30 12 1 11 13
M  V30 13 2 13 14
M  V30 14 1 7 15
M  V30 15 2 15 16
M  V30 16 1 15 17
M  V30 17 1 17 18
M  V30 18 2 18 19
M  V30 19 1 18 20
M  V30 20 1 20 21
M  V30 21 2 21 22
M  V30 22 1 22 23
M  V30 23 2 23 24
M  V30 24 1 24 25
M  V30 25 1 25 26
M  V30 26 2 26 27
M  V30 27 1 27 28
M  V30 28 2 28 29
M  V30 29 1 29 30
M  V30 30 1 30 31
M  V30 31 2 30 32
M  V30 32 1 32 33
M  V30 33 1 24 34
M  V30 34 1 34 35
M  V30 35 2 34 36
M  V30 36 2 17 4
M  V30 37 1 36 21
M  V30 38 1 14 8
M  V30 39 1 32 26
M  V30 40 1 1 37
M  V30 41 1 1 38
M  V30 42 1 1 39
M  V30 43 1 2 40
M  V30 44 1 2 41
M  V30 45 1 5 42
M  V30 46 1 6 43
M  V30 47 1 9 44
M  V30 48 1 10 45
M  V30 49 1 13 46
M  V30 50 1 14 47
M  V30 51 1 20 48
M  V30 52 1 22 49
M  V30 53 1 23 50
M  V30 54 1 27 51
M  V30 55 1 28 52
M  V30 56 1 31 53
M  V30 57 1 31 54
M  V30 58 1 36 55
M  V30 END BOND
M  V30 END CTAB
M  END
>  <Dataset>  (695) 
ChEMBL_Kinases

>  <Ligand_Instance>  (695) 
nan

>  <PDB_ID>  (695) 
nan

>  <Standardized_SMILES>  (695) 
CCOc1ccn(-c2ccc(F)cc2)c(=O)c1C(=O)Nc1ccc(Oc2ccnc(N)c2Cl)c(F)c1

>  <Name>  (695) 
BMS-777607

>  <Pocket>  (695) 
nan

>  <ATP_Site>  (695) 
nan

>  <Peripheral>  (695) 
nan

>  <Num_H_Atoms_ProtBoundConf>  (695) 
nan

>  <Num_Resolved_Atoms>  (695) 
nan

>  <Num_Not_Resolved_Atoms>  (695) 
nan

$$$$
CHEMBL2392367
     RDKit          3D

  0  0  0  0  0  0  0  0  0  0999 V3000
M  V30 BEGIN CTAB
M  V30 COUNTS 38 41 0 0 0
M  V30 BEGIN ATOM
M  V30 1 Cl -5.031236 -2.441826 1.574755 0
M  V30 2 C -3.440207 -2.863663 0.997024 0
M  V30 3 C -3.187903 -3.722850 -0.047355 0
M  V30 4 C -1.904356 -4.029611 -0.473981 0
M  V30 5 C -0.838134 -3.438681 0.188631 0
M  V30 6 C 0.479695 -3.862127 -0.371032 0
M  V30 7 N 0.883881 -3.007952 -1.467326 0
M  V30 8 C 1.169928 -1.620141 -1.502601 0
M  V30 9 N 1.510775 -1.069197 -2.705793 0
M  V30 10 C 1.796166 0.236364 -2.802423 0
M  V30 11 C 1.742834 1.023282 -1.672674 0
M  V30 12 C 1.404272 0.497959 -0.453511 0
M  V30 13 C 1.362275 1.360326 0.717062 0
M  V30 14 C 1.647854 2.705645 0.652947 0
M  V30 15 C 1.616386 3.543085 1.748449 0
M  V30 16 C 1.286797 3.050988 2.993293 0
M  V30 17 C 1.170399 3.612440 4.243988 0
M  V30 18 N 0.815159 2.632020 5.089104 0
M  V30 19 N 0.710546 1.503271 4.410162 0
M  V30 20 C 0.992504 1.708487 3.107659 0
M  V30 21 C 1.039122 0.915571 1.979422 0
M  V30 22 N 1.131871 -0.818182 -0.437241 0
M  V30 23 C -1.062633 -2.569668 1.244090 0
M  V30 24 C -2.366202 -2.296749 1.630631 0
M  V30 25 Cl -2.466043 -1.173575 2.986143 0
M  V30 26 H -4.079501 -4.143954 -0.514017 0
M  V30 27 H -1.833057 -4.721281 -1.308836 0
M  V30 28 H 1.209726 -3.687379 0.479387 0
M  V30 29 H 0.473597 -4.919145 -0.611977 0
M  V30 30 H 0.969037 -3.547808 -2.380753 0
M  V30 31 H 2.056727 0.585169 -3.799114 0
M  V30 32 H 1.990384 2.044971 -1.876222 0
M  V30 33 H 1.914051 3.197335 -0.248191 0
M  V30 34 H 1.841774 4.598745 1.691817 0
M  V30 35 H 1.346889 4.670868 4.453048 0
M  V30 36 H 0.446894 0.556724 4.795703 0
M  V30 37 H 0.801916 -0.105995 2.148839 0
M  V30 38 H -0.127463 -2.224598 1.623074 0
M  V30 END ATOM
M  V30 BEGIN BOND
M  V30 1 1 1 2
M  V30 2 2 2 3
M  V30 3 1 3 4
M  V30 4 2 4 5
M  V30 5 1 5 6
M  V30 6 1 6 7
M  V30 7 1 7 8
M  V30 8 2 8 9
M  V30 9 1 9 10
M  V30 10 2 10 11
M  V30 11 1 11 12
M  V30 12 1 12 13
M  V30 13 2 13 14
M  V30 14 1 14 15
M  V30 15 2 15 16
M  V30 16 1 16 17
M  V30 17 2 17 18
M  V30 18 1 18 19
M  V30 19 1 19 20
M  V30 20 2 20 21
M  V30 21 2 12 22
M  V30 22 1 5 23
M  V30 23 2 23 24
M  V30 24 1 24 25
M  V30 25 1 24 2
M  V30 26 1 22 8
M  V30 27 1 21 13
M  V30 28 1 20 16
M  V30 29 1 3 26
M  V30 30 1 4 27
M  V30 31 1 6 28
M  V30 32 1 6 29
M  V30 33 1 7 30
M  V30 34 1 10 31
M  V30 35 1 11 32
M  V30 36 1 14 33
M  V30 37 1 15 34
M  V30 38 1 17 35
M  V30 39 1 19 36
M  V30 40 1 21 37
M  V30 41 1 23 38
M  V30 END BOND
M  V30 END CTAB
M  END
>  <Dataset>  (696) 
ChEMBL_Kinases

>  <Ligand_Instance>  (696) 
nan

>  <PDB_ID>  (696) 
nan

>  <Standardized_SMILES>  (696) 
Clc1ccc(CNc2nccc(-c3ccc4cn[nH]c4c3)n2)cc1Cl

>  <Name>  (696) 
nan

>  <Pocket>  (696) 
nan

>  <ATP_Site>  (696) 
nan

>  <Peripheral>  (696) 
nan

>  <Num_H_Atoms_ProtBoundConf>  (696) 
nan

>  <Num_Resolved_Atoms>  (696) 
nan

>  <Num_Not_Resolved_Atoms>  (696) 
nan

$$$$
CHEMBL3797466
     RDKit          3D

  0  0  0  0  0  0  0  0  0  0999 V3000
M  V30 BEGIN CTAB
M  V30 COUNTS 46 49 0 0 0
M  V30 BEGIN ATOM
M  V30 1 C 3.745869 -3.987054 2.489228 0
M  V30 2 C 4.078251 -3.024312 3.564400 0
M  V30 3 C 4.695426 -3.490683 4.852855 0
M  V30 4 C 3.836121 -1.732481 3.407171 0
M  V30 5 C 3.243744 -1.261998 2.177643 0
M  V30 6 O 2.918499 -1.951553 1.204894 0
M  V30 7 N 2.966446 0.121056 1.967272 0
M  V30 8 C 2.382903 0.385471 0.693590 0
M  V30 9 C 3.355243 0.644001 -0.290353 0
M  V30 10 C 2.932412 0.916633 -1.573415 0
M  V30 11 C 1.559435 0.917605 -1.810407 0
M  V30 12 C 0.580412 0.670865 -0.879948 0
M  V30 13 C 1.061619 0.412511 0.349535 0
M  V30 14 C -0.683004 0.772152 -1.544318 0
M  V30 15 C -1.825066 0.603354 -0.986998 0
M  V30 16 N -3.059858 0.710364 -1.672084 0
M  V30 17 C -4.180294 0.477776 -0.826668 0
M  V30 18 C -5.544798 0.491579 -1.118937 0
M  V30 19 C -6.384287 0.222546 -0.063805 0
M  V30 20 C -5.920209 -0.043974 1.200689 0
M  V30 21 C -4.563727 -0.041746 1.420260 0
M  V30 22 C -3.634349 0.219079 0.416856 0
M  V30 23 C -2.190339 0.286339 0.361876 0
M  V30 24 N -1.521873 0.082694 1.381450 0
M  V30 25 O -2.003502 -0.210801 2.605936 0
M  V30 26 C -0.414432 1.095719 -2.936726 0
M  V30 27 O -1.217231 1.272735 -3.859575 0
M  V30 28 N 0.993545 1.187484 -3.105740 0
M  V30 29 H 4.286783 -3.815757 1.543129 0
M  V30 30 H 4.025418 -5.019071 2.846668 0
M  V30 31 H 2.650436 -4.023505 2.252326 0
M  V30 32 H 4.628252 -4.599491 4.921149 0
M  V30 33 H 5.755948 -3.161651 4.812611 0
M  V30 34 H 4.192726 -3.083031 5.732153 0
M  V30 35 H 4.071830 -1.027253 4.176698 0
M  V30 36 H 3.185663 0.853863 2.707079 0
M  V30 37 H 4.416630 0.641648 -0.100017 0
M  V30 38 H 3.675005 1.114022 -2.324626 0
M  V30 39 H 0.531910 0.201789 1.195741 0
M  V30 40 H -3.166896 0.933597 -2.683560 0
M  V30 41 H -5.911642 0.698058 -2.099816 0
M  V30 42 H -7.432975 0.234219 -0.293193 0
M  V30 43 H -6.654957 -0.244100 1.966917 0
M  V30 44 H -4.291658 -0.256764 2.423098 0
M  V30 45 H -1.755164 0.349278 3.410293 0
M  V30 46 H 1.474028 1.412318 -4.023430 0
M  V30 END ATOM
M  V30 BEGIN BOND
M  V30 1 1 1 2
M  V30 2 1 2 3
M  V30 3 2 2 4 CFG=2
M  V30 4 1 4 5
M  V30 5 2 5 6
M  V30 6 1 5 7
M  V30 7 1 7 8
M  V30 8 2 8 9
M  V30 9 1 9 10
M  V30 10 2 10 11
M  V30 11 1 11 12
M  V30 12 2 12 13
M  V30 13 1 12 14
M  V30 14 2 14 15
M  V30 15 1 15 16
M  V30 16 1 16 17
M  V30 17 2 17 18
M  V30 18 1 18 19
M  V30 19 2 19 20
M  V30 20 1 20 21
M  V30 21 2 21 22
M  V30 22 1 22 23
M  V30 23 2 23 24
M  V30 24 1 24 25
M  V30 25 1 14 26
M  V30 26 2 26 27
M  V30 27 1 26 28
M  V30 28 1 13 8
M  V30 29 1 23 15
M  V30 30 1 28 11
M  V30 31 1 22 17
M  V30 32 1 1 29
M  V30 33 1 1 30
M  V30 34 1 1 31
M  V30 35 1 3 32
M  V30 36 1 3 33
M  V30 37 1 3 34
M  V30 38 1 4 35
M  V30 39 1 7 36
M  V30 40 1 9 37
M  V30 41 1 10 38
M  V30 42 1 13 39
M  V30 43 1 16 40
M  V30 44 1 18 41
M  V30 45 1 19 42
M  V30 46 1 20 43
M  V30 47 1 21 44
M  V30 48 1 25 45
M  V30 49 1 28 46
M  V30 END BOND
M  V30 END CTAB
M  END
>  <Dataset>  (697) 
ChEMBL_Kinases

>  <Ligand_Instance>  (697) 
nan

>  <PDB_ID>  (697) 
nan

>  <Standardized_SMILES>  (697) 
CC(C)=CC(=O)Nc1ccc2c(c1)/C(=C1/Nc3ccccc3/C1=N\O)C(=O)N2

>  <Name>  (697) 
nan

>  <Pocket>  (697) 
nan

>  <ATP_Site>  (697) 
nan

>  <Peripheral>  (697) 
nan

>  <Num_H_Atoms_ProtBoundConf>  (697) 
nan

>  <Num_Resolved_Atoms>  (697) 
nan

>  <Num_Not_Resolved_Atoms>  (697) 
nan

$$$$
CHEMBL4741442
     RDKit          3D

  0  0  0  0  0  0  0  0  0  0999 V3000
M  V30 BEGIN CTAB
M  V30 COUNTS 39 40 0 0 0
M  V30 BEGIN ATOM
M  V30 1 C 0.047702 -4.588612 -0.139545 0
M  V30 2 C 1.100835 -4.769597 0.904127 0 CFG=2
M  V30 3 C 1.496733 -6.243760 1.043190 0
M  V30 4 O 1.859356 -6.781170 -0.180816 0
M  V30 5 N 0.743464 -4.302448 2.213970 0
M  V30 6 C 0.410589 -2.921325 2.416331 0
M  V30 7 N 0.433833 -2.071101 1.383503 0
M  V30 8 C 0.146087 -0.772082 1.445082 0
M  V30 9 N 0.214720 0.006355 0.259283 0
M  V30 10 C -0.044740 1.388780 0.086925 0
M  V30 11 C 0.072915 1.985731 -1.151315 0
M  V30 12 C -0.169611 3.322508 -1.360450 0
M  V30 13 C -0.549531 4.148638 -0.324152 0
M  V30 14 S -0.852720 5.847419 -0.615113 0
M  V30 15 N 0.611919 6.736153 -0.401655 0
M  V30 16 O -1.416360 6.109551 -1.973355 0
M  V30 17 O -1.823232 6.337340 0.415509 0
M  V30 18 C -0.683149 3.605545 0.937033 0
M  V30 19 C -0.426341 2.260129 1.083095 0
M  V30 20 N -0.190855 -0.308364 2.655063 0
M  V30 21 C -0.237073 -1.095168 3.736177 0
M  V30 22 C 0.061888 -2.425849 3.651772 0
M  V30 23 Br 0.020814 -3.600992 5.124666 0
M  V30 24 H 0.207445 -5.347355 -0.956134 0
M  V30 25 H -0.948030 -4.829975 0.296725 0
M  V30 26 H 0.089596 -3.576160 -0.598547 0
M  V30 27 H 2.054161 -4.247658 0.598953 0
M  V30 28 H 2.376005 -6.315200 1.715008 0
M  V30 29 H 0.673374 -6.829319 1.499769 0
M  V30 30 H 1.608211 -7.751889 -0.242081 0
M  V30 31 H 0.709553 -4.923940 3.054526 0
M  V30 32 H 0.495912 -0.498096 -0.623531 0
M  V30 33 H 0.371769 1.386275 -2.020651 0
M  V30 34 H -0.056336 3.724122 -2.366397 0
M  V30 35 H 0.831167 6.921341 0.592355 0
M  V30 36 H 1.387212 6.328415 -0.953888 0
M  V30 37 H -0.977565 4.242356 1.743689 0
M  V30 38 H -0.550302 1.907895 2.090086 0
M  V30 39 H -0.512449 -0.699298 4.706907 0
M  V30 END ATOM
M  V30 BEGIN BOND
M  V30 1 1 1 2
M  V30 2 1 2 3
M  V30 3 1 3 4
M  V30 4 1 2 5
M  V30 5 1 5 6
M  V30 6 2 6 7
M  V30 7 1 7 8
M  V30 8 1 8 9
M  V30 9 1 9 10
M  V30 10 2 10 11
M  V30 11 1 11 12
M  V30 12 2 12 13
M  V30 13 1 13 14
M  V30 14 1 14 15
M  V30 15 2 14 16
M  V30 16 2 14 17
M  V30 17 1 13 18
M  V30 18 2 18 19
M  V30 19 2 8 20
M  V30 20 1 20 21
M  V30 21 2 21 22
M  V30 22 1 22 23
M  V30 23 1 22 6
M  V30 24 1 19 10
M  V30 25 1 1 24
M  V30 26 1 1 25
M  V30 27 1 1 26
M  V30 28 1 2 27 CFG=3
M  V30 29 1 3 28
M  V30 30 1 3 29
M  V30 31 1 4 30
M  V30 32 1 5 31
M  V30 33 1 9 32
M  V30 34 1 11 33
M  V30 35 1 12 34
M  V30 36 1 15 35
M  V30 37 1 15 36
M  V30 38 1 18 37
M  V30 39 1 19 38
M  V30 40 1 21 39
M  V30 END BOND
M  V30 END CTAB
M  END
>  <Dataset>  (698) 
ChEMBL_Kinases

>  <Ligand_Instance>  (698) 
nan

>  <PDB_ID>  (698) 
nan

>  <Standardized_SMILES>  (698) 
C[C@H](CO)Nc1nc(Nc2ccc(S(N)(=O)=O)cc2)ncc1Br

>  <Name>  (698) 
nan

>  <Pocket>  (698) 
nan

>  <ATP_Site>  (698) 
nan

>  <Peripheral>  (698) 
nan

>  <Num_H_Atoms_ProtBoundConf>  (698) 
nan

>  <Num_Resolved_Atoms>  (698) 
nan

>  <Num_Not_Resolved_Atoms>  (698) 
nan

$$$$
CHEMBL1922094
     RDKit          3D

  0  0  0  0  0  0  0  0  0  0999 V3000
M  V30 BEGIN CTAB
M  V30 COUNTS 65 69 0 0 0
M  V30 BEGIN ATOM
M  V30 1 C 0.325139 0.938091 2.548894 0
M  V30 2 C 0.343576 -0.415503 1.921456 0
M  V30 3 C 1.523279 -1.029869 1.828769 0
M  V30 4 C 2.902483 -0.664111 2.224527 0
M  V30 5 N 3.535823 0.267023 1.377548 0
M  V30 6 C 3.720009 -0.037887 0.022439 0
M  V30 7 C 3.256496 1.013582 -0.951535 0
M  V30 8 N 3.246847 2.341071 -0.322384 0
M  V30 9 C 2.436622 3.476960 -0.588390 0
M  V30 10 O 2.537572 4.581410 0.043374 0
M  V30 11 C 1.358271 3.665031 -1.578850 0 CFG=2
M  V30 12 C 0.115453 4.264451 -0.966460 0
M  V30 13 O 1.100770 2.546745 -2.358337 0
M  V30 14 C 4.226616 2.492923 0.736126 0
M  V30 15 C 3.808319 1.561677 1.855153 0
M  V30 16 S 1.164384 -2.588021 1.043501 0
M  V30 17 C -0.607148 -2.299252 0.887207 0
M  V30 18 C -1.597952 -3.108740 0.347229 0
M  V30 19 N -1.214740 -4.359357 -0.174047 0
M  V30 20 C -0.267368 -4.333648 -1.255768 0
M  V30 21 C 0.573321 -5.580606 -1.357037 0
M  V30 22 O -0.089786 -6.712380 -0.940588 0
M  V30 23 C -0.563004 -6.591423 0.367240 0
M  V30 24 C -1.728880 -5.624897 0.330501 0
M  V30 25 N -2.877814 -2.622843 0.363780 0
M  V30 26 C -3.041792 -1.383101 0.914814 0
M  V30 27 C -4.411098 -0.834681 0.944656 0
M  V30 28 C -4.651331 0.410178 1.487476 0
M  V30 29 N -5.944013 0.851369 1.478865 0
M  V30 30 C -6.919906 0.086747 0.958362 0
M  V30 31 N -8.194226 0.709440 1.036579 0
M  V30 32 N -6.672816 -1.127507 0.431063 0
M  V30 33 C -5.401754 -1.629989 0.407449 0
M  V30 34 N -2.049760 -0.657868 1.415636 0
M  V30 35 C -0.762112 -1.060947 1.438987 0
M  V30 36 H 0.883357 0.958226 3.484970 0
M  V30 37 H -0.718347 1.245764 2.813668 0
M  V30 38 H 0.766991 1.617696 1.803547 0
M  V30 39 H 2.792664 -0.198037 3.225044 0
M  V30 40 H 3.537248 -1.569155 2.300284 0
M  V30 41 H 3.179142 -0.976463 -0.215955 0
M  V30 42 H 4.813427 -0.262078 -0.134718 0
M  V30 43 H 3.980300 1.055129 -1.791238 0
M  V30 44 H 2.270239 0.768811 -1.394256 0
M  V30 45 H 1.757859 4.434337 -2.304147 0
M  V30 46 H 0.258178 4.238953 0.133963 0
M  V30 47 H -0.751705 3.655141 -1.294962 0
M  V30 48 H -0.025362 5.327858 -1.255430 0
M  V30 49 H 0.265219 2.084792 -2.112985 0
M  V30 50 H 5.219134 2.145661 0.389906 0
M  V30 51 H 4.336879 3.516750 1.087045 0
M  V30 52 H 3.035664 2.075728 2.427895 0
M  V30 53 H 4.695053 1.512013 2.553857 0
M  V30 54 H -0.860181 -4.219315 -2.192596 0
M  V30 55 H 0.416934 -3.481863 -1.226617 0
M  V30 56 H 0.814113 -5.725896 -2.435220 0
M  V30 57 H 1.527309 -5.492976 -0.814598 0
M  V30 58 H 0.196751 -6.256556 1.080946 0
M  V30 59 H -0.957047 -7.595152 0.646257 0
M  V30 60 H -2.470663 -6.016170 -0.393788 0
M  V30 61 H -2.197618 -5.496540 1.325412 0
M  V30 62 H -3.820171 0.972683 1.889466 0
M  V30 63 H -9.190514 0.415697 1.266126 0
M  V30 64 H -8.369131 1.718320 0.848000 0
M  V30 65 H -5.246261 -2.605232 -0.023318 0
M  V30 END ATOM
M  V30 BEGIN BOND
M  V30 1 1 1 2
M  V30 2 2 2 3
M  V30 3 1 3 4
M  V30 4 1 4 5
M  V30 5 1 5 6
M  V30 6 1 6 7
M  V30 7 1 7 8
M  V30 8 1 8 9
M  V30 9 2 9 10
M  V30 10 1 9 11
M  V30 11 1 11 12
M  V30 12 1 11 13
M  V30 13 1 8 14
M  V30 14 1 14 15
M  V30 15 1 3 16
M  V30 16 1 16 17
M  V30 17 2 17 18
M  V30 18 1 18 19
M  V30 19 1 19 20
M  V30 20 1 20 21
M  V30 21 1 21 22
M  V30 22 1 22 23
M  V30 23 1 23 24
M  V30 24 1 18 25
M  V30 25 2 25 26
M  V30 26 1 26 27
M  V30 27 2 27 28
M  V30 28 1 28 29
M  V30 29 2 29 30
M  V30 30 1 30 31
M  V30 31 1 30 32
M  V30 32 2 32 33
M  V30 33 1 26 34
M  V30 34 2 34 35
M  V30 35 1 35 2
M  V30 36 1 15 5
M  V30 37 1 35 17
M  V30 38 1 24 19
M  V30 39 1 33 27
M  V30 40 1 1 36
M  V30 41 1 1 37
M  V30 42 1 1 38
M  V30 43 1 4 39
M  V30 44 1 4 40
M  V30 45 1 6 41
M  V30 46 1 6 42
M  V30 47 1 7 43
M  V30 48 1 7 44
M  V30 49 1 11 45 CFG=3
M  V30 50 1 12 46
M  V30 51 1 12 47
M  V30 52 1 12 48
M  V30 53 1 13 49
M  V30 54 1 14 50
M  V30 55 1 14 51
M  V30 56 1 15 52
M  V30 57 1 15 53
M  V30 58 1 20 54
M  V30 59 1 20 55
M  V30 60 1 21 56
M  V30 61 1 21 57
M  V30 62 1 23 58
M  V30 63 1 23 59
M  V30 64 1 24 60
M  V30 65 1 24 61
M  V30 66 1 28 62
M  V30 67 1 31 63
M  V30 68 1 31 64
M  V30 69 1 33 65
M  V30 END BOND
M  V30 END CTAB
M  END
>  <Dataset>  (699) 
ChEMBL_Kinases

>  <Ligand_Instance>  (699) 
nan

>  <PDB_ID>  (699) 
nan

>  <Standardized_SMILES>  (699) 
Cc1c(CN2CCN(C(=O)[C@H](C)O)CC2)sc2c(N3CCOCC3)nc(-c3cnc(N)nc3)nc12

>  <Name>  (699) 
APITOLISIB

>  <Pocket>  (699) 
nan

>  <ATP_Site>  (699) 
nan

>  <Peripheral>  (699) 
nan

>  <Num_H_Atoms_ProtBoundConf>  (699) 
nan

>  <Num_Resolved_Atoms>  (699) 
nan

>  <Num_Not_Resolved_Atoms>  (699) 
nan

$$$$
CHEMBL3753668
     RDKit          3D

  0  0  0  0  0  0  0  0  0  0999 V3000
M  V30 BEGIN CTAB
M  V30 COUNTS 29 31 0 0 0
M  V30 BEGIN ATOM
M  V30 1 N 2.275392 -1.221551 2.282459 0
M  V30 2 C 1.412501 -0.987192 1.534784 0
M  V30 3 C 0.360962 -0.701732 0.633808 0
M  V30 4 C 0.482422 -1.172895 -0.599988 0
M  V30 5 C 1.656725 -1.955942 -0.997346 0
M  V30 6 C 2.151931 -3.018849 -0.256821 0
M  V30 7 C 3.297407 -3.677589 -0.708354 0
M  V30 8 C 3.977043 -3.335094 -1.857176 0
M  V30 9 N 3.451352 -2.313993 -2.516513 0
M  V30 10 C 2.360108 -1.620401 -2.166429 0
M  V30 11 C -0.842176 0.070142 0.943898 0
M  V30 12 C -1.838991 0.318597 0.028151 0
M  V30 13 N -2.816661 1.058373 0.588878 0
M  V30 14 C -2.488868 1.308527 1.870288 0
M  V30 15 N -3.093777 1.997618 2.894001 0
M  V30 16 C -2.401748 2.000373 4.042045 0
M  V30 17 C -1.198422 1.448086 4.406152 0
M  V30 18 C -0.609607 0.750338 3.326787 0
M  V30 19 C -1.266954 0.700798 2.099663 0
M  V30 20 H -0.253651 -1.027914 -1.408816 0
M  V30 21 H 1.635637 -3.327830 0.650668 0
M  V30 22 H 3.618358 -4.506682 -0.059443 0
M  V30 23 H 4.870419 -3.882256 -2.161896 0
M  V30 24 H 2.010155 -0.785091 -2.789317 0
M  V30 25 H -1.950527 0.030195 -1.005605 0
M  V30 26 H -3.718912 1.416748 0.149657 0
M  V30 27 H -2.929701 2.562700 4.825623 0
M  V30 28 H -0.761713 1.538254 5.384573 0
M  V30 29 H 0.334192 0.281863 3.514961 0
M  V30 END ATOM
M  V30 BEGIN BOND
M  V30 1 3 1 2
M  V30 2 1 2 3
M  V30 3 2 3 4
M  V30 4 1 4 5
M  V30 5 2 5 6
M  V30 6 1 6 7
M  V30 7 2 7 8
M  V30 8 1 8 9
M  V30 9 2 9 10
M  V30 10 1 3 11
M  V30 11 2 11 12
M  V30 12 1 12 13
M  V30 13 1 13 14
M  V30 14 2 14 15
M  V30 15 1 15 16
M  V30 16 2 16 17
M  V30 17 1 17 18
M  V30 18 2 18 19
M  V30 19 1 10 5
M  V30 20 1 19 11
M  V30 21 1 19 14
M  V30 22 1 4 20
M  V30 23 1 6 21
M  V30 24 1 7 22
M  V30 25 1 8 23
M  V30 26 1 10 24
M  V30 27 1 12 25
M  V30 28 1 13 26
M  V30 29 1 16 27
M  V30 30 1 17 28
M  V30 31 1 18 29
M  V30 END BOND
M  V30 END CTAB
M  END
>  <Dataset>  (700) 
ChEMBL_Kinases

>  <Ligand_Instance>  (700) 
nan

>  <PDB_ID>  (700) 
nan

>  <Standardized_SMILES>  (700) 
N#C/C(=C\c1cccnc1)c1c[nH]c2ncccc12

>  <Name>  (700) 
nan

>  <Pocket>  (700) 
nan

>  <ATP_Site>  (700) 
nan

>  <Peripheral>  (700) 
nan

>  <Num_H_Atoms_ProtBoundConf>  (700) 
nan

>  <Num_Resolved_Atoms>  (700) 
nan

>  <Num_Not_Resolved_Atoms>  (700) 
nan

$$$$
CHEMBL3797480
     RDKit          3D

  0  0  0  0  0  0  0  0  0  0999 V3000
M  V30 BEGIN CTAB
M  V30 COUNTS 48 51 0 0 0
M  V30 BEGIN ATOM
M  V30 1 C 3.896246 -5.573461 3.188105 0
M  V30 2 C 3.982050 -4.085506 2.829172 0
M  V30 3 C 3.122003 -3.350460 3.836675 0
M  V30 4 C 3.135847 -1.856587 3.571570 0
M  V30 5 C 2.621317 -1.532445 2.233180 0
M  V30 6 O 2.174463 -2.198162 1.263545 0
M  V30 7 N 2.589152 -0.154065 1.873182 0
M  V30 8 C 2.082511 0.144829 0.559431 0
M  V30 9 C 3.076867 0.162281 -0.428417 0
M  V30 10 C 2.681022 0.440516 -1.718776 0
M  V30 11 C 1.325031 0.687341 -1.969371 0
M  V30 12 C 0.332405 0.676394 -1.021495 0
M  V30 13 C 0.777817 0.400134 0.213136 0
M  V30 14 C -0.888034 0.974943 -1.697907 0
M  V30 15 C -2.050912 1.059305 -1.161787 0
M  V30 16 N -3.264241 1.353962 -1.821477 0
M  V30 17 C -4.395025 1.377652 -0.956447 0
M  V30 18 C -5.718846 1.626535 -1.247998 0
M  V30 19 C -6.574131 1.573778 -0.176920 0
M  V30 20 C -6.172077 1.295489 1.107056 0
M  V30 21 C -4.835733 1.059449 1.311743 0
M  V30 22 C -3.863563 1.083697 0.304958 0
M  V30 23 C -2.432312 0.885292 0.203360 0
M  V30 24 N -1.845245 0.617012 1.263746 0
M  V30 25 O -2.268640 0.466566 2.527221 0
M  V30 26 C -0.582302 1.166861 -3.102831 0
M  V30 27 O -1.346859 1.440083 -4.035363 0
M  V30 28 N 0.814770 0.987369 -3.286396 0
M  V30 29 H 2.889499 -5.946757 2.865514 0
M  V30 30 H 4.696688 -6.145649 2.695813 0
M  V30 31 H 3.913528 -5.620563 4.295500 0
M  V30 32 H 5.032636 -3.748989 3.016334 0
M  V30 33 H 3.682061 -3.901006 1.799587 0
M  V30 34 H 2.064699 -3.677170 3.725236 0
M  V30 35 H 3.426995 -3.585568 4.872490 0
M  V30 36 H 4.214473 -1.552520 3.604441 0
M  V30 37 H 2.638607 -1.293162 4.380941 0
M  V30 38 H 2.896247 0.672795 2.464414 0
M  V30 39 H 4.102812 -0.026843 -0.224789 0
M  V30 40 H 3.435964 0.453801 -2.468968 0
M  V30 41 H 0.203792 0.340815 1.074326 0
M  V30 42 H -3.317781 1.535899 -2.846858 0
M  V30 43 H -6.041468 1.843369 -2.240127 0
M  V30 44 H -7.621002 1.763099 -0.363307 0
M  V30 45 H -6.874861 1.260834 1.935870 0
M  V30 46 H -4.539814 0.845601 2.309997 0
M  V30 47 H -1.754078 -0.178962 3.132682 0
M  V30 48 H 1.321446 1.064964 -4.195267 0
M  V30 END ATOM
M  V30 BEGIN BOND
M  V30 1 1 1 2
M  V30 2 1 2 3
M  V30 3 1 3 4
M  V30 4 1 4 5
M  V30 5 2 5 6
M  V30 6 1 5 7
M  V30 7 1 7 8
M  V30 8 2 8 9
M  V30 9 1 9 10
M  V30 10 2 10 11
M  V30 11 1 11 12
M  V30 12 2 12 13
M  V30 13 1 12 14
M  V30 14 2 14 15
M  V30 15 1 15 16
M  V30 16 1 16 17
M  V30 17 2 17 18
M  V30 18 1 18 19
M  V30 19 2 19 20
M  V30 20 1 20 21
M  V30 21 2 21 22
M  V30 22 1 22 23
M  V30 23 2 23 24
M  V30 24 1 24 25
M  V30 25 1 14 26
M  V30 26 2 26 27
M  V30 27 1 26 28
M  V30 28 1 13 8
M  V30 29 1 23 15
M  V30 30 1 28 11
M  V30 31 1 22 17
M  V30 32 1 1 29
M  V30 33 1 1 30
M  V30 34 1 1 31
M  V30 35 1 2 32
M  V30 36 1 2 33
M  V30 37 1 3 34
M  V30 38 1 3 35
M  V30 39 1 4 36
M  V30 40 1 4 37
M  V30 41 1 7 38
M  V30 42 1 9 39
M  V30 43 1 10 40
M  V30 44 1 13 41
M  V30 45 1 16 42
M  V30 46 1 18 43
M  V30 47 1 19 44
M  V30 48 1 20 45
M  V30 49 1 21 46
M  V30 50 1 25 47
M  V30 51 1 28 48
M  V30 END BOND
M  V30 END CTAB
M  END
>  <Dataset>  (701) 
ChEMBL_Kinases

>  <Ligand_Instance>  (701) 
nan

>  <PDB_ID>  (701) 
nan

>  <Standardized_SMILES>  (701) 
CCCCC(=O)Nc1ccc2c(c1)/C(=C1/Nc3ccccc3/C1=N\O)C(=O)N2

>  <Name>  (701) 
nan

>  <Pocket>  (701) 
nan

>  <ATP_Site>  (701) 
nan

>  <Peripheral>  (701) 
nan

>  <Num_H_Atoms_ProtBoundConf>  (701) 
nan

>  <Num_Resolved_Atoms>  (701) 
nan

>  <Num_Not_Resolved_Atoms>  (701) 
nan

$$$$
CHEMBL2392365
     RDKit          3D

  0  0  0  0  0  0  0  0  0  0999 V3000
M  V30 BEGIN CTAB
M  V30 COUNTS 38 41 0 0 0
M  V30 BEGIN ATOM
M  V30 1 Br 3.193597 -3.380057 5.808057 0
M  V30 2 C 3.291171 -3.665723 3.904498 0
M  V30 3 C 4.020736 -4.628663 3.374052 0
M  V30 4 C 4.128162 -4.886451 2.002241 0
M  V30 5 Br 5.187358 -6.250893 1.260131 0
M  V30 6 C 3.379509 -4.018569 1.208243 0
M  V30 7 C 2.566427 -2.950692 1.705468 0
M  V30 8 C 1.751641 -1.997677 0.941128 0
M  V30 9 N 2.469174 -0.838787 0.513256 0
M  V30 10 C 1.978364 0.294243 -0.170878 0
M  V30 11 N 2.716991 1.271675 -0.834753 0
M  V30 12 C 2.042686 2.270801 -1.394015 0
M  V30 13 C 0.651619 2.406243 -1.354704 0
M  V30 14 C -0.022901 1.405441 -0.678198 0
M  V30 15 C -1.414733 1.891142 -0.748055 0
M  V30 16 C -2.379517 2.679804 -1.130477 0
M  V30 17 C -3.675715 2.738919 -0.841967 0
M  V30 18 C -4.192772 1.834668 0.016316 0
M  V30 19 C -3.364268 0.859466 0.582520 0
M  V30 20 C -2.016140 0.941969 0.164993 0
M  V30 21 O -4.223787 0.128898 1.389841 0
M  V30 22 C -5.573266 0.312264 0.988654 0
M  V30 23 O -5.511843 1.663196 0.493016 0
M  V30 24 N 0.625035 0.383493 -0.105518 0
M  V30 25 C 2.584412 -2.845652 3.108581 0
M  V30 26 H 4.612517 -5.310997 3.953844 0
M  V30 27 H 3.343972 -4.074108 0.133343 0
M  V30 28 H 1.348310 -2.585927 0.048712 0
M  V30 29 H 0.831977 -1.767320 1.523018 0
M  V30 30 H 3.497384 -0.704675 0.672531 0
M  V30 31 H 2.815731 2.906508 -1.862646 0
M  V30 32 H 0.408813 3.313907 -1.887848 0
M  V30 33 H -1.769312 3.321882 -1.806584 0
M  V30 34 H -4.195245 3.531387 -1.328235 0
M  V30 35 H -1.561635 0.086688 0.722739 0
M  V30 36 H -5.883782 -0.388466 0.219016 0
M  V30 37 H -6.183269 0.286070 1.933033 0
M  V30 38 H 1.997320 -2.055136 3.558828 0
M  V30 END ATOM
M  V30 BEGIN BOND
M  V30 1 1 1 2
M  V30 2 2 2 3
M  V30 3 1 3 4
M  V30 4 1 4 5
M  V30 5 2 4 6
M  V30 6 1 6 7
M  V30 7 1 7 8
M  V30 8 1 8 9
M  V30 9 1 9 10
M  V30 10 2 10 11
M  V30 11 1 11 12
M  V30 12 2 12 13
M  V30 13 1 13 14
M  V30 14 1 14 15
M  V30 15 2 15 16
M  V30 16 1 16 17
M  V30 17 2 17 18
M  V30 18 1 18 19
M  V30 19 2 19 20
M  V30 20 1 19 21
M  V30 21 1 21 22
M  V30 22 1 22 23
M  V30 23 2 14 24
M  V30 24 2 7 25
M  V30 25 1 25 2
M  V30 26 1 24 10
M  V30 27 1 20 15
M  V30 28 1 23 18
M  V30 29 1 3 26
M  V30 30 1 6 27
M  V30 31 1 8 28
M  V30 32 1 8 29
M  V30 33 1 9 30
M  V30 34 1 12 31
M  V30 35 1 13 32
M  V30 36 1 16 33
M  V30 37 1 17 34
M  V30 38 1 20 35
M  V30 39 1 22 36
M  V30 40 1 22 37
M  V30 41 1 25 38
M  V30 END BOND
M  V30 END CTAB
M  END
>  <Dataset>  (702) 
ChEMBL_Kinases

>  <Ligand_Instance>  (702) 
nan

>  <PDB_ID>  (702) 
nan

>  <Standardized_SMILES>  (702) 
Brc1cc(Br)cc(CNc2nccc(-c3ccc4c(c3)OCO4)n2)c1

>  <Name>  (702) 
nan

>  <Pocket>  (702) 
nan

>  <ATP_Site>  (702) 
nan

>  <Peripheral>  (702) 
nan

>  <Num_H_Atoms_ProtBoundConf>  (702) 
nan

>  <Num_Resolved_Atoms>  (702) 
nan

>  <Num_Not_Resolved_Atoms>  (702) 
nan

$$$$
CHEMBL2064628
     RDKit          3D

  0  0  0  0  0  0  0  0  0  0999 V3000
M  V30 BEGIN CTAB
M  V30 COUNTS 64 66 0 0 0
M  V30 BEGIN ATOM
M  V30 1 C -2.438898 -0.116996 4.599386 0
M  V30 2 N -1.055251 -0.661875 4.530908 0
M  V30 3 C -0.278073 0.275903 5.296788 0
M  V30 4 C -0.669467 -0.797998 3.149617 0
M  V30 5 C 0.625321 -1.494425 2.917215 0 CFG=1
M  V30 6 O 0.777745 -1.541616 1.475076 0
M  V30 7 C 0.770529 -2.731911 0.792384 0
M  V30 8 O 0.625186 -3.781609 1.506461 0
M  V30 9 N 0.933432 -2.539054 -0.630315 0
M  V30 10 C 1.099487 -1.345610 -1.468304 0
M  V30 11 C 0.045019 -1.542899 -2.479835 0
M  V30 12 C -0.912771 -1.070496 -3.352372 0
M  V30 13 N -1.192274 0.336090 -3.518797 0
M  V30 14 C -2.217451 0.710131 -2.573469 0
M  V30 15 O -2.603249 -0.252794 -1.857074 0
M  V30 16 C -2.735046 2.096699 -2.486007 0
M  V30 17 C -1.682910 3.110226 -2.186975 0
M  V30 18 C -3.708468 2.101696 -1.299764 0
M  V30 19 C -3.551394 2.433023 -3.708418 0
M  V30 20 N -1.512913 -2.116931 -3.993417 0
M  V30 21 N -0.961868 -3.248402 -3.551918 0
M  V30 22 C -0.027594 -2.930220 -2.645949 0
M  V30 23 C 0.987209 -3.518689 -1.726537 0
M  V30 24 C 2.303649 -3.552560 -2.423479 0
M  V30 25 C 0.581879 -4.887167 -1.239270 0
M  V30 26 C 1.823454 -0.978231 3.550778 0
M  V30 27 C 2.424103 -1.386535 4.748178 0
M  V30 28 C 3.585152 -0.804273 5.181928 0
M  V30 29 C 4.226972 0.200147 4.486165 0
M  V30 30 C 3.627824 0.605016 3.294520 0
M  V30 31 C 2.457913 0.037240 2.831091 0
M  V30 32 H -2.910272 -0.569269 5.482803 0
M  V30 33 H -2.939885 -0.508663 3.696966 0
M  V30 34 H -2.443934 0.968274 4.665777 0
M  V30 35 H -0.879053 1.107271 5.743526 0
M  V30 36 H 0.512330 0.766673 4.714422 0
M  V30 37 H 0.215717 -0.235474 6.168568 0
M  V30 38 H -0.693012 0.233818 2.728015 0
M  V30 39 H -1.510395 -1.369854 2.645711 0
M  V30 40 H 0.510037 -2.568427 3.276546 0
M  V30 41 H 0.927428 -0.411820 -0.919626 0
M  V30 42 H 2.118904 -1.277506 -1.894831 0
M  V30 43 H -0.793114 1.041328 -4.163161 0
M  V30 44 H -1.151395 3.476023 -3.088113 0
M  V30 45 H -0.954051 2.751353 -1.435079 0
M  V30 46 H -2.171436 4.012618 -1.752779 0
M  V30 47 H -3.216989 2.521761 -0.396249 0
M  V30 48 H -4.619230 2.688175 -1.541659 0
M  V30 49 H -4.046700 1.074427 -1.056016 0
M  V30 50 H -3.088458 3.191000 -4.368914 0
M  V30 51 H -3.776945 1.468897 -4.249986 0
M  V30 52 H -4.563456 2.827882 -3.429045 0
M  V30 53 H -1.280015 -4.170746 -3.917623 0
M  V30 54 H 2.316533 -2.992244 -3.357791 0
M  V30 55 H 3.055277 -3.093883 -1.720277 0
M  V30 56 H 2.613478 -4.604646 -2.527113 0
M  V30 57 H -0.476641 -4.859025 -0.877638 0
M  V30 58 H 0.600885 -5.576377 -2.080967 0
M  V30 59 H 1.219884 -5.172346 -0.396883 0
M  V30 60 H 1.859621 -2.176418 5.233436 0
M  V30 61 H 3.994373 -1.176794 6.129247 0
M  V30 62 H 5.136523 0.596286 4.908552 0
M  V30 63 H 4.191399 1.401552 2.797924 0
M  V30 64 H 2.105812 0.444894 1.897377 0
M  V30 END ATOM
M  V30 BEGIN BOND
M  V30 1 1 1 2
M  V30 2 1 2 3
M  V30 3 1 2 4
M  V30 4 1 4 5
M  V30 5 1 5 6
M  V30 6 1 6 7
M  V30 7 2 7 8
M  V30 8 1 7 9
M  V30 9 1 9 10
M  V30 10 1 10 11
M  V30 11 1 11 12
M  V30 12 1 12 13
M  V30 13 1 13 14
M  V30 14 2 14 15
M  V30 15 1 14 16
M  V30 16 1 16 17
M  V30 17 1 16 18
M  V30 18 1 16 19
M  V30 19 2 12 20
M  V30 20 1 20 21
M  V30 21 1 21 22
M  V30 22 1 22 23
M  V30 23 1 23 24
M  V30 24 1 23 25
M  V30 25 1 5 26
M  V30 26 2 26 27
M  V30 27 1 27 28
M  V30 28 2 28 29
M  V30 29 1 29 30
M  V30 30 2 30 31
M  V30 31 1 23 9
M  V30 32 1 31 26
M  V30 33 2 22 11
M  V30 34 1 1 32
M  V30 35 1 1 33
M  V30 36 1 1 34
M  V30 37 1 3 35
M  V30 38 1 3 36
M  V30 39 1 3 37
M  V30 40 1 4 38
M  V30 41 1 4 39
M  V30 42 1 5 40 CFG=1
M  V30 43 1 10 41
M  V30 44 1 10 42
M  V30 45 1 13 43
M  V30 46 1 17 44
M  V30 47 1 17 45
M  V30 48 1 17 46
M  V30 49 1 18 47
M  V30 50 1 18 48
M  V30 51 1 18 49
M  V30 52 1 19 50
M  V30 53 1 19 51
M  V30 54 1 19 52
M  V30 55 1 21 53
M  V30 56 1 24 54
M  V30 57 1 24 55
M  V30 58 1 24 56
M  V30 59 1 25 57
M  V30 60 1 25 58
M  V30 61 1 25 59
M  V30 62 1 27 60
M  V30 63 1 28 61
M  V30 64 1 29 62
M  V30 65 1 30 63
M  V30 66 1 31 64
M  V30 END BOND
M  V30 END CTAB
M  END
>  <Dataset>  (703) 
ChEMBL_Kinases

>  <Ligand_Instance>  (703) 
nan

>  <PDB_ID>  (703) 
nan

>  <Standardized_SMILES>  (703) 
CN(C)C[C@@H](OC(=O)N1Cc2c(NC(=O)C(C)(C)C)n[nH]c2C1(C)C)c1ccccc1

>  <Name>  (703) 
nan

>  <Pocket>  (703) 
nan

>  <ATP_Site>  (703) 
nan

>  <Peripheral>  (703) 
nan

>  <Num_H_Atoms_ProtBoundConf>  (703) 
nan

>  <Num_Resolved_Atoms>  (703) 
nan

>  <Num_Not_Resolved_Atoms>  (703) 
nan

$$$$
CHEMBL2023842
     RDKit          3D

  0  0  0  0  0  0  0  0  0  0999 V3000
M  V30 BEGIN CTAB
M  V30 COUNTS 148 150 0 0 0
M  V30 BEGIN ATOM
M  V30 1 N 6.859065 4.245647 -0.910495 0
M  V30 2 C 6.661138 3.025437 -1.288288 0
M  V30 3 N 7.750050 2.185067 -0.940321 0
M  V30 4 N 5.509175 2.582215 -1.962915 0
M  V30 5 C 4.278377 3.302567 -1.736827 0
M  V30 6 C 3.130850 2.702545 -2.541451 0
M  V30 7 C 1.829758 3.430998 -2.312565 0
M  V30 8 C 0.692863 2.861533 -3.097287 0 CFG=1
M  V30 9 N -0.545964 3.605699 -2.836874 0
M  V30 10 C -1.734413 2.987707 -2.345486 0
M  V30 11 O -1.922995 1.777837 -2.070380 0
M  V30 12 C -2.980959 3.817154 -2.089154 0 CFG=1
M  V30 13 C -3.284087 4.538545 -3.354740 0
M  V30 14 C -4.482084 5.420353 -3.361438 0
M  V30 15 C -5.797461 4.753329 -3.138276 0
M  V30 16 N -6.078719 3.752797 -4.164100 0
M  V30 17 C -7.286438 2.992089 -4.109152 0
M  V30 18 N -8.356206 3.519116 -3.581292 0
M  V30 19 N -7.285981 1.674533 -4.634866 0
M  V30 20 N -4.025118 2.963876 -1.587134 0
M  V30 21 C -4.390842 2.876706 -0.191526 0
M  V30 22 O -3.693266 3.611915 0.539887 0
M  V30 23 C -5.513715 1.909888 -0.079722 0
M  V30 24 C -5.887021 1.611736 1.367300 0
M  V30 25 C -4.712456 1.000655 2.084912 0
M  V30 26 C -5.081730 0.658393 3.516872 0
M  V30 27 C -3.948219 -0.006077 4.227781 0
M  V30 28 N -2.750499 0.740978 4.395539 0
M  V30 29 C -2.403624 1.934462 5.133576 0
M  V30 30 O -3.424910 2.345569 5.736373 0
M  V30 31 C -1.003200 2.340075 5.008997 0 CFG=1
M  V30 32 C -0.343603 1.647888 6.279074 0
M  V30 33 C 1.106215 1.991687 6.357382 0
M  V30 34 C 1.736647 1.320752 7.555298 0
M  V30 35 C 1.656398 -0.176375 7.528326 0
M  V30 36 N 2.312438 -0.792356 6.404000 0
M  V30 37 N -0.372943 1.795095 3.850421 0
M  V30 38 C 0.397200 1.000488 2.962637 0
M  V30 39 O 0.915437 0.066812 3.666688 0
M  V30 40 C 0.509996 1.278986 1.514797 0
M  V30 41 C 0.556753 0.094471 0.664556 0
M  V30 42 C 1.529216 -0.976348 0.789516 0
M  V30 43 C 2.971510 -0.782650 0.678126 0
M  V30 44 C 3.741240 -2.135385 0.787101 0
M  V30 45 C 3.358133 -3.031766 -0.338448 0
M  V30 46 C 4.102919 -4.357533 -0.199224 0
M  V30 47 N 3.713763 -5.265586 -1.255393 0
M  V30 48 C 4.351545 -6.509814 -1.102509 0
M  V30 49 C 4.105372 -7.568974 -2.108877 0
M  V30 50 C 2.668352 -7.773499 -2.505078 0
M  V30 51 N 2.038968 -6.507357 -2.691097 0
M  V30 52 S 0.454607 -6.574914 -3.344092 0
M  V30 53 O -0.049539 -5.235418 -3.766829 0
M  V30 54 O 0.598085 -7.348611 -4.624490 0
M  V30 55 C -0.595224 -7.449835 -2.315874 0
M  V30 56 C -1.286284 -8.569649 -2.805165 0
M  V30 57 C -2.170774 -9.365724 -2.114854 0
M  V30 58 C -2.428843 -9.059907 -0.799766 0
M  V30 59 C -1.769764 -7.958748 -0.262922 0
M  V30 60 C -2.006493 -7.622257 1.062268 0
M  V30 61 N -1.366346 -6.562499 1.564359 0
M  V30 62 C -0.502219 -5.781647 0.895553 0
M  V30 63 C -0.252480 -6.102126 -0.431045 0
M  V30 64 C -0.887210 -7.184199 -0.993871 0
M  V30 65 C 2.920980 -5.694417 -3.495211 0
M  V30 66 C 3.566503 -4.710671 -2.544322 0
M  V30 67 C 1.028763 2.915474 -4.539986 0
M  V30 68 N 1.800970 2.658856 -5.694827 0
M  V30 69 O -0.049494 3.558817 -4.545164 0
M  V30 70 H 7.758341 4.470201 -0.411483 0
M  V30 71 H 7.909141 1.601665 -0.095422 0
M  V30 72 H 8.666000 1.928801 -1.415317 0
M  V30 73 H 5.611777 1.742038 -2.599744 0
M  V30 74 H 4.486965 4.360065 -2.021858 0
M  V30 75 H 4.032737 3.247424 -0.666439 0
M  V30 76 H 3.064949 1.648365 -2.199228 0
M  V30 77 H 3.379648 2.732494 -3.618216 0
M  V30 78 H 1.616597 3.444264 -1.211971 0
M  V30 79 H 1.954773 4.486739 -2.631907 0
M  V30 80 H 0.508648 1.810363 -2.773426 0
M  V30 81 H -0.497093 4.611069 -3.028556 0
M  V30 82 H -2.668347 4.511460 -1.271311 0
M  V30 83 H -3.397530 3.837721 -4.226652 0
M  V30 84 H -2.362246 5.144114 -3.626992 0
M  V30 85 H -4.538586 5.965738 -4.338558 0
M  V30 86 H -4.359789 6.225841 -2.596277 0
M  V30 87 H -5.905867 4.299960 -2.142595 0
M  V30 88 H -6.635842 5.513841 -3.190030 0
M  V30 89 H -5.469476 3.517193 -4.983678 0
M  V30 90 H -9.240109 2.987276 -3.529652 0
M  V30 91 H -6.887463 0.796614 -4.183044 0
M  V30 92 H -7.427744 0.841577 -5.249846 0
M  V30 93 H -4.411307 2.463054 -2.407573 0
M  V30 94 H -6.357072 2.325199 -0.665106 0
M  V30 95 H -5.240907 0.944681 -0.604462 0
M  V30 96 H -6.694925 0.830115 1.284838 0
M  V30 97 H -6.307242 2.487397 1.866943 0
M  V30 98 H -4.402248 0.094946 1.523000 0
M  V30 99 H -3.826115 1.680309 2.030524 0
M  V30 100 H -5.891405 -0.109622 3.429360 0
M  V30 101 H -5.511131 1.527234 4.045262 0
M  V30 102 H -4.343249 -0.316559 5.251148 0
M  V30 103 H -3.804719 -1.006625 3.724984 0
M  V30 104 H -1.966071 0.274264 3.831894 0
M  V30 105 H -0.778601 3.358067 5.224484 0
M  V30 106 H -0.896794 2.104056 7.118413 0
M  V30 107 H -0.583609 0.571163 6.266259 0
M  V30 108 H 1.168819 3.106224 6.607434 0
M  V30 109 H 1.693238 1.898696 5.447517 0
M  V30 110 H 2.789837 1.622493 7.710438 0
M  V30 111 H 1.204728 1.640904 8.492020 0
M  V30 112 H 0.587466 -0.530143 7.496013 0
M  V30 113 H 2.071567 -0.620605 8.450370 0
M  V30 114 H 3.184055 -1.308814 6.718082 0
M  V30 115 H 2.689974 -0.078849 5.730873 0
M  V30 116 H -0.874641 2.540643 3.250153 0
M  V30 117 H 1.290946 2.049386 1.302264 0
M  V30 118 H -0.440093 1.832548 1.228937 0
M  V30 119 H -0.502334 -0.356306 0.703320 0
M  V30 120 H 0.571162 0.415087 -0.439114 0
M  V30 121 H 1.247003 -1.830067 0.090721 0
M  V30 122 H 1.353623 -1.488692 1.803962 0
M  V30 123 H 3.469326 -0.155968 1.411879 0
M  V30 124 H 3.264718 -0.418770 -0.330031 0
M  V30 125 H 3.487817 -2.583296 1.769480 0
M  V30 126 H 4.809293 -1.856251 0.819779 0
M  V30 127 H 3.606288 -2.561710 -1.329579 0
M  V30 128 H 2.275899 -3.224854 -0.346884 0
M  V30 129 H 5.185652 -4.253980 -0.177381 0
M  V30 130 H 3.769111 -4.801178 0.758788 0
M  V30 131 H 5.461853 -6.364988 -1.044551 0
M  V30 132 H 4.095547 -6.944087 -0.094761 0
M  V30 133 H 4.382625 -8.550547 -1.583185 0
M  V30 134 H 4.821445 -7.565025 -2.962725 0
M  V30 135 H 2.116217 -8.380008 -1.742984 0
M  V30 136 H 2.618074 -8.371880 -3.440899 0
M  V30 137 H -1.112451 -8.848502 -3.847996 0
M  V30 138 H -2.641245 -10.204399 -2.606308 0
M  V30 139 H -3.107099 -9.624914 -0.178543 0
M  V30 140 H -2.673912 -8.174687 1.694737 0
M  V30 141 H -0.037870 -4.946801 1.396555 0
M  V30 142 H 0.431901 -5.508955 -1.017784 0
M  V30 143 H 2.387847 -5.181793 -4.321425 0
M  V30 144 H 3.686954 -6.313695 -3.964424 0
M  V30 145 H 2.823869 -3.867085 -2.474973 0
M  V30 146 H 4.495220 -4.273269 -2.940181 0
M  V30 147 H 2.450553 1.866371 -5.783222 0
M  V30 148 H 1.646701 3.350141 -6.441318 0
M  V30 END ATOM
M  V30 BEGIN BOND
M  V30 1 2 1 2 CFG=2
M  V30 2 1 2 3
M  V30 3 1 2 4
M  V30 4 1 4 5
M  V30 5 1 5 6
M  V30 6 1 6 7
M  V30 7 1 7 8
M  V30 8 1 8 9
M  V30 9 1 9 10
M  V30 10 2 10 11
M  V30 11 1 10 12
M  V30 12 1 12 13
M  V30 13 1 13 14
M  V30 14 1 14 15
M  V30 15 1 15 16
M  V30 16 1 16 17
M  V30 17 2 17 18 CFG=2
M  V30 18 1 17 19
M  V30 19 1 12 20
M  V30 20 1 20 21
M  V30 21 2 21 22
M  V30 22 1 21 23
M  V30 23 1 23 24
M  V30 24 1 24 25
M  V30 25 1 25 26
M  V30 26 1 26 27
M  V30 27 1 27 28
M  V30 28 1 28 29
M  V30 29 2 29 30
M  V30 30 1 29 31
M  V30 31 1 31 32
M  V30 32 1 32 33
M  V30 33 1 33 34
M  V30 34 1 34 35
M  V30 35 1 35 36
M  V30 36 1 31 37
M  V30 37 1 37 38
M  V30 38 2 38 39
M  V30 39 1 38 40
M  V30 40 1 40 41
M  V30 41 1 41 42
M  V30 42 1 42 43
M  V30 43 1 43 44
M  V30 44 1 44 45
M  V30 45 1 45 46
M  V30 46 1 46 47
M  V30 47 1 47 48
M  V30 48 1 48 49
M  V30 49 1 49 50
M  V30 50 1 50 51
M  V30 51 1 51 52
M  V30 52 2 52 53
M  V30 53 2 52 54
M  V30 54 1 52 55
M  V30 55 2 55 56
M  V30 56 1 56 57
M  V30 57 2 57 58
M  V30 58 1 58 59
M  V30 59 2 59 60
M  V30 60 1 60 61
M  V30 61 2 61 62
M  V30 62 1 62 63
M  V30 63 2 63 64
M  V30 64 1 51 65
M  V30 65 1 65 66
M  V30 66 1 8 67
M  V30 67 1 67 68
M  V30 68 2 67 69
M  V30 69 1 66 47
M  V30 70 1 64 55
M  V30 71 1 64 59
M  V30 72 1 1 70
M  V30 73 1 3 71
M  V30 74 1 3 72
M  V30 75 1 4 73
M  V30 76 1 5 74
M  V30 77 1 5 75
M  V30 78 1 6 76
M  V30 79 1 6 77
M  V30 80 1 7 78
M  V30 81 1 7 79
M  V30 82 1 8 80 CFG=1
M  V30 83 1 9 81
M  V30 84 1 12 82 CFG=1
M  V30 85 1 13 83
M  V30 86 1 13 84
M  V30 87 1 14 85
M  V30 88 1 14 86
M  V30 89 1 15 87
M  V30 90 1 15 88
M  V30 91 1 16 89
M  V30 92 1 18 90
M  V30 93 1 19 91
M  V30 94 1 19 92
M  V30 95 1 20 93
M  V30 96 1 23 94
M  V30 97 1 23 95
M  V30 98 1 24 96
M  V30 99 1 24 97
M  V30 100 1 25 98
M  V30 101 1 25 99
M  V30 102 1 26 100
M  V30 103 1 26 101
M  V30 104 1 27 102
M  V30 105 1 27 103
M  V30 106 1 28 104
M  V30 107 1 31 105 CFG=1
M  V30 108 1 32 106
M  V30 109 1 32 107
M  V30 110 1 33 108
M  V30 111 1 33 109
M  V30 112 1 34 110
M  V30 113 1 34 111
M  V30 114 1 35 112
M  V30 115 1 35 113
M  V30 116 1 36 114
M  V30 117 1 36 115
M  V30 118 1 37 116
M  V30 119 1 40 117
M  V30 120 1 40 118
M  V30 121 1 41 119
M  V30 122 1 41 120
M  V30 123 1 42 121
M  V30 124 1 42 122
M  V30 125 1 43 123
M  V30 126 1 43 124
M  V30 127 1 44 125
M  V30 128 1 44 126
M  V30 129 1 45 127
M  V30 130 1 45 128
M  V30 131 1 46 129
M  V30 132 1 46 130
M  V30 133 1 48 131
M  V30 134 1 48 132
M  V30 135 1 49 133
M  V30 136 1 49 134
M  V30 137 1 50 135
M  V30 138 1 50 136
M  V30 139 1 56 137
M  V30 140 1 57 138
M  V30 141 1 58 139
M  V30 142 1 60 140
M  V30 143 1 62 141
M  V30 144 1 63 142
M  V30 145 1 65 143
M  V30 146 1 65 144
M  V30 147 1 66 145
M  V30 148 1 66 146
M  V30 149 1 68 147
M  V30 150 1 68 148
M  V30 END BOND
M  V30 END CTAB
M  END
>  <Dataset>  (704) 
ChEMBL_Kinases

>  <Ligand_Instance>  (704) 
nan

>  <PDB_ID>  (704) 
nan

>  <Standardized_SMILES>  (704) 
N=C(N)NCCC[C@@H](NC(=O)[C@@H](CCCNC(=N)N)NC(=O)CCCCCNC(=O)[C@@H](CCCCN)NC(=O)CCCCCCCN1CCCN(S(=O)(=O)c2cccc3cnccc23)CC1)C(N)=O

>  <Name>  (704) 
nan

>  <Pocket>  (704) 
nan

>  <ATP_Site>  (704) 
nan

>  <Peripheral>  (704) 
nan

>  <Num_H_Atoms_ProtBoundConf>  (704) 
nan

>  <Num_Resolved_Atoms>  (704) 
nan

>  <Num_Not_Resolved_Atoms>  (704) 
nan

$$$$
CHEMBL2023841
     RDKit          3D

  0  0  0  0  0  0  0  0  0  0999 V3000
M  V30 BEGIN CTAB
M  V30 COUNTS 328 336 0 0 0
M  V30 BEGIN ATOM
M  V30 1 C 5.515989 6.687800 7.965123 0
M  V30 2 S 5.772313 5.269453 8.696702 0
M  V30 3 O 4.561641 5.213927 9.616985 0
M  V30 4 O 7.135602 5.280517 9.646175 0
M  V30 5 C 5.749098 3.929395 7.602956 0
M  V30 6 C 6.258121 3.930434 6.332682 0
M  V30 7 C 6.237298 2.863304 5.464307 0
M  V30 8 C 5.658238 1.666228 5.876115 0
M  V30 9 C 5.150388 1.664850 7.142215 0
M  V30 10 C 5.166838 2.731725 8.022067 0
M  V30 11 C 4.570313 0.308560 7.426600 0
M  V30 12 C 3.091782 0.517794 7.695390 0
M  V30 13 C 5.278538 -0.265256 8.608353 0
M  V30 14 C 4.818543 -0.391491 6.164691 0
M  V30 15 N 5.435975 0.376501 5.290683 0 CHG=1 VAL=4
M  V30 16 C 5.838491 0.030999 3.939368 0
M  V30 17 C 5.115960 -1.197856 3.413144 0
M  V30 18 C 5.222032 -2.242749 4.505746 0
M  V30 19 O 4.962422 -3.517054 4.153065 0
M  V30 20 C 3.743376 -4.069578 4.367094 0
M  V30 21 C 3.823642 -5.543353 4.113236 0
M  V30 22 C 2.660283 -6.321164 4.612309 0
M  V30 23 N 2.094946 -5.846535 5.834821 0
M  V30 24 C 2.461571 -4.584906 6.439454 0
M  V30 25 C 3.239645 -3.758269 5.727186 0
M  V30 26 C 3.583630 -2.434718 6.224415 0
M  V30 27 C 4.502947 -1.697147 5.664856 0
M  V30 28 C 1.876506 -4.426823 7.759130 0
M  V30 29 C 1.106089 -3.197649 8.043626 0
M  V30 30 C 2.903225 -4.748270 8.837674 0
M  V30 31 C 0.920987 -5.601568 7.786051 0
M  V30 32 C -0.036965 -5.886752 8.777335 0
M  V30 33 C -0.783769 -7.037816 8.649328 0
M  V30 34 C -1.743133 -7.163413 9.796323 0
M  V30 35 C -2.725421 -6.041577 9.781454 0
M  V30 36 O -3.447482 -6.198793 10.804887 0
M  V30 37 N -2.923552 -4.956214 8.878564 0
M  V30 38 C -4.033696 -4.111687 9.341850 0
M  V30 39 C -4.119251 -3.004326 8.263640 0
M  V30 40 C -5.214228 -2.045385 8.570714 0
M  V30 41 C -5.472401 -1.002467 7.569204 0
M  V30 42 C -4.508841 0.008209 7.166036 0 CFG=1
M  V30 43 N -3.256170 -0.368061 6.596981 0
M  V30 44 C -2.626230 0.464803 5.589087 0
M  V30 45 O -3.159302 1.554783 5.172106 0
M  V30 46 C -1.380067 0.268179 4.886691 0 CFG=1
M  V30 47 C -1.015420 -1.196059 4.715835 0
M  V30 48 C -2.051513 -1.976546 3.955928 0
M  V30 49 C -1.587409 -3.422053 3.809366 0
M  V30 50 N -2.462471 -4.293960 3.128732 0
M  V30 51 C -3.714023 -4.720815 3.666101 0
M  V30 52 N -4.376907 -3.899523 4.389806 0
M  V30 53 N -4.135318 -6.069917 3.346293 0
M  V30 54 N -1.373157 0.902665 3.606255 0
M  V30 55 C -0.342190 1.138981 2.640914 0
M  V30 56 O 0.752069 0.654809 3.097457 0
M  V30 57 C -0.697491 1.846790 1.331047 0 CFG=1
M  V30 58 C -0.467471 3.300842 1.540711 0
M  V30 59 C -1.358468 3.785715 2.659612 0
M  V30 60 C -1.151069 5.262803 2.885994 0
M  V30 61 N -1.494658 5.945886 1.634782 0
M  V30 62 C -1.379676 7.365866 1.636687 0
M  V30 63 N -1.603070 8.034957 2.735921 0
M  V30 64 N -1.027655 8.096925 0.447188 0
M  V30 65 N 0.189450 1.303201 0.290652 0
M  V30 66 C -0.211966 -0.060011 0.095142 0
M  V30 67 O -1.151292 -0.225153 0.918657 0
M  V30 68 C -0.084119 -1.328772 -0.564319 0 CFG=1
M  V30 69 C -1.397624 -1.884598 -1.043665 0
M  V30 70 C -2.407866 -2.143630 0.013443 0
M  V30 71 C -3.678091 -2.826327 -0.477062 0
M  V30 72 N -4.363177 -2.038380 -1.454306 0
M  V30 73 C -5.593403 -2.591602 -1.966962 0
M  V30 74 N -5.852734 -3.813719 -1.593476 0
M  V30 75 N -6.176386 -1.549948 -2.792387 0
M  V30 76 N 0.942919 -1.460937 -1.583102 0
M  V30 77 C 2.190221 -2.048850 -1.354094 0
M  V30 78 O 2.296368 -2.415022 -0.116034 0
M  V30 79 C 3.514728 -2.491090 -1.818914 0 CFG=1
M  V30 80 C 3.640274 -3.988966 -1.706644 0
M  V30 81 C 3.492471 -4.608178 -0.376049 0
M  V30 82 C 3.727968 -6.140605 -0.599152 0
M  V30 83 N 2.730307 -6.617546 -1.539139 0
M  V30 84 C 1.382408 -6.609067 -1.026538 0
M  V30 85 N 1.124917 -6.639944 0.233825 0
M  V30 86 N 0.227255 -6.569345 -1.895860 0
M  V30 87 N 3.727528 -2.233035 -3.246670 0
M  V30 88 C 4.431160 -1.219869 -3.879272 0
M  V30 89 O 4.997602 -0.292666 -3.190936 0
M  V30 90 C 4.921102 -0.601916 -5.072921 0 CFG=1
M  V30 91 C 4.228292 -0.663354 -6.363116 0
M  V30 92 C 4.017168 -2.041485 -6.950186 0
M  V30 93 C 3.370223 -1.942849 -8.323580 0
M  V30 94 N 2.093653 -1.312369 -8.342296 0
M  V30 95 C 1.566746 -1.211001 -9.678952 0
M  V30 96 N 2.394630 -1.049991 -10.680112 0
M  V30 97 N 0.168862 -1.276244 -10.004540 0
M  V30 98 N 5.390524 0.742376 -4.760989 0
M  V30 99 C 6.626959 1.323583 -4.556578 0
M  V30 100 O 7.556467 0.462722 -4.644039 0
M  V30 101 C 6.763154 2.798044 -4.265061 0 CFG=1
M  V30 102 C 8.181970 3.159585 -4.423009 0
M  V30 103 C 8.495742 4.595996 -4.165146 0
M  V30 104 C 8.152384 5.069657 -2.768961 0
M  V30 105 N 8.510864 6.459154 -2.642393 0
M  V30 106 C 8.307476 7.151248 -1.439006 0
M  V30 107 N 7.917483 6.460481 -0.430208 0
M  V30 108 N 8.549815 8.562331 -1.432455 0
M  V30 109 N 5.781602 3.610990 -4.897578 0
M  V30 110 C 4.894660 3.509605 -5.985063 0
M  V30 111 O 4.756651 2.552531 -6.761474 0
M  V30 112 C 3.964510 4.558631 -6.399381 0
M  V30 113 C 3.091183 4.160802 -7.540832 0
M  V30 114 C 2.134483 3.044930 -7.297566 0
M  V30 115 C 1.145302 3.361437 -6.223592 0
M  V30 116 C 0.182439 2.250297 -5.981510 0
M  V30 117 N -0.776295 2.649475 -4.967004 0
M  V30 118 C -1.918072 2.100652 -4.291016 0
M  V30 119 O -2.082018 0.921967 -4.762920 0
M  V30 120 C -2.655033 2.929453 -3.244576 0 CFG=1
M  V30 121 C -2.821945 2.109676 -2.034259 0
M  V30 122 C -3.544069 2.774522 -0.910113 0
M  V30 123 C -4.949300 3.210980 -1.261203 0
M  V30 124 N -5.749731 2.084791 -1.669133 0
M  V30 125 C -7.113123 2.263241 -2.022366 0
M  V30 126 N -7.791434 3.152471 -1.342408 0
M  V30 127 N -7.774757 1.546546 -3.045512 0
M  V30 128 N -1.892600 4.135385 -3.149808 0
M  V30 129 C -2.012034 5.534341 -3.488467 0
M  V30 130 O -3.178535 5.581370 -3.969387 0
M  V30 131 C -0.770027 6.243921 -3.144704 0
M  V30 132 C -0.647118 7.514989 -3.913601 0
M  V30 133 C -0.540371 7.429016 -5.392104 0
M  V30 134 C -1.649572 6.848640 -6.171499 0
M  V30 135 C -1.294346 6.921829 -7.684554 0
M  V30 136 C -2.467678 6.516998 -8.492140 0
M  V30 137 C -3.092587 5.212091 -8.362172 0
M  V30 138 N -2.364424 4.011720 -8.682988 0
M  V30 139 C -3.374456 2.957221 -8.564787 0
M  V30 140 C -2.898644 1.596795 -9.012680 0
M  V30 141 N -3.991039 0.703394 -8.866889 0
M  V30 142 S -3.811204 -0.903635 -9.297714 0
M  V30 143 O -3.495650 -0.971274 -10.788606 0
M  V30 144 O -5.158124 -1.616387 -9.114416 0
M  V30 145 C -2.652946 -1.815883 -8.423010 0
M  V30 146 C -1.824364 -1.490315 -7.391842 0
M  V30 147 C -0.925908 -2.298316 -6.749986 0
M  V30 148 C -0.835023 -3.622267 -7.191762 0
M  V30 149 C -1.647858 -4.033969 -8.238574 0
M  V30 150 C -1.492198 -5.356230 -8.599972 0
M  V30 151 N -2.248396 -5.826276 -9.596570 0
M  V30 152 C -3.141317 -5.040827 -10.237873 0
M  V30 153 C -3.251760 -3.729611 -9.835200 0
M  V30 154 C -2.523323 -3.148926 -8.825842 0
M  V30 155 C -5.248799 0.598317 5.851685 0
M  V30 156 N -6.581663 0.989646 6.197738 0
M  V30 157 O -5.674801 1.028324 4.730413 0
M  V30 158 C -0.586098 -7.887216 7.571788 0
M  V30 159 C 0.363164 -7.570027 6.625476 0
M  V30 160 C 1.132815 -6.419632 6.714471 0
M  V30 161 H 5.998653 7.458956 8.555684 0
M  V30 162 H 4.920849 6.474078 7.087950 0
M  V30 163 H 7.332866 6.187766 10.006572 0
M  V30 164 H 6.707816 4.882342 6.024998 0
M  V30 165 H 6.657501 2.925327 4.469307 0
M  V30 166 H 4.748495 2.673801 9.013953 0
M  V30 167 H 2.740896 -0.101675 8.561051 0
M  V30 168 H 2.885521 1.562582 8.003858 0
M  V30 169 H 2.497108 0.358451 6.773840 0
M  V30 170 H 5.276122 -1.375846 8.589117 0
M  V30 171 H 6.311112 0.085542 8.636919 0
M  V30 172 H 4.756448 0.114373 9.518787 0
M  V30 173 H 6.915420 -0.205449 3.975324 0
M  V30 174 H 5.656428 0.852802 3.239109 0
M  V30 175 H 5.732423 -1.583072 2.575773 0
M  V30 176 H 4.096170 -0.983763 3.106081 0
M  V30 177 H 6.315859 -2.210165 4.813509 0
M  V30 178 H 3.024292 -3.654472 3.605232 0
M  V30 179 H 4.751222 -5.963484 4.600481 0
M  V30 180 H 3.983044 -5.696980 3.031267 0
M  V30 181 H 1.871283 -6.340264 3.828517 0
M  V30 182 H 2.918225 -7.409061 4.757290 0
M  V30 183 H 3.090938 -2.002693 7.078561 0
M  V30 184 H 0.125880 -3.464516 8.549123 0
M  V30 185 H 0.805085 -2.571220 7.205803 0
M  V30 186 H 1.633915 -2.620641 8.860387 0
M  V30 187 H 3.461251 -3.845937 9.069402 0
M  V30 188 H 3.523361 -5.556954 8.394363 0
M  V30 189 H 2.317539 -5.142516 9.712152 0
M  V30 190 H -0.128923 -5.164822 9.606064 0
M  V30 191 H -1.157097 -7.151371 10.709765 0
M  V30 192 H -2.291704 -8.103818 9.718929 0
M  V30 193 H -2.235388 -5.013293 8.096235 0
M  V30 194 H -3.858004 -3.716229 10.334455 0
M  V30 195 H -4.938594 -4.727677 9.205768 0
M  V30 196 H -4.339432 -3.526894 7.322892 0
M  V30 197 H -3.113464 -2.538415 8.327219 0
M  V30 198 H -6.176001 -2.582026 8.836491 0
M  V30 199 H -4.937506 -1.533733 9.549553 0
M  V30 200 H -5.748607 -1.579271 6.597391 0
M  V30 201 H -6.504574 -0.524647 7.773238 0
M  V30 202 H -4.532359 0.955604 7.730556 0
M  V30 203 H -2.554601 -1.134123 6.676243 0
M  V30 204 H -0.509263 0.696086 5.496279 0
M  V30 205 H -0.065148 -1.264817 4.131394 0
M  V30 206 H -0.767881 -1.667484 5.693343 0
M  V30 207 H -2.968126 -2.028938 4.574436 0
M  V30 208 H -2.272931 -1.499814 2.989782 0
M  V30 209 H -1.358421 -3.832737 4.817647 0
M  V30 210 H -0.588507 -3.360178 3.310906 0
M  V30 211 H -2.178904 -4.648788 2.177368 0
M  V30 212 H -5.298004 -4.081582 4.840420 0
M  V30 213 H -4.247934 -6.222386 2.324491 0
M  V30 214 H -4.288196 -6.783995 4.110150 0
M  V30 215 H -2.324609 1.276026 3.292684 0
M  V30 216 H -1.745253 1.638858 1.185640 0
M  V30 217 H 0.599975 3.442142 1.849552 0
M  V30 218 H -0.587518 3.906081 0.616805 0
M  V30 219 H -2.412392 3.523286 2.502704 0
M  V30 220 H -1.034369 3.262338 3.607514 0
M  V30 221 H -1.825184 5.661929 3.662622 0
M  V30 222 H -0.126675 5.468424 3.193712 0
M  V30 223 H -1.817954 5.574473 0.698207 0
M  V30 224 H -1.520671 9.057679 2.734707 0
M  V30 225 H -0.398785 8.582065 -0.230626 0
M  V30 226 H -1.941204 8.220693 -0.033105 0
M  V30 227 H 0.975118 1.371305 -0.401756 0
M  V30 228 H 0.265862 -2.038966 0.282141 0
M  V30 229 H -1.900778 -1.146581 -1.752355 0
M  V30 230 H -1.243158 -2.761222 -1.728043 0
M  V30 231 H -2.032977 -2.625379 0.910660 0
M  V30 232 H -2.834666 -1.134414 0.339279 0
M  V30 233 H -3.452529 -3.831931 -0.816154 0
M  V30 234 H -4.332394 -2.879652 0.433828 0
M  V30 235 H -3.910293 -1.122909 -1.703027 0
M  V30 236 H -6.744356 -4.265338 -1.945395 0
M  V30 237 H -7.181858 -1.250469 -2.706674 0
M  V30 238 H -7.108004 -1.721665 -2.292329 0
M  V30 239 H 1.058375 -1.212781 -2.615633 0
M  V30 240 H 4.328667 -1.940099 -1.289698 0
M  V30 241 H 2.789973 -4.403163 -2.345945 0
M  V30 242 H 4.539808 -4.361490 -2.263193 0
M  V30 243 H 2.433459 -4.528946 -0.029554 0
M  V30 244 H 4.243712 -4.256787 0.341761 0
M  V30 245 H 4.719888 -6.196885 -1.103970 0
M  V30 246 H 3.732081 -6.680044 0.346560 0
M  V30 247 H 2.750032 -6.969404 -2.517122 0
M  V30 248 H 0.179043 -6.634399 0.646282 0
M  V30 249 H -0.322297 -7.214274 -2.518072 0
M  V30 250 H -0.411301 -5.771012 -2.128287 0
M  V30 251 H 3.361441 -2.799521 -4.020632 0
M  V30 252 H 5.925708 -1.201136 -5.286559 0
M  V30 253 H 3.290287 -0.066743 -6.422706 0
M  V30 254 H 4.904365 -0.144092 -7.115253 0
M  V30 255 H 3.307722 -2.617913 -6.321412 0
M  V30 256 H 4.983152 -2.564640 -7.112290 0
M  V30 257 H 4.074960 -1.307133 -8.930391 0
M  V30 258 H 3.409165 -2.948315 -8.789749 0
M  V30 259 H 1.469006 -0.920171 -7.612548 0
M  V30 260 H 2.045671 -0.972975 -11.658363 0
M  V30 261 H -0.405425 -0.460516 -9.704830 0
M  V30 262 H -0.076630 -2.175620 -10.516246 0
M  V30 263 H 4.463622 1.200887 -4.674877 0
M  V30 264 H 6.515460 2.852146 -3.131294 0
M  V30 265 H 8.624444 2.904163 -5.410118 0
M  V30 266 H 8.769443 2.567674 -3.665070 0
M  V30 267 H 9.616150 4.681668 -4.235047 0
M  V30 268 H 8.068443 5.246772 -4.933703 0
M  V30 269 H 8.720320 4.497146 -2.006670 0
M  V30 270 H 7.080049 4.910604 -2.511165 0
M  V30 271 H 8.933326 6.957094 -3.459354 0
M  V30 272 H 7.732098 6.852845 0.516143 0
M  V30 273 H 7.857669 9.018991 -2.056645 0
M  V30 274 H 8.936035 9.483900 -1.241706 0
M  V30 275 H 5.689842 4.567816 -4.433413 0
M  V30 276 H 3.277025 4.892404 -5.553994 0
M  V30 277 H 4.558476 5.471200 -6.623644 0
M  V30 278 H 2.542766 5.043995 -7.927027 0
M  V30 279 H 3.800181 3.830056 -8.362941 0
M  V30 280 H 1.515138 2.940052 -8.249747 0
M  V30 281 H 2.610606 2.078162 -7.166202 0
M  V30 282 H 1.713304 3.611420 -5.295366 0
M  V30 283 H 0.568687 4.308195 -6.460761 0
M  V30 284 H 0.740499 1.392316 -5.540490 0
M  V30 285 H -0.307223 1.881718 -6.880804 0
M  V30 286 H -0.558690 3.626389 -4.650235 0
M  V30 287 H -3.654367 3.087448 -3.708370 0
M  V30 288 H -1.874330 1.708373 -1.608873 0
M  V30 289 H -3.450323 1.211608 -2.332918 0
M  V30 290 H -3.672861 2.009270 -0.110601 0
M  V30 291 H -2.975711 3.612957 -0.515796 0
M  V30 292 H -4.980818 3.997202 -2.046144 0
M  V30 293 H -5.388914 3.671961 -0.349255 0
M  V30 294 H -5.403837 1.086040 -1.734568 0
M  V30 295 H -8.799631 3.353470 -1.528607 0
M  V30 296 H -8.839735 1.570053 -3.091344 0
M  V30 297 H -7.233564 1.001780 -3.743302 0
M  V30 298 H -1.025098 3.701575 -2.681088 0
M  V30 299 H -0.740335 6.488547 -2.054009 0
M  V30 300 H 0.137139 5.599166 -3.293977 0
M  V30 301 H -1.550735 8.142849 -3.608567 0
M  V30 302 H 0.204743 8.083980 -3.458664 0
M  V30 303 H -0.417934 8.496434 -5.755950 0
M  V30 304 H 0.421956 6.958149 -5.720459 0
M  V30 305 H -2.615349 7.320669 -6.059797 0
M  V30 306 H -1.763449 5.741434 -6.006821 0
M  V30 307 H -0.373401 6.382674 -7.915223 0
M  V30 308 H -1.116769 8.002236 -7.860609 0
M  V30 309 H -2.273229 6.717711 -9.597819 0
M  V30 310 H -3.299410 7.289265 -8.289337 0
M  V30 311 H -3.552657 5.017127 -7.355791 0
M  V30 312 H -4.005827 5.187569 -9.046781 0
M  V30 313 H -1.972723 4.028204 -9.639028 0
M  V30 314 H -3.660848 2.938424 -7.486481 0
M  V30 315 H -4.296467 3.262454 -9.119961 0
M  V30 316 H -1.980062 1.316796 -8.488754 0
M  V30 317 H -2.688693 1.689366 -10.125947 0
M  V30 318 H -4.635946 0.891971 -8.081855 0
M  V30 319 H -1.910918 -0.487030 -7.055967 0
M  V30 320 H -0.323368 -1.908758 -5.944289 0
M  V30 321 H -0.133931 -4.280944 -6.706501 0
M  V30 322 H -0.786036 -6.021464 -8.109491 0
M  V30 323 H -3.744886 -5.455999 -11.047265 0
M  V30 324 H -3.986033 -3.180910 -10.389093 0
M  V30 325 H -7.363593 1.558359 6.600547 0
M  V30 326 H -7.624155 1.074371 6.338633 0
M  V30 327 H -1.234210 -8.749391 7.605779 0
M  V30 328 H 0.452769 -8.281807 5.824539 0
M  V30 END ATOM
M  V30 BEGIN BOND
M  V30 1 2 1 2
M  V30 2 2 2 3
M  V30 3 1 2 4
M  V30 4 1 2 5
M  V30 5 2 5 6
M  V30 6 1 6 7
M  V30 7 2 7 8
M  V30 8 1 8 9
M  V30 9 2 9 10
M  V30 10 1 9 11
M  V30 11 1 11 12
M  V30 12 1 11 13
M  V30 13 1 11 14
M  V30 14 2 14 15
M  V30 15 1 15 16
M  V30 16 1 16 17
M  V30 17 1 17 18
M  V30 18 1 18 19
M  V30 19 1 19 20
M  V30 20 1 20 21
M  V30 21 1 21 22
M  V30 22 1 22 23
M  V30 23 1 23 24
M  V30 24 2 24 25
M  V30 25 1 25 26
M  V30 26 2 26 27
M  V30 27 1 24 28
M  V30 28 1 28 29
M  V30 29 1 28 30
M  V30 30 1 28 31
M  V30 31 2 31 32
M  V30 32 1 32 33
M  V30 33 1 33 34
M  V30 34 1 34 35
M  V30 35 2 35 36
M  V30 36 1 35 37
M  V30 37 1 37 38
M  V30 38 1 38 39
M  V30 39 1 39 40
M  V30 40 1 40 41
M  V30 41 1 41 42
M  V30 42 1 42 43
M  V30 43 1 43 44
M  V30 44 2 44 45
M  V30 45 1 44 46
M  V30 46 1 46 47
M  V30 47 1 47 48
M  V30 48 1 48 49
M  V30 49 1 49 50
M  V30 50 1 50 51
M  V30 51 2 51 52 CFG=2
M  V30 52 1 51 53
M  V30 53 1 46 54
M  V30 54 1 54 55
M  V30 55 2 55 56
M  V30 56 1 55 57
M  V30 57 1 57 58
M  V30 58 1 58 59
M  V30 59 1 59 60
M  V30 60 1 60 61
M  V30 61 1 61 62
M  V30 62 2 62 63 CFG=2
M  V30 63 1 62 64
M  V30 64 1 57 65
M  V30 65 1 65 66
M  V30 66 2 66 67
M  V30 67 1 66 68
M  V30 68 1 68 69
M  V30 69 1 69 70
M  V30 70 1 70 71
M  V30 71 1 71 72
M  V30 72 1 72 73
M  V30 73 2 73 74 CFG=2
M  V30 74 1 73 75
M  V30 75 1 68 76
M  V30 76 1 76 77
M  V30 77 2 77 78
M  V30 78 1 77 79
M  V30 79 1 79 80
M  V30 80 1 80 81
M  V30 81 1 81 82
M  V30 82 1 82 83
M  V30 83 1 83 84
M  V30 84 2 84 85 CFG=2
M  V30 85 1 84 86
M  V30 86 1 79 87
M  V30 87 1 87 88
M  V30 88 2 88 89
M  V30 89 1 88 90
M  V30 90 1 90 91
M  V30 91 1 91 92
M  V30 92 1 92 93
M  V30 93 1 93 94
M  V30 94 1 94 95
M  V30 95 2 95 96 CFG=2
M  V30 96 1 95 97
M  V30 97 1 90 98
M  V30 98 1 98 99
M  V30 99 2 99 100
M  V30 100 1 99 101
M  V30 101 1 101 102
M  V30 102 1 102 103
M  V30 103 1 103 104
M  V30 104 1 104 105
M  V30 105 1 105 106
M  V30 106 2 106 107 CFG=2
M  V30 107 1 106 108
M  V30 108 1 101 109
M  V30 109 1 109 110
M  V30 110 2 110 111
M  V30 111 1 110 112
M  V30 112 1 112 113
M  V30 113 1 113 114
M  V30 114 1 114 115
M  V30 115 1 115 116
M  V30 116 1 116 117
M  V30 117 1 117 118
M  V30 118 2 118 119
M  V30 119 1 118 120
M  V30 120 1 120 121
M  V30 121 1 121 122
M  V30 122 1 122 123
M  V30 123 1 123 124
M  V30 124 1 124 125
M  V30 125 2 125 126 CFG=2
M  V30 126 1 125 127
M  V30 127 1 120 128
M  V30 128 1 128 129
M  V30 129 2 129 130
M  V30 130 1 129 131
M  V30 131 1 131 132
M  V30 132 1 132 133
M  V30 133 1 133 134
M  V30 134 1 134 135
M  V30 135 1 135 136
M  V30 136 1 136 137
M  V30 137 1 137 138
M  V30 138 1 138 139
M  V30 139 1 139 140
M  V30 140 1 140 141
M  V30 141 1 141 142
M  V30 142 2 142 143
M  V30 143 2 142 144
M  V30 144 1 142 145
M  V30 145 2 145 146
M  V30 146 1 146 147
M  V30 147 2 147 148
M  V30 148 1 148 149
M  V30 149 2 149 150
M  V30 150 1 150 151
M  V30 151 2 151 152
M  V30 152 1 152 153
M  V30 153 2 153 154
M  V30 154 1 42 155
M  V30 155 1 155 156
M  V30 156 2 155 157
M  V30 157 2 33 158
M  V30 158 1 158 159
M  V30 159 2 159 160
M  V30 160 1 10 5
M  V30 161 1 27 14
M  V30 162 1 160 31
M  V30 163 1 15 8
M  V30 164 1 27 18
M  V30 165 1 154 145
M  V30 166 1 25 20
M  V30 167 1 154 149
M  V30 168 1 160 23
M  V30 169 1 1 161
M  V30 170 1 1 162
M  V30 171 1 4 163
M  V30 172 1 6 164
M  V30 173 1 7 165
M  V30 174 1 10 166
M  V30 175 1 12 167
M  V30 176 1 12 168
M  V30 177 1 12 169
M  V30 178 1 13 170
M  V30 179 1 13 171
M  V30 180 1 13 172
M  V30 181 1 16 173
M  V30 182 1 16 174
M  V30 183 1 17 175
M  V30 184 1 17 176
M  V30 185 1 18 177
M  V30 186 1 20 178
M  V30 187 1 21 179
M  V30 188 1 21 180
M  V30 189 1 22 181
M  V30 190 1 22 182
M  V30 191 1 26 183
M  V30 192 1 29 184
M  V30 193 1 29 185
M  V30 194 1 29 186
M  V30 195 1 30 187
M  V30 196 1 30 188
M  V30 197 1 30 189
M  V30 198 1 32 190
M  V30 199 1 34 191
M  V30 200 1 34 192
M  V30 201 1 37 193
M  V30 202 1 38 194
M  V30 203 1 38 195
M  V30 204 1 39 196
M  V30 205 1 39 197
M  V30 206 1 40 198
M  V30 207 1 40 199
M  V30 208 1 41 200
M  V30 209 1 41 201
M  V30 210 1 42 202 CFG=1
M  V30 211 1 43 203
M  V30 212 1 46 204 CFG=1
M  V30 213 1 47 205
M  V30 214 1 47 206
M  V30 215 1 48 207
M  V30 216 1 48 208
M  V30 217 1 49 209
M  V30 218 1 49 210
M  V30 219 1 50 211
M  V30 220 1 52 212
M  V30 221 1 53 213
M  V30 222 1 53 214
M  V30 223 1 54 215
M  V30 224 1 57 216 CFG=3
M  V30 225 1 58 217
M  V30 226 1 58 218
M  V30 227 1 59 219
M  V30 228 1 59 220
M  V30 229 1 60 221
M  V30 230 1 60 222
M  V30 231 1 61 223
M  V30 232 1 63 224
M  V30 233 1 64 225
M  V30 234 1 64 226
M  V30 235 1 65 227
M  V30 236 1 68 228 CFG=1
M  V30 237 1 69 229
M  V30 238 1 69 230
M  V30 239 1 70 231
M  V30 240 1 70 232
M  V30 241 1 71 233
M  V30 242 1 71 234
M  V30 243 1 72 235
M  V30 244 1 74 236
M  V30 245 1 75 237
M  V30 246 1 75 238
M  V30 247 1 76 239
M  V30 248 1 79 240 CFG=1
M  V30 249 1 80 241
M  V30 250 1 80 242
M  V30 251 1 81 243
M  V30 252 1 81 244
M  V30 253 1 82 245
M  V30 254 1 82 246
M  V30 255 1 83 247
M  V30 256 1 85 248
M  V30 257 1 86 249
M  V30 258 1 86 250
M  V30 259 1 87 251
M  V30 260 1 90 252 CFG=3
M  V30 261 1 91 253
M  V30 262 1 91 254
M  V30 263 1 92 255
M  V30 264 1 92 256
M  V30 265 1 93 257
M  V30 266 1 93 258
M  V30 267 1 94 259
M  V30 268 1 96 260
M  V30 269 1 97 261
M  V30 270 1 97 262
M  V30 271 1 98 263
M  V30 272 1 101 264 CFG=1
M  V30 273 1 102 265
M  V30 274 1 102 266
M  V30 275 1 103 267
M  V30 276 1 103 268
M  V30 277 1 104 269
M  V30 278 1 104 270
M  V30 279 1 105 271
M  V30 280 1 107 272
M  V30 281 1 108 273
M  V30 282 1 108 274
M  V30 283 1 109 275
M  V30 284 1 112 276
M  V30 285 1 112 277
M  V30 286 1 113 278
M  V30 287 1 113 279
M  V30 288 1 114 280
M  V30 289 1 114 281
M  V30 290 1 115 282
M  V30 291 1 115 283
M  V30 292 1 116 284
M  V30 293 1 116 285
M  V30 294 1 117 286
M  V30 295 1 120 287 CFG=3
M  V30 296 1 121 288
M  V30 297 1 121 289
M  V30 298 1 122 290
M  V30 299 1 122 291
M  V30 300 1 123 292
M  V30 301 1 123 293
M  V30 302 1 124 294
M  V30 303 1 126 295
M  V30 304 1 127 296
M  V30 305 1 127 297
M  V30 306 1 128 298
M  V30 307 1 131 299
M  V30 308 1 131 300
M  V30 309 1 132 301
M  V30 310 1 132 302
M  V30 311 1 133 303
M  V30 312 1 133 304
M  V30 313 1 134 305
M  V30 314 1 134 306
M  V30 315 1 135 307
M  V30 316 1 135 308
M  V30 317 1 136 309
M  V30 318 1 136 310
M  V30 319 1 137 311
M  V30 320 1 137 312
M  V30 321 1 138 313
M  V30 322 1 139 314
M  V30 323 1 139 315
M  V30 324 1 140 316
M  V30 325 1 140 317
M  V30 326 1 141 318
M  V30 327 1 146 319
M  V30 328 1 147 320
M  V30 329 1 148 321
M  V30 330 1 150 322
M  V30 331 1 152 323
M  V30 332 1 153 324
M  V30 333 1 156 325
M  V30 334 1 156 326
M  V30 335 1 158 327
M  V30 336 1 159 328
M  V30 END BOND
M  V30 END CTAB
M  END
>  <Dataset>  (705) 
ChEMBL_Kinases

>  <Ligand_Instance>  (705) 
nan

>  <PDB_ID>  (705) 
nan

>  <Standardized_SMILES>  (705) 
C=S(=O)(O)c1ccc2c(c1)C(C)(C)C1=[N+]2CCC2OC3CCN4C(=C3C=C12)C(C)(C)c1cc(CC(=O)NCCCC[C@@H](NC(=O)[C@@H](CCCNC(=N)N)NC(=O)[C@@H](CCCNC(=N)N)NC(=O)[C@@H](CCCNC(=N)N)NC(=O)[C@@H](CCCNC(=N)N)NC(=O)[C@@H](CCCNC(=N)N)NC(=O)[C@@H](CCCNC(=N)N)NC(=O)CCCCCNC(=O)[C@@H](CCCNC(=N)N)NC(=O)CCCCCCCNCCNS(=O)(=O)c2cccc3cnccc23)C(N)=O)ccc14

>  <Name>  (705) 
nan

>  <Pocket>  (705) 
nan

>  <ATP_Site>  (705) 
nan

>  <Peripheral>  (705) 
nan

>  <Num_H_Atoms_ProtBoundConf>  (705) 
nan

>  <Num_Resolved_Atoms>  (705) 
nan

>  <Num_Not_Resolved_Atoms>  (705) 
nan

$$$$
CHEMBL491473
     RDKit          3D

  0  0  0  0  0  0  0  0  0  0999 V3000
M  V30 BEGIN CTAB
M  V30 COUNTS 60 64 0 0 0
M  V30 BEGIN ATOM
M  V30 1 C 2.420312 -3.642993 2.372602 0
M  V30 2 O 1.196028 -3.783828 1.699271 0
M  V30 3 C 0.486917 -2.669705 1.315153 0
M  V30 4 C 1.071428 -1.440014 1.642486 0
M  V30 5 C 0.465695 -0.242205 1.315587 0
M  V30 6 C 0.986294 1.000711 1.607712 0
M  V30 7 O 2.200924 1.005633 2.274998 0
M  V30 8 C 2.885697 2.151351 2.657009 0
M  V30 9 C 4.158891 2.466760 2.224717 0
M  V30 10 C 4.755241 3.638828 2.667176 0
M  V30 11 C 4.104099 4.500758 3.532502 0
M  V30 12 N 4.387843 5.672396 4.129667 0
M  V30 13 C 3.369242 6.093943 4.899868 0
M  V30 14 C 3.351502 7.349054 5.699160 0
M  V30 15 C 2.360611 5.130426 4.792937 0
M  V30 16 C 2.819077 4.136766 3.940066 0
M  V30 17 C 2.177137 2.976211 3.527452 0
M  V30 18 F 0.934721 2.711736 3.976593 0
M  V30 19 N 0.330250 2.131828 1.252897 0
M  V30 20 C -0.859144 2.053026 0.599114 0
M  V30 21 N -1.406354 0.840191 0.292528 0
M  V30 22 C -0.741327 -0.271166 0.652373 0
M  V30 23 C -1.295287 -1.489636 0.342080 0
M  V30 24 C -0.741851 -2.712219 0.639677 0
M  V30 25 O -1.133530 -3.997442 0.416019 0
M  V30 26 C -2.231033 -4.537973 -0.207619 0
M  V30 27 C -2.420412 -4.232029 -1.658986 0
M  V30 28 C -3.682747 -4.909621 -2.209740 0
M  V30 29 N -3.775037 -4.554380 -3.609814 0
M  V30 30 C -4.968246 -5.174315 -4.201089 0
M  V30 31 C -4.662034 -5.071575 -5.693046 0
M  V30 32 C -3.153774 -5.066688 -5.798904 0
M  V30 33 C -2.700860 -5.170098 -4.344630 0
M  V30 34 H 2.309259 -3.028703 3.299178 0
M  V30 35 H 2.897742 -4.601463 2.612861 0
M  V30 36 H 3.125112 -3.091550 1.712165 0
M  V30 37 H 2.014024 -1.348303 2.160955 0
M  V30 38 H 4.654547 1.782340 1.548156 0
M  V30 39 H 5.742148 3.900319 2.342752 0
M  V30 40 H 5.301235 6.203098 4.011207 0
M  V30 41 H 4.253255 7.342361 6.377995 0
M  V30 42 H 3.415229 8.254141 5.096846 0
M  V30 43 H 2.490744 7.326657 6.416275 0
M  V30 44 H 1.423786 5.219609 5.313286 0
M  V30 45 H -1.400741 2.952075 0.306019 0
M  V30 46 H -2.238781 -1.550429 -0.166167 0
M  V30 47 H -3.149005 -4.113954 0.307346 0
M  V30 48 H -2.208133 -5.643034 -0.027276 0
M  V30 49 H -1.546955 -4.634412 -2.236088 0
M  V30 50 H -2.573083 -3.165730 -1.804486 0
M  V30 51 H -4.536795 -4.412355 -1.666030 0
M  V30 52 H -3.690411 -5.993225 -2.020682 0
M  V30 53 H -5.859264 -4.548817 -3.967576 0
M  V30 54 H -5.061184 -6.217997 -3.870687 0
M  V30 55 H -5.036937 -4.060591 -6.009968 0
M  V30 56 H -5.140653 -5.892340 -6.240031 0
M  V30 57 H -2.756324 -5.909776 -6.414009 0
M  V30 58 H -2.787988 -4.085372 -6.180691 0
M  V30 59 H -1.742103 -4.654033 -4.266081 0
M  V30 60 H -2.632316 -6.267212 -4.116212 0
M  V30 END ATOM
M  V30 BEGIN BOND
M  V30 1 1 1 2
M  V30 2 1 2 3
M  V30 3 2 3 4
M  V30 4 1 4 5
M  V30 5 2 5 6
M  V30 6 1 6 7
M  V30 7 1 7 8
M  V30 8 2 8 9
M  V30 9 1 9 10
M  V30 10 2 10 11
M  V30 11 1 11 12
M  V30 12 1 12 13
M  V30 13 1 13 14
M  V30 14 2 13 15
M  V30 15 1 15 16
M  V30 16 2 16 17
M  V30 17 1 17 18
M  V30 18 1 6 19
M  V30 19 2 19 20
M  V30 20 1 20 21
M  V30 21 2 21 22
M  V30 22 1 22 23
M  V30 23 2 23 24
M  V30 24 1 24 25
M  V30 25 1 25 26
M  V30 26 1 26 27
M  V30 27 1 27 28
M  V30 28 1 28 29
M  V30 29 1 29 30
M  V30 30 1 30 31
M  V30 31 1 31 32
M  V30 32 1 32 33
M  V30 33 1 24 3
M  V30 34 1 33 29
M  V30 35 1 22 5
M  V30 36 1 17 8
M  V30 37 1 16 11
M  V30 38 1 1 34
M  V30 39 1 1 35
M  V30 40 1 1 36
M  V30 41 1 4 37
M  V30 42 1 9 38
M  V30 43 1 10 39
M  V30 44 1 12 40
M  V30 45 1 14 41
M  V30 46 1 14 42
M  V30 47 1 14 43
M  V30 48 1 15 44
M  V30 49 1 20 45
M  V30 50 1 23 46
M  V30 51 1 26 47
M  V30 52 1 26 48
M  V30 53 1 27 49
M  V30 54 1 27 50
M  V30 55 1 28 51
M  V30 56 1 28 52
M  V30 57 1 30 53
M  V30 58 1 30 54
M  V30 59 1 31 55
M  V30 60 1 31 56
M  V30 61 1 32 57
M  V30 62 1 32 58
M  V30 63 1 33 59
M  V30 64 1 33 60
M  V30 END BOND
M  V30 END CTAB
M  END
>  <Dataset>  (706) 
ChEMBL_Kinases

>  <Ligand_Instance>  (706) 
nan

>  <PDB_ID>  (706) 
nan

>  <Standardized_SMILES>  (706) 
COc1cc2c(Oc3ccc4[nH]c(C)cc4c3F)ncnc2cc1OCCCN1CCCC1

>  <Name>  (706) 
CEDIRANIB

>  <Pocket>  (706) 
nan

>  <ATP_Site>  (706) 
nan

>  <Peripheral>  (706) 
nan

>  <Num_H_Atoms_ProtBoundConf>  (706) 
nan

>  <Num_Resolved_Atoms>  (706) 
nan

>  <Num_Not_Resolved_Atoms>  (706) 
nan

$$$$
CHEMBL2392364
     RDKit          3D

  0  0  0  0  0  0  0  0  0  0999 V3000
M  V30 BEGIN CTAB
M  V30 COUNTS 38 41 0 0 0
M  V30 BEGIN ATOM
M  V30 1 Cl -0.803516 -3.333029 2.508725 0
M  V30 2 C 0.732465 -3.520614 1.704220 0
M  V30 3 C 1.228135 -4.678348 1.124324 0
M  V30 4 C 2.469906 -4.672371 0.520078 0
M  V30 5 Cl 2.904511 -6.243667 -0.150490 0
M  V30 6 C 3.232520 -3.532013 0.480772 0
M  V30 7 C 2.741395 -2.369821 1.059673 0
M  V30 8 C 3.667814 -1.208264 0.953056 0
M  V30 9 N 3.509716 -0.445396 -0.246110 0
M  V30 10 C 2.399408 0.288658 -0.731677 0
M  V30 11 N 2.513707 0.915232 -1.933801 0
M  V30 12 C 1.491873 1.626304 -2.434736 0
M  V30 13 C 0.311580 1.727631 -1.730255 0
M  V30 14 C 0.172133 1.108338 -0.522079 0
M  V30 15 C -1.081904 1.230585 0.208449 0
M  V30 16 C -2.144555 1.952622 -0.284816 0
M  V30 17 C -3.347974 2.095826 0.372189 0
M  V30 18 C -3.532109 1.494481 1.596137 0
M  V30 19 C -2.496534 0.759661 2.133106 0
M  V30 20 C -1.320617 0.653843 1.429632 0
M  V30 21 O -2.934191 0.267167 3.353527 0
M  V30 22 C -4.213085 0.769586 3.680110 0
M  V30 23 O -4.583665 1.441037 2.492127 0
M  V30 24 N 1.232274 0.411765 -0.075914 0
M  V30 25 C 1.501645 -2.388376 1.659445 0
M  V30 26 H 0.559051 -5.544129 1.198064 0
M  V30 27 H 4.185023 -3.694171 -0.031362 0
M  V30 28 H 3.397909 -0.564623 1.847903 0
M  V30 29 H 4.678434 -1.554056 1.156254 0
M  V30 30 H 4.377605 -0.457745 -0.831736 0
M  V30 31 H 1.695790 2.079373 -3.395142 0
M  V30 32 H -0.409693 2.315395 -2.236757 0
M  V30 33 H -2.122102 2.465537 -1.226408 0
M  V30 34 H -4.176042 2.651458 0.000508 0
M  V30 35 H -0.562261 0.072744 1.903064 0
M  V30 36 H -4.925764 -0.038380 3.942009 0
M  V30 37 H -4.166943 1.493528 4.534751 0
M  V30 38 H 1.292779 -1.396899 2.055340 0
M  V30 END ATOM
M  V30 BEGIN BOND
M  V30 1 1 1 2
M  V30 2 2 2 3
M  V30 3 1 3 4
M  V30 4 1 4 5
M  V30 5 2 4 6
M  V30 6 1 6 7
M  V30 7 1 7 8
M  V30 8 1 8 9
M  V30 9 1 9 10
M  V30 10 2 10 11
M  V30 11 1 11 12
M  V30 12 2 12 13
M  V30 13 1 13 14
M  V30 14 1 14 15
M  V30 15 2 15 16
M  V30 16 1 16 17
M  V30 17 2 17 18
M  V30 18 1 18 19
M  V30 19 2 19 20
M  V30 20 1 19 21
M  V30 21 1 21 22
M  V30 22 1 22 23
M  V30 23 2 14 24
M  V30 24 2 7 25
M  V30 25 1 25 2
M  V30 26 1 24 10
M  V30 27 1 20 15
M  V30 28 1 23 18
M  V30 29 1 3 26
M  V30 30 1 6 27
M  V30 31 1 8 28
M  V30 32 1 8 29
M  V30 33 1 9 30
M  V30 34 1 12 31
M  V30 35 1 13 32
M  V30 36 1 16 33
M  V30 37 1 17 34
M  V30 38 1 20 35
M  V30 39 1 22 36
M  V30 40 1 22 37
M  V30 41 1 25 38
M  V30 END BOND
M  V30 END CTAB
M  END
>  <Dataset>  (707) 
ChEMBL_Kinases

>  <Ligand_Instance>  (707) 
nan

>  <PDB_ID>  (707) 
nan

>  <Standardized_SMILES>  (707) 
Clc1cc(Cl)cc(CNc2nccc(-c3ccc4c(c3)OCO4)n2)c1

>  <Name>  (707) 
nan

>  <Pocket>  (707) 
nan

>  <ATP_Site>  (707) 
nan

>  <Peripheral>  (707) 
nan

>  <Num_H_Atoms_ProtBoundConf>  (707) 
nan

>  <Num_Resolved_Atoms>  (707) 
nan

>  <Num_Not_Resolved_Atoms>  (707) 
nan

$$$$
CHEMBL410456
     RDKit          3D

  0  0  0  0  0  0  0  0  0  0999 V3000
M  V30 BEGIN CTAB
M  V30 COUNTS 48 52 0 0 0
M  V30 BEGIN ATOM
M  V30 1 N -3.818257 -6.611891 4.623207 0
M  V30 2 C -3.408641 -5.271277 4.858535 0
M  V30 3 O -3.638648 -4.816191 6.008226 0
M  V30 4 C -2.757125 -4.432604 3.860347 0
M  V30 5 C -2.419567 -3.152948 4.254294 0
M  V30 6 C -1.794432 -2.324513 3.319159 0
M  V30 7 C -1.546157 -2.836146 2.040038 0
M  V30 8 C -0.893389 -1.965239 1.063831 0
M  V30 9 N -0.491160 -0.703566 1.242033 0
M  V30 10 C 0.072965 -0.208924 0.116938 0
M  V30 11 C 0.564265 1.167189 0.151170 0
M  V30 12 C 0.001268 2.135038 -0.656428 0
M  V30 13 C 0.437807 3.449183 -0.653378 0
M  V30 14 C 1.462457 3.785335 0.183519 0
M  V30 15 C 2.054190 2.826727 1.014725 0
M  V30 16 C 1.617279 1.497092 1.015921 0
M  V30 17 O 3.090547 3.222282 1.844545 0
M  V30 18 C 3.247939 4.543929 2.346965 0
M  V30 19 C 2.404040 5.553881 1.600286 0
M  V30 20 O 2.025794 5.051343 0.317472 0
M  V30 21 C 0.015779 -1.226626 -0.812263 0
M  V30 22 C 0.551727 -1.004363 -2.149686 0
M  V30 23 C 1.605302 -1.800224 -2.548144 0
M  V30 24 C 2.218935 -1.701860 -3.802216 0
M  V30 25 C 1.678755 -0.727036 -4.628866 0
M  V30 26 C 0.626549 0.079793 -4.252650 0
M  V30 27 N 0.113767 -0.101550 -3.024355 0
M  V30 28 N -0.574247 -2.274671 -0.207797 0
M  V30 29 C -1.892087 -4.126404 1.659487 0
M  V30 30 C -2.507222 -4.924828 2.597639 0
M  V30 31 H -4.801726 -6.956045 4.714080 0
M  V30 32 H -3.418142 -7.527234 4.345327 0
M  V30 33 H -2.624745 -2.790434 5.248224 0
M  V30 34 H -1.504260 -1.306728 3.568845 0
M  V30 35 H -0.812567 1.926365 -1.337470 0
M  V30 36 H 0.020820 4.223249 -1.268665 0
M  V30 37 H 2.081519 0.763985 1.662104 0
M  V30 38 H 4.317247 4.850879 2.401256 0
M  V30 39 H 2.860464 4.512223 3.402069 0
M  V30 40 H 2.967351 6.483305 1.454359 0
M  V30 41 H 1.462733 5.785024 2.139018 0
M  V30 42 H 2.037007 -2.570135 -1.904230 0
M  V30 43 H 3.044230 -2.330149 -4.105075 0
M  V30 44 H 2.091404 -0.569852 -5.637850 0
M  V30 45 H 0.194636 0.842674 -4.883512 0
M  V30 46 H -0.729030 -3.170266 -0.717636 0
M  V30 47 H -1.684449 -4.488624 0.660487 0
M  V30 48 H -2.806898 -5.946378 2.370841 0
M  V30 END ATOM
M  V30 BEGIN BOND
M  V30 1 1 1 2
M  V30 2 2 2 3
M  V30 3 1 2 4
M  V30 4 2 4 5
M  V30 5 1 5 6
M  V30 6 2 6 7
M  V30 7 1 7 8
M  V30 8 2 8 9
M  V30 9 1 9 10
M  V30 10 1 10 11
M  V30 11 2 11 12
M  V30 12 1 12 13
M  V30 13 2 13 14
M  V30 14 1 14 15
M  V30 15 2 15 16
M  V30 16 1 15 17
M  V30 17 1 17 18
M  V30 18 1 18 19
M  V30 19 1 19 20
M  V30 20 2 10 21
M  V30 21 1 21 22
M  V30 22 2 22 23
M  V30 23 1 23 24
M  V30 24 2 24 25
M  V30 25 1 25 26
M  V30 26 2 26 27
M  V30 27 1 21 28
M  V30 28 1 7 29
M  V30 29 2 29 30
M  V30 30 1 30 4
M  V30 31 1 28 8
M  V30 32 1 16 11
M  V30 33 1 27 22
M  V30 34 1 20 14
M  V30 35 1 1 31
M  V30 36 1 1 32
M  V30 37 1 5 33
M  V30 38 1 6 34
M  V30 39 1 12 35
M  V30 40 1 13 36
M  V30 41 1 16 37
M  V30 42 1 18 38
M  V30 43 1 18 39
M  V30 44 1 19 40
M  V30 45 1 19 41
M  V30 46 1 23 42
M  V30 47 1 24 43
M  V30 48 1 25 44
M  V30 49 1 26 45
M  V30 50 1 28 46
M  V30 51 1 29 47
M  V30 52 1 30 48
M  V30 END BOND
M  V30 END CTAB
M  END
>  <Dataset>  (708) 
ChEMBL_Kinases

>  <Ligand_Instance>  (708) 
nan

>  <PDB_ID>  (708) 
nan

>  <Standardized_SMILES>  (708) 
NC(=O)c1ccc(-c2nc(-c3ccc4c(c3)OCCO4)c(-c3ccccn3)[nH]2)cc1

>  <Name>  (708) 
nan

>  <Pocket>  (708) 
nan

>  <ATP_Site>  (708) 
nan

>  <Peripheral>  (708) 
nan

>  <Num_H_Atoms_ProtBoundConf>  (708) 
nan

>  <Num_Resolved_Atoms>  (708) 
nan

>  <Num_Not_Resolved_Atoms>  (708) 
nan

$$$$
CHEMBL215803
     RDKit          3D

  0  0  0  0  0  0  0  0  0  0999 V3000
M  V30 BEGIN CTAB
M  V30 COUNTS 51 56 0 0 0
M  V30 BEGIN ATOM
M  V30 1 C 0.055922 -1.533785 2.343625 0
M  V30 2 C 1.175731 -1.563070 1.431843 0 CFG=2
M  V30 3 C 1.679934 -2.777839 0.673828 0
M  V30 4 C 0.999777 -3.731328 1.648707 0 CFG=1
M  V30 5 C 1.635426 -3.043219 2.851714 0
M  V30 6 N 2.198115 -1.815443 2.480927 0
M  V30 7 C 2.328497 -0.604657 3.088456 0
M  V30 8 C 2.244561 0.688707 2.406844 0
M  V30 9 N 1.140072 1.340336 1.810754 0
M  V30 10 N 0.333505 1.020226 0.816914 0
M  V30 11 C -0.562881 1.840901 0.579143 0
M  V30 12 C -1.379189 1.526056 -0.399929 0
M  V30 13 C -2.395600 2.422605 -0.681262 0
M  V30 14 C -2.407607 3.569487 0.143266 0
M  V30 15 C -1.471068 3.793817 1.170229 0
M  V30 16 C -0.472512 2.901495 1.439814 0
M  V30 17 C 0.613102 2.564915 2.212071 0
M  V30 18 O 0.960889 3.477038 3.205481 0
M  V30 19 C -1.410523 0.343117 -1.225265 0
M  V30 20 N -1.090446 -0.709259 -0.514309 0
M  V30 21 C -1.005077 -1.963874 -0.859928 0
M  V30 22 C -0.663451 -3.052441 -0.107426 0
M  V30 23 C -0.670350 -4.270226 -0.822659 0
M  V30 24 C -0.990378 -4.402255 -2.178595 0
M  V30 25 C -1.330892 -3.281605 -2.910190 0
M  V30 26 C -1.323306 -2.069096 -2.195734 0
M  V30 27 N -1.655477 -1.021978 -2.957710 0
M  V30 28 C -1.726444 0.249661 -2.548574 0
M  V30 29 O -2.036154 1.449225 -3.146589 0
M  V30 30 O -0.285169 -3.450083 1.179762 0
M  V30 31 H -0.931579 -1.130550 2.064608 0
M  V30 32 H -0.280074 -2.363986 2.946260 0
M  V30 33 H 0.214631 -0.786064 3.218873 0
M  V30 34 H 1.470539 -0.887926 0.715113 0
M  V30 35 H 2.757316 -2.938641 0.767122 0
M  V30 36 H 1.423061 -2.865058 -0.351986 0
M  V30 37 H 1.244879 -4.771093 1.518676 0
M  V30 38 H 2.581124 -3.712485 2.978929 0
M  V30 39 H 1.177098 -3.203631 3.807591 0
M  V30 40 H 1.983284 -0.545250 4.185266 0
M  V30 41 H 3.453264 -0.629003 3.362563 0
M  V30 42 H 3.004147 0.606753 1.538658 0
M  V30 43 H 2.789149 1.461552 3.045151 0
M  V30 44 H -3.135600 2.280630 -1.448571 0
M  V30 45 H -3.180036 4.351725 0.001049 0
M  V30 46 H -1.459335 4.662711 1.815058 0
M  V30 47 H 0.977909 3.301719 4.185333 0
M  V30 48 H -0.438640 -5.290243 -0.470887 0
M  V30 49 H -1.003403 -5.336302 -2.757399 0
M  V30 50 H -1.588208 -3.348587 -3.978573 0
M  V30 51 H -1.300829 2.119595 -3.353382 0
M  V30 END ATOM
M  V30 BEGIN BOND
M  V30 1 1 1 2
M  V30 2 1 2 3
M  V30 3 1 3 4
M  V30 4 1 4 5
M  V30 5 1 5 6
M  V30 6 1 6 7
M  V30 7 1 7 8
M  V30 8 1 8 9
M  V30 9 1 9 10
M  V30 10 2 10 11
M  V30 11 1 11 12
M  V30 12 2 12 13
M  V30 13 1 13 14
M  V30 14 2 14 15
M  V30 15 1 15 16
M  V30 16 2 16 17
M  V30 17 1 17 18
M  V30 18 1 12 19
M  V30 19 2 19 20
M  V30 20 1 20 21
M  V30 21 2 21 22
M  V30 22 1 22 23
M  V30 23 2 23 24
M  V30 24 1 24 25
M  V30 25 2 25 26
M  V30 26 1 26 27
M  V30 27 2 27 28
M  V30 28 1 28 29
M  V30 29 1 22 30
M  V30 30 1 6 2
M  V30 31 1 17 9
M  V30 32 1 28 19
M  V30 33 1 30 4
M  V30 34 1 16 11
M  V30 35 1 26 21
M  V30 36 1 1 31
M  V30 37 1 1 32
M  V30 38 1 1 33
M  V30 39 1 2 34 CFG=3
M  V30 40 1 3 35
M  V30 41 1 3 36
M  V30 42 1 4 37 CFG=3
M  V30 43 1 5 38
M  V30 44 1 5 39
M  V30 45 1 7 40
M  V30 46 1 7 41
M  V30 47 1 8 42
M  V30 48 1 8 43
M  V30 49 1 13 44
M  V30 50 1 14 45
M  V30 51 1 15 46
M  V30 52 1 18 47
M  V30 53 1 23 48
M  V30 54 1 24 49
M  V30 55 1 25 50
M  V30 56 1 29 51
M  V30 END BOND
M  V30 END CTAB
M  END
>  <Dataset>  (709) 
ChEMBL_Kinases

>  <Ligand_Instance>  (709) 
nan

>  <PDB_ID>  (709) 
nan

>  <Standardized_SMILES>  (709) 
C[C@@H]1C[C@H]2CN1CCn1nc3c(cccc3c1O)-c1nc3c(cccc3nc1O)O2

>  <Name>  (709) 
nan

>  <Pocket>  (709) 
nan

>  <ATP_Site>  (709) 
nan

>  <Peripheral>  (709) 
nan

>  <Num_H_Atoms_ProtBoundConf>  (709) 
nan

>  <Num_Resolved_Atoms>  (709) 
nan

>  <Num_Not_Resolved_Atoms>  (709) 
nan

$$$$
CHEMBL1179821
     RDKit          3D

  0  0  0  0  0  0  0  0  0  0999 V3000
M  V30 BEGIN CTAB
M  V30 COUNTS 37 39 0 0 0
M  V30 BEGIN ATOM
M  V30 1 C -2.006769 -4.387104 2.575841 0
M  V30 2 N -1.122923 -3.387052 1.965057 0
M  V30 3 C 0.229734 -3.719470 1.667006 0
M  V30 4 O 0.932390 -4.754357 1.806599 0
M  V30 5 C 0.736284 -2.460797 1.082767 0
M  V30 6 C 1.944559 -2.216598 0.626044 0
M  V30 7 C 2.433454 -0.981837 0.055829 0
M  V30 8 C 3.294056 -1.068317 -1.012519 0
M  V30 9 C 3.826877 0.070036 -1.628842 0
M  V30 10 C 3.410234 1.259947 -1.067714 0
M  V30 11 C 2.554708 1.402621 -0.003220 0
M  V30 12 C 2.050483 0.233454 0.576048 0
M  V30 13 O 2.393473 2.759597 0.248187 0
M  V30 14 C 3.040875 3.512661 -0.758554 0
M  V30 15 O 3.774572 2.561308 -1.468928 0
M  V30 16 N -0.325146 -1.502825 1.078472 0
M  V30 17 C -1.374748 -2.018826 1.574034 0
M  V30 18 N -2.618281 -1.394483 1.733240 0
M  V30 19 C -3.147634 -0.402503 0.885895 0
M  V30 20 C -2.537929 0.936237 0.851698 0
M  V30 21 N -1.155217 0.955963 0.441261 0
M  V30 22 H -2.494869 -4.960582 1.761303 0
M  V30 23 H -1.446449 -5.024328 3.261631 0
M  V30 24 H -2.778390 -3.870205 3.184919 0
M  V30 25 H 2.648485 -3.056661 0.693115 0
M  V30 26 H 3.614270 -2.020376 -1.443905 0
M  V30 27 H 4.506067 0.068268 -2.468281 0
M  V30 28 H 1.381047 0.309808 1.410729 0
M  V30 29 H 2.267761 4.032480 -1.382453 0
M  V30 30 H 3.706110 4.258892 -0.276740 0
M  V30 31 H -3.181202 -1.725149 2.579238 0
M  V30 32 H -3.193046 -0.777447 -0.170429 0
M  V30 33 H -4.239561 -0.257130 1.142120 0
M  V30 34 H -2.723716 1.560600 1.748199 0
M  V30 35 H -3.075439 1.504694 0.032404 0
M  V30 36 H -0.720120 1.865693 0.689943 0
M  V30 37 H -1.006353 0.737365 -0.547021 0
M  V30 END ATOM
M  V30 BEGIN BOND
M  V30 1 1 1 2
M  V30 2 1 2 3
M  V30 3 2 3 4
M  V30 4 1 3 5
M  V30 5 2 5 6
M  V30 6 1 6 7
M  V30 7 2 7 8
M  V30 8 1 8 9
M  V30 9 2 9 10
M  V30 10 1 10 11
M  V30 11 2 11 12
M  V30 12 1 11 13
M  V30 13 1 13 14
M  V30 14 1 14 15
M  V30 15 1 5 16
M  V30 16 2 16 17
M  V30 17 1 17 18
M  V30 18 1 18 19
M  V30 19 1 19 20
M  V30 20 1 20 21
M  V30 21 1 17 2
M  V30 22 1 12 7
M  V30 23 1 15 10
M  V30 24 1 1 22
M  V30 25 1 1 23
M  V30 26 1 1 24
M  V30 27 1 6 25
M  V30 28 1 8 26
M  V30 29 1 9 27
M  V30 30 1 12 28
M  V30 31 1 14 29
M  V30 32 1 14 30
M  V30 33 1 18 31
M  V30 34 1 19 32
M  V30 35 1 19 33
M  V30 36 1 20 34
M  V30 37 1 20 35
M  V30 38 1 21 36
M  V30 39 1 21 37
M  V30 END BOND
M  V30 END CTAB
M  END
>  <Dataset>  (710) 
ChEMBL_Kinases

>  <Ligand_Instance>  (710) 
nan

>  <PDB_ID>  (710) 
nan

>  <Standardized_SMILES>  (710) 
CN1C(=O)/C(=C/c2ccc3c(c2)OCO3)N=C1NCCN

>  <Name>  (710) 
nan

>  <Pocket>  (710) 
nan

>  <ATP_Site>  (710) 
nan

>  <Peripheral>  (710) 
nan

>  <Num_H_Atoms_ProtBoundConf>  (710) 
nan

>  <Num_Resolved_Atoms>  (710) 
nan

>  <Num_Not_Resolved_Atoms>  (710) 
nan

$$$$
CHEMBL2023714
     RDKit          3D

  0  0  0  0  0  0  0  0  0  0999 V3000
M  V30 BEGIN CTAB
M  V30 COUNTS 187 188 0 0 0
M  V30 BEGIN ATOM
M  V30 1 N -7.824284 -4.662301 -1.935700 0
M  V30 2 C -6.904028 -4.300507 -1.095789 0
M  V30 3 N -6.411574 -4.984232 0.031336 0
M  V30 4 N -6.312735 -3.028361 -1.373426 0
M  V30 5 C -6.908885 -1.965307 -2.203562 0
M  V30 6 C -5.871066 -0.831651 -2.291410 0
M  V30 7 C -4.682917 -1.423221 -2.955818 0
M  V30 8 C -3.471738 -0.586046 -3.108117 0 CFG=1
M  V30 9 N -2.955279 -0.126186 -1.862253 0
M  V30 10 C -1.728253 0.229270 -1.354464 0
M  V30 11 O -0.732873 0.117971 -2.184609 0
M  V30 12 C -0.745436 0.685165 -0.410091 0 CFG=1
M  V30 13 C -0.958286 0.541064 1.042445 0
M  V30 14 C -2.160313 1.324345 1.489044 0
M  V30 15 C -2.408003 1.234331 2.987507 0
M  V30 16 N -2.647104 -0.098630 3.452606 0
M  V30 17 C -2.924910 -0.432747 4.821005 0
M  V30 18 N -2.907741 0.529251 5.669326 0
M  V30 19 N -3.199650 -1.814218 5.113932 0
M  V30 20 N 0.605082 0.426497 -0.866143 0
M  V30 21 C 1.761571 1.093144 -1.308077 0
M  V30 22 O 1.434102 2.336287 -1.257450 0
M  V30 23 C 3.018792 0.508271 -1.723015 0 CFG=1
M  V30 24 C 4.183286 1.088592 -0.992211 0
M  V30 25 C 4.359707 2.565600 -1.166862 0
M  V30 26 C 5.622660 2.974920 -0.378193 0
M  V30 27 N 5.815079 4.389353 -0.496218 0
M  V30 28 C 4.898376 5.280005 0.132142 0
M  V30 29 N 3.853614 4.910854 0.759908 0
M  V30 30 N 5.204263 6.663213 0.038606 0
M  V30 31 N 3.080172 -0.963770 -1.658368 0
M  V30 32 C 3.083214 -2.002712 -2.635337 0
M  V30 33 O 2.958964 -1.271417 -3.649539 0
M  V30 34 C 3.208361 -3.391560 -2.303434 0 CFG=1
M  V30 35 C 4.461983 -3.957183 -3.054513 0
M  V30 36 C 4.221786 -3.793338 -4.518268 0
M  V30 37 C 5.409179 -4.348692 -5.340491 0
M  V30 38 N 5.099400 -4.147398 -6.742859 0
M  V30 39 C 5.996471 -4.530862 -7.776058 0
M  V30 40 N 7.182336 -4.839063 -7.336765 0
M  V30 41 N 5.551190 -4.552969 -9.099454 0
M  V30 42 N 3.403011 -3.712888 -0.888879 0
M  V30 43 C 3.116014 -4.954253 -0.191027 0
M  V30 44 O 2.687108 -5.564015 -1.221606 0
M  V30 45 C 3.513716 -4.694932 1.210267 0 CFG=1
M  V30 46 C 4.962850 -4.404022 1.403241 0
M  V30 47 C 6.003912 -5.383073 1.129820 0
M  V30 48 C 6.201826 -6.070096 -0.147408 0
M  V30 49 N 5.205558 -7.021499 -0.560981 0
M  V30 50 C 5.457012 -7.575575 -1.853806 0
M  V30 51 N 6.602006 -7.451340 -2.474076 0
M  V30 52 N 4.462453 -8.326638 -2.594910 0
M  V30 53 N 2.733219 -3.494996 1.655063 0
M  V30 54 C 2.618182 -3.282216 3.096241 0
M  V30 55 O 3.227582 -4.108855 3.791415 0
M  V30 56 C 1.786754 -2.106637 3.337718 0 CFG=1
M  V30 57 C 0.325161 -2.690229 3.511687 0
M  V30 58 C -0.112867 -3.460145 2.313600 0
M  V30 59 C -1.527128 -4.018875 2.572832 0
M  V30 60 N -2.030661 -4.801154 1.503330 0
M  V30 61 C -2.392097 -4.331166 0.224814 0
M  V30 62 N -2.243684 -3.055994 0.033378 0
M  V30 63 N -2.902860 -5.055705 -0.877293 0
M  V30 64 N 2.072379 -1.493305 4.661118 0
M  V30 65 C 1.642502 -0.163657 4.936488 0
M  V30 66 O 0.998654 0.478445 4.047829 0
M  V30 67 C 2.027030 0.290508 6.273858 0
M  V30 68 C 1.397302 1.535000 6.773651 0
M  V30 69 C 1.573961 2.756245 5.902666 0
M  V30 70 C 0.964564 3.968615 6.584651 0
M  V30 71 C 1.011982 5.222176 5.780623 0
M  V30 72 N 0.205303 5.146468 4.550584 0
M  V30 73 C -1.209071 5.082374 4.963992 0
M  V30 74 C -2.039259 5.131056 3.676528 0
M  V30 75 N -3.410112 5.065092 3.956817 0
M  V30 76 S -4.603919 5.105584 2.798854 0
M  V30 77 O -4.491625 3.904850 1.852367 0
M  V30 78 O -5.944378 4.859344 3.495964 0
M  V30 79 C -4.711223 6.537432 1.809669 0
M  V30 80 C -5.746470 7.411063 2.116544 0
M  V30 81 C -5.920997 8.603488 1.468661 0
M  V30 82 C -5.059152 9.013078 0.451387 0
M  V30 83 C -4.049293 8.136456 0.165716 0
M  V30 84 C -3.164592 8.484442 -0.864269 0
M  V30 85 N -2.169497 7.648323 -1.197479 0
M  V30 86 C -2.007496 6.465060 -0.545583 0
M  V30 87 C -2.847311 6.088540 0.466626 0
M  V30 88 C -3.861786 6.933176 0.810746 0
M  V30 89 C -2.407298 -1.620885 -3.615013 0
M  V30 90 N -1.208808 -2.368913 -3.559730 0
M  V30 91 O -2.829300 -2.079775 -4.720417 0
M  V30 92 H -8.266641 -5.610655 -1.742644 0
M  V30 93 H -6.639372 -4.701372 0.989784 0
M  V30 94 H -5.855995 -5.744427 0.468598 0
M  V30 95 H -5.383081 -2.868099 -0.919033 0
M  V30 96 H -7.863282 -1.640595 -1.794128 0
M  V30 97 H -7.071974 -2.422695 -3.198136 0
M  V30 98 H -5.710823 -0.394320 -1.304300 0
M  V30 99 H -6.359720 -0.076956 -2.957806 0
M  V30 100 H -5.001880 -1.716983 -3.989844 0
M  V30 101 H -4.378486 -2.388932 -2.493362 0
M  V30 102 H -3.467439 0.103104 -3.938422 0
M  V30 103 H -3.523831 0.035095 -1.013256 0
M  V30 104 H -0.776165 1.860149 -0.533295 0
M  V30 105 H -1.135627 -0.499274 1.386443 0
M  V30 106 H -0.029035 0.893575 1.547594 0
M  V30 107 H -3.052925 0.929878 0.986958 0
M  V30 108 H -2.013028 2.401306 1.245701 0
M  V30 109 H -1.448954 1.601298 3.451364 0
M  V30 110 H -3.180875 1.957986 3.285783 0
M  V30 111 H -2.612468 -0.857513 2.729274 0
M  V30 112 H -3.109214 0.304382 6.668878 0
M  V30 113 H -4.060268 -2.364446 5.296294 0
M  V30 114 H -2.276024 -2.311369 5.135030 0
M  V30 115 H 0.628723 -0.645576 -0.819560 0
M  V30 116 H 3.167948 0.745834 -2.806581 0
M  V30 117 H 4.127803 0.864747 0.113473 0
M  V30 118 H 5.121359 0.619380 -1.367482 0
M  V30 119 H 3.501295 3.178751 -0.822031 0
M  V30 120 H 4.518889 2.820919 -2.243587 0
M  V30 121 H 5.538058 2.672350 0.674396 0
M  V30 122 H 6.483837 2.410092 -0.832451 0
M  V30 123 H 6.632363 4.774796 -1.045016 0
M  V30 124 H 3.152102 5.499733 1.234222 0
M  V30 125 H 5.156684 7.567390 0.558539 0
M  V30 126 H 5.456869 7.656397 -0.109251 0
M  V30 127 H 3.113211 -1.082555 -0.593103 0
M  V30 128 H 2.401420 -3.992365 -2.766185 0
M  V30 129 H 4.613232 -4.991756 -2.739914 0
M  V30 130 H 5.307664 -3.296652 -2.755281 0
M  V30 131 H 4.044202 -2.750127 -4.847158 0
M  V30 132 H 3.336909 -4.361865 -4.879697 0
M  V30 133 H 5.597990 -5.388050 -5.068148 0
M  V30 134 H 6.252650 -3.666276 -5.068012 0
M  V30 135 H 4.180526 -3.702241 -7.040561 0
M  V30 136 H 7.421843 -4.800511 -6.349509 0
M  V30 137 H 4.588776 -4.256985 -9.348932 0
M  V30 138 H 5.878737 -4.779771 -10.049192 0
M  V30 139 H 3.834351 -2.824685 -0.477893 0
M  V30 140 H 3.293441 -5.552268 1.838052 0
M  V30 141 H 5.241254 -3.464811 0.795213 0
M  V30 142 H 5.132951 -4.060444 2.488685 0
M  V30 143 H 7.017556 -4.882401 1.414509 0
M  V30 144 H 5.912113 -6.236042 1.910499 0
M  V30 145 H 6.349422 -5.369566 -1.012957 0
M  V30 146 H 7.174345 -6.663044 -0.161398 0
M  V30 147 H 4.328510 -7.472991 -0.190705 0
M  V30 148 H 6.786783 -7.851777 -3.407387 0
M  V30 149 H 3.624983 -8.913768 -2.775786 0
M  V30 150 H 4.505422 -8.396601 -3.630011 0
M  V30 151 H 2.329505 -2.887729 0.903139 0
M  V30 152 H 1.662501 -1.346521 2.631490 0
M  V30 153 H 0.358225 -3.328245 4.393490 0
M  V30 154 H -0.371488 -1.820833 3.607936 0
M  V30 155 H 0.505754 -4.369641 2.138318 0
M  V30 156 H -0.209076 -2.820627 1.440673 0
M  V30 157 H -2.214983 -3.206830 2.895328 0
M  V30 158 H -1.414374 -4.676580 3.485888 0
M  V30 159 H -2.171372 -5.844252 1.616000 0
M  V30 160 H -2.469268 -2.591411 -0.851806 0
M  V30 161 H -3.040538 -5.852399 -1.527693 0
M  V30 162 H -3.589271 -4.607032 -1.520941 0
M  V30 163 H 2.593626 -2.115406 5.337433 0
M  V30 164 H 1.971361 -0.540856 7.032509 0
M  V30 165 H 3.139985 0.495963 6.223584 0
M  V30 166 H 0.314680 1.397698 7.045148 0
M  V30 167 H 1.922208 1.794322 7.738197 0
M  V30 168 H 2.675684 2.915488 5.815869 0
M  V30 169 H 1.197950 2.632716 4.873054 0
M  V30 170 H 1.625313 4.150377 7.478208 0
M  V30 171 H -0.033525 3.750053 7.011393 0
M  V30 172 H 2.065185 5.386937 5.471457 0
M  V30 173 H 0.731697 6.111193 6.374969 0
M  V30 174 H 0.350729 6.025661 4.021778 0
M  V30 175 H -1.341010 4.083619 5.425300 0
M  V30 176 H -1.481979 5.897996 5.650067 0
M  V30 177 H -1.633979 4.323403 3.043778 0
M  V30 178 H -1.749906 6.081179 3.147449 0
M  V30 179 H -3.651784 5.532415 4.875618 0
M  V30 180 H -6.466107 7.157619 2.900061 0
M  V30 181 H -6.768151 9.233895 1.767886 0
M  V30 182 H -5.250049 9.955268 -0.009636 0
M  V30 183 H -3.316236 9.443745 -1.378000 0
M  V30 184 H -1.194991 5.811878 -0.843480 0
M  V30 185 H -2.743874 5.169205 0.972465 0
M  V30 186 H -1.299581 -3.307953 -3.067792 0
M  V30 187 H -0.375390 -1.896642 -4.019371 0
M  V30 END ATOM
M  V30 BEGIN BOND
M  V30 1 2 1 2 CFG=2
M  V30 2 1 2 3
M  V30 3 1 2 4
M  V30 4 1 4 5
M  V30 5 1 5 6
M  V30 6 1 6 7
M  V30 7 1 7 8
M  V30 8 1 8 9
M  V30 9 1 9 10
M  V30 10 2 10 11
M  V30 11 1 10 12
M  V30 12 1 12 13
M  V30 13 1 13 14
M  V30 14 1 14 15
M  V30 15 1 15 16
M  V30 16 1 16 17
M  V30 17 2 17 18 CFG=2
M  V30 18 1 17 19
M  V30 19 1 12 20
M  V30 20 1 20 21
M  V30 21 2 21 22
M  V30 22 1 21 23
M  V30 23 1 23 24
M  V30 24 1 24 25
M  V30 25 1 25 26
M  V30 26 1 26 27
M  V30 27 1 27 28
M  V30 28 2 28 29 CFG=2
M  V30 29 1 28 30
M  V30 30 1 23 31
M  V30 31 1 31 32
M  V30 32 2 32 33
M  V30 33 1 32 34
M  V30 34 1 34 35
M  V30 35 1 35 36
M  V30 36 1 36 37
M  V30 37 1 37 38
M  V30 38 1 38 39
M  V30 39 2 39 40 CFG=2
M  V30 40 1 39 41
M  V30 41 1 34 42
M  V30 42 1 42 43
M  V30 43 2 43 44
M  V30 44 1 43 45
M  V30 45 1 45 46
M  V30 46 1 46 47
M  V30 47 1 47 48
M  V30 48 1 48 49
M  V30 49 1 49 50
M  V30 50 2 50 51 CFG=2
M  V30 51 1 50 52
M  V30 52 1 45 53
M  V30 53 1 53 54
M  V30 54 2 54 55
M  V30 55 1 54 56
M  V30 56 1 56 57
M  V30 57 1 57 58
M  V30 58 1 58 59
M  V30 59 1 59 60
M  V30 60 1 60 61
M  V30 61 2 61 62 CFG=2
M  V30 62 1 61 63
M  V30 63 1 56 64
M  V30 64 1 64 65
M  V30 65 2 65 66
M  V30 66 1 65 67
M  V30 67 1 67 68
M  V30 68 1 68 69
M  V30 69 1 69 70
M  V30 70 1 70 71
M  V30 71 1 71 72
M  V30 72 1 72 73
M  V30 73 1 73 74
M  V30 74 1 74 75
M  V30 75 1 75 76
M  V30 76 2 76 77
M  V30 77 2 76 78
M  V30 78 1 76 79
M  V30 79 2 79 80
M  V30 80 1 80 81
M  V30 81 2 81 82
M  V30 82 1 82 83
M  V30 83 2 83 84
M  V30 84 1 84 85
M  V30 85 2 85 86
M  V30 86 1 86 87
M  V30 87 2 87 88
M  V30 88 1 8 89
M  V30 89 1 89 90
M  V30 90 2 89 91
M  V30 91 1 88 79
M  V30 92 1 88 83
M  V30 93 1 1 92
M  V30 94 1 3 93
M  V30 95 1 3 94
M  V30 96 1 4 95
M  V30 97 1 5 96
M  V30 98 1 5 97
M  V30 99 1 6 98
M  V30 100 1 6 99
M  V30 101 1 7 100
M  V30 102 1 7 101
M  V30 103 1 8 102 CFG=3
M  V30 104 1 9 103
M  V30 105 1 12 104 CFG=1
M  V30 106 1 13 105
M  V30 107 1 13 106
M  V30 108 1 14 107
M  V30 109 1 14 108
M  V30 110 1 15 109
M  V30 111 1 15 110
M  V30 112 1 16 111
M  V30 113 1 18 112
M  V30 114 1 19 113
M  V30 115 1 19 114
M  V30 116 1 20 115
M  V30 117 1 23 116 CFG=3
M  V30 118 1 24 117
M  V30 119 1 24 118
M  V30 120 1 25 119
M  V30 121 1 25 120
M  V30 122 1 26 121
M  V30 123 1 26 122
M  V30 124 1 27 123
M  V30 125 1 29 124
M  V30 126 1 30 125
M  V30 127 1 30 126
M  V30 128 1 31 127
M  V30 129 1 34 128 CFG=3
M  V30 130 1 35 129
M  V30 131 1 35 130
M  V30 132 1 36 131
M  V30 133 1 36 132
M  V30 134 1 37 133
M  V30 135 1 37 134
M  V30 136 1 38 135
M  V30 137 1 40 136
M  V30 138 1 41 137
M  V30 139 1 41 138
M  V30 140 1 42 139
M  V30 141 1 45 140 CFG=1
M  V30 142 1 46 141
M  V30 143 1 46 142
M  V30 144 1 47 143
M  V30 145 1 47 144
M  V30 146 1 48 145
M  V30 147 1 48 146
M  V30 148 1 49 147
M  V30 149 1 51 148
M  V30 150 1 52 149
M  V30 151 1 52 150
M  V30 152 1 53 151
M  V30 153 1 56 152 CFG=3
M  V30 154 1 57 153
M  V30 155 1 57 154
M  V30 156 1 58 155
M  V30 157 1 58 156
M  V30 158 1 59 157
M  V30 159 1 59 158
M  V30 160 1 60 159
M  V30 161 1 62 160
M  V30 162 1 63 161
M  V30 163 1 63 162
M  V30 164 1 64 163
M  V30 165 1 67 164
M  V30 166 1 67 165
M  V30 167 1 68 166
M  V30 168 1 68 167
M  V30 169 1 69 168
M  V30 170 1 69 169
M  V30 171 1 70 170
M  V30 172 1 70 171
M  V30 173 1 71 172
M  V30 174 1 71 173
M  V30 175 1 72 174
M  V30 176 1 73 175
M  V30 177 1 73 176
M  V30 178 1 74 177
M  V30 179 1 74 178
M  V30 180 1 75 179
M  V30 181 1 80 180
M  V30 182 1 81 181
M  V30 183 1 82 182
M  V30 184 1 84 183
M  V30 185 1 86 184
M  V30 186 1 87 185
M  V30 187 1 90 186
M  V30 188 1 90 187
M  V30 END BOND
M  V30 END CTAB
M  END
>  <Dataset>  (711) 
ChEMBL_Kinases

>  <Ligand_Instance>  (711) 
nan

>  <PDB_ID>  (711) 
nan

>  <Standardized_SMILES>  (711) 
N=C(N)NCCC[C@@H](NC(=O)[C@@H](CCCNC(=N)N)NC(=O)[C@@H](CCCNC(=N)N)NC(=O)[C@@H](CCCNC(=N)N)NC(=O)[C@@H](CCCNC(=N)N)NC(=O)[C@@H](CCCNC(=N)N)NC(=O)CCCCCNCCNS(=O)(=O)c1cccc2cnccc12)C(N)=O

>  <Name>  (711) 
nan

>  <Pocket>  (711) 
nan

>  <ATP_Site>  (711) 
nan

>  <Peripheral>  (711) 
nan

>  <Num_H_Atoms_ProtBoundConf>  (711) 
nan

>  <Num_Resolved_Atoms>  (711) 
nan

>  <Num_Not_Resolved_Atoms>  (711) 
nan

$$$$
CHEMBL367488
     RDKit          3D

  0  0  0  0  0  0  0  0  0  0999 V3000
M  V30 BEGIN CTAB
M  V30 COUNTS 66 69 0 0 0
M  V30 BEGIN ATOM
M  V30 1 O 3.716547 2.304342 0.064658 0
M  V30 2 C 3.200257 1.322784 0.656617 0
M  V30 3 N 3.283484 0.041746 0.066660 0
M  V30 4 C 3.935170 -0.229534 -1.199827 0 CFG=1
M  V30 5 C 5.147099 -1.144317 -0.991516 0
M  V30 6 N 6.020001 -0.930415 -2.131044 0
M  V30 7 C 5.424459 -1.374018 -3.354486 0
M  V30 8 C 4.564359 -0.326771 -4.013559 0
M  V30 9 C 3.168634 -0.242734 -3.512494 0
M  V30 10 C 2.967121 -0.878669 -2.169534 0
M  V30 11 O 1.672080 -0.677256 -1.658083 0
M  V30 12 C 0.827873 -1.693289 -1.265988 0
M  V30 13 O 1.377860 -2.822335 -1.430119 0
M  V30 14 C -0.517769 -1.524145 -0.731696 0
M  V30 15 C -0.999535 -0.243089 -0.608789 0
M  V30 16 C -2.287471 -0.021591 -0.096225 0
M  V30 17 O -2.676195 1.296840 -0.013704 0
M  V30 18 C -3.060724 -1.100485 0.281672 0
M  V30 19 C -4.409525 -0.870927 0.731253 0
M  V30 20 O -4.776492 0.253949 0.226423 0
M  V30 21 C -5.469870 -1.426931 1.513922 0
M  V30 22 C -6.760917 -1.082446 1.084991 0
M  V30 23 O -7.046734 -0.285458 -0.020274 0
M  V30 24 C -7.908815 -1.518483 1.743739 0
M  V30 25 C -7.731512 -2.303758 2.837461 0
M  V30 26 C -6.511047 -2.683533 3.323995 0
M  V30 27 C -5.412991 -2.220908 2.633907 0
M  V30 28 C -4.115800 -2.501743 3.273136 0
M  V30 29 O -2.917694 -2.221058 3.184325 0
M  V30 30 O -3.948875 -3.332709 4.353248 0
M  V30 31 C -2.488189 -2.370407 0.118836 0
M  V30 32 O -3.195031 -3.527347 0.463210 0
M  V30 33 C -1.232681 -2.648243 -0.376622 0
M  V30 34 C 2.542544 1.585863 1.930612 0
M  V30 35 C 2.517309 2.867395 2.415623 0
M  V30 36 C 1.920729 3.215739 3.609414 0
M  V30 37 C 1.311833 2.233581 4.368898 0
M  V30 38 O 0.660361 2.390184 5.595180 0
M  V30 39 C 1.332943 0.923911 3.881803 0
M  V30 40 C 1.935225 0.606658 2.688565 0
M  V30 41 H 2.858497 -0.779564 0.549115 0
M  V30 42 H 4.362261 0.715035 -1.641658 0
M  V30 43 H 5.643954 -0.955452 -0.042459 0
M  V30 44 H 4.793814 -2.213881 -0.971286 0
M  V30 45 H 6.882614 -1.487543 -1.931709 0
M  V30 46 H 6.288072 -1.566743 -4.057732 0
M  V30 47 H 4.931577 -2.373081 -3.284412 0
M  V30 48 H 5.074953 0.653383 -3.794772 0
M  V30 49 H 4.623540 -0.459454 -5.098081 0
M  V30 50 H 2.501618 -0.763126 -4.231326 0
M  V30 51 H 2.790403 0.808183 -3.460776 0
M  V30 52 H 3.239752 -1.953130 -2.229616 0
M  V30 53 H -0.389645 0.582173 -0.904938 0
M  V30 54 H -2.663378 1.707189 0.925998 0
M  V30 55 H -7.777761 -0.543631 -0.672733 0
M  V30 56 H -8.901618 -1.276389 1.445355 0
M  V30 57 H -8.595468 -2.665838 3.375528 0
M  V30 58 H -6.421627 -3.300308 4.185438 0
M  V30 59 H -3.351781 -4.150043 4.404428 0
M  V30 60 H -3.119614 -4.398519 -0.021911 0
M  V30 61 H -0.829630 -3.630559 -0.484748 0
M  V30 62 H 2.976949 3.681861 1.867633 0
M  V30 63 H 1.874355 4.209903 4.033941 0
M  V30 64 H -0.104767 3.049713 5.720896 0
M  V30 65 H 0.876479 0.113005 4.425873 0
M  V30 66 H 1.935212 -0.417879 2.337001 0
M  V30 END ATOM
M  V30 BEGIN BOND
M  V30 1 2 1 2
M  V30 2 1 2 3
M  V30 3 1 3 4
M  V30 4 1 4 5
M  V30 5 1 5 6
M  V30 6 1 6 7
M  V30 7 1 7 8
M  V30 8 1 8 9
M  V30 9 1 9 10
M  V30 10 1 10 11
M  V30 11 1 11 12
M  V30 12 2 12 13
M  V30 13 1 12 14
M  V30 14 2 14 15
M  V30 15 1 15 16
M  V30 16 1 16 17
M  V30 17 2 16 18
M  V30 18 1 18 19
M  V30 19 2 19 20
M  V30 20 1 19 21
M  V30 21 2 21 22
M  V30 22 1 22 23
M  V30 23 1 22 24
M  V30 24 2 24 25
M  V30 25 1 25 26
M  V30 26 2 26 27
M  V30 27 1 27 28
M  V30 28 2 28 29
M  V30 29 1 28 30
M  V30 30 1 18 31
M  V30 31 1 31 32
M  V30 32 2 31 33
M  V30 33 1 2 34
M  V30 34 2 34 35
M  V30 35 1 35 36
M  V30 36 2 36 37
M  V30 37 1 37 38
M  V30 38 1 37 39
M  V30 39 2 39 40
M  V30 40 1 10 4
M  V30 41 1 33 14
M  V30 42 1 40 34
M  V30 43 1 27 21
M  V30 44 1 3 41
M  V30 45 1 4 42 CFG=3
M  V30 46 1 5 43
M  V30 47 1 5 44
M  V30 48 1 6 45
M  V30 49 1 7 46
M  V30 50 1 7 47
M  V30 51 1 8 48
M  V30 52 1 8 49
M  V30 53 1 9 50
M  V30 54 1 9 51
M  V30 55 1 10 52
M  V30 56 1 15 53
M  V30 57 1 17 54
M  V30 58 1 23 55
M  V30 59 1 24 56
M  V30 60 1 25 57
M  V30 61 1 26 58
M  V30 62 1 30 59
M  V30 63 1 32 60
M  V30 64 1 33 61
M  V30 65 1 35 62
M  V30 66 1 36 63
M  V30 67 1 38 64
M  V30 68 1 39 65
M  V30 69 1 40 66
M  V30 END BOND
M  V30 END CTAB
M  END
>  <Dataset>  (712) 
ChEMBL_Kinases

>  <Ligand_Instance>  (712) 
nan

>  <PDB_ID>  (712) 
nan

>  <Standardized_SMILES>  (712) 
O=C(N[C@H]1CNCCCC1OC(=O)c1cc(O)c(C(=O)c2c(O)cccc2C(=O)O)c(O)c1)c1ccc(O)cc1

>  <Name>  (712) 
nan

>  <Pocket>  (712) 
nan

>  <ATP_Site>  (712) 
nan

>  <Peripheral>  (712) 
nan

>  <Num_H_Atoms_ProtBoundConf>  (712) 
nan

>  <Num_Resolved_Atoms>  (712) 
nan

>  <Num_Not_Resolved_Atoms>  (712) 
nan

$$$$
CHEMBL1803073
     RDKit          3D

  0  0  0  0  0  0  0  0  0  0999 V3000
M  V30 BEGIN CTAB
M  V30 COUNTS 45 49 0 0 0
M  V30 BEGIN ATOM
M  V30 1 C 0.506965 -1.099868 5.834347 0
M  V30 2 N 0.941803 -0.433866 4.603741 0
M  V30 3 C 1.795348 0.715296 4.474970 0
M  V30 4 O 2.313963 1.348468 5.425429 0
M  V30 5 C 1.903677 0.952545 3.016287 0
M  V30 6 C 2.626790 1.921208 2.474626 0
M  V30 7 C 2.600752 1.987428 1.012456 0
M  V30 8 C 1.412036 1.833346 0.318613 0
M  V30 9 C 1.259023 1.850550 -1.052504 0
M  V30 10 C 2.420965 2.042227 -1.776648 0
M  V30 11 C 3.659296 2.205614 -1.144691 0
M  V30 12 C 3.733037 2.176139 0.236804 0
M  V30 13 O 4.575236 2.370634 -2.181045 0
M  V30 14 C 4.017019 1.780207 -3.366483 0
M  V30 15 O 2.640012 2.113811 -3.147588 0
M  V30 16 N 1.133479 -0.035962 2.396749 0
M  V30 17 C 0.599813 -0.806776 3.282585 0
M  V30 18 N -0.222652 -1.905955 2.905367 0
M  V30 19 C -1.165848 -1.862038 1.843046 0
M  V30 20 C -1.591968 -0.730936 1.213769 0
M  V30 21 C -2.485888 -0.700617 0.168076 0
M  V30 22 C -2.988965 -1.926208 -0.273081 0
M  V30 23 C -2.595972 -3.127089 0.326527 0
M  V30 24 C -1.680859 -3.058018 1.384904 0
M  V30 25 O -3.146884 -4.293512 -0.181081 0
M  V30 26 C -3.200823 -4.403059 -1.610053 0
M  V30 27 C -3.677641 -3.144746 -2.261103 0
M  V30 28 O -3.886673 -2.114137 -1.295982 0
M  V30 29 H 0.193181 -0.300849 6.522312 0
M  V30 30 H 1.327567 -1.731026 6.259996 0
M  V30 31 H -0.347184 -1.745851 5.573136 0
M  V30 32 H 3.182105 2.591213 3.146558 0
M  V30 33 H 0.514574 1.694788 0.919806 0
M  V30 34 H 0.275860 1.718664 -1.496524 0
M  V30 35 H 4.695464 2.302377 0.726849 0
M  V30 36 H 4.406928 2.193479 -4.286530 0
M  V30 37 H 4.080278 0.702611 -3.234452 0
M  V30 38 H -0.102503 -2.788408 3.476456 0
M  V30 39 H -1.198954 0.193427 1.570516 0
M  V30 40 H -2.828037 0.190541 -0.335235 0
M  V30 41 H -1.373647 -3.996974 1.854414 0
M  V30 42 H -2.175088 -4.645500 -1.959908 0
M  V30 43 H -3.813780 -5.276368 -1.867319 0
M  V30 44 H -2.892724 -2.791935 -2.981089 0
M  V30 45 H -4.610246 -3.337881 -2.796879 0
M  V30 END ATOM
M  V30 BEGIN BOND
M  V30 1 1 1 2
M  V30 2 1 2 3
M  V30 3 2 3 4
M  V30 4 1 3 5
M  V30 5 2 5 6
M  V30 6 1 6 7
M  V30 7 2 7 8
M  V30 8 1 8 9
M  V30 9 2 9 10
M  V30 10 1 10 11
M  V30 11 2 11 12
M  V30 12 1 11 13
M  V30 13 1 13 14
M  V30 14 1 14 15
M  V30 15 1 5 16
M  V30 16 2 16 17
M  V30 17 1 17 18
M  V30 18 1 18 19
M  V30 19 2 19 20
M  V30 20 1 20 21
M  V30 21 2 21 22
M  V30 22 1 22 23
M  V30 23 2 23 24
M  V30 24 1 23 25
M  V30 25 1 25 26
M  V30 26 1 26 27
M  V30 27 1 27 28
M  V30 28 1 17 2
M  V30 29 1 24 19
M  V30 30 1 12 7
M  V30 31 1 28 22
M  V30 32 1 15 10
M  V30 33 1 1 29
M  V30 34 1 1 30
M  V30 35 1 1 31
M  V30 36 1 6 32
M  V30 37 1 8 33
M  V30 38 1 9 34
M  V30 39 1 12 35
M  V30 40 1 14 36
M  V30 41 1 14 37
M  V30 42 1 18 38
M  V30 43 1 20 39
M  V30 44 1 21 40
M  V30 45 1 24 41
M  V30 46 1 26 42
M  V30 47 1 26 43
M  V30 48 1 27 44
M  V30 49 1 27 45
M  V30 END BOND
M  V30 END CTAB
M  END
>  <Dataset>  (713) 
ChEMBL_Kinases

>  <Ligand_Instance>  (713) 
nan

>  <PDB_ID>  (713) 
nan

>  <Standardized_SMILES>  (713) 
CN1C(=O)/C(=C/c2ccc3c(c2)OCO3)N=C1Nc1ccc2c(c1)OCCO2

>  <Name>  (713) 
nan

>  <Pocket>  (713) 
nan

>  <ATP_Site>  (713) 
nan

>  <Peripheral>  (713) 
nan

>  <Num_H_Atoms_ProtBoundConf>  (713) 
nan

>  <Num_Resolved_Atoms>  (713) 
nan

>  <Num_Not_Resolved_Atoms>  (713) 
nan

$$$$
CHEMBL4645387
     RDKit          3D

  0  0  0  0  0  0  0  0  0  0999 V3000
M  V30 BEGIN CTAB
M  V30 COUNTS 47 51 0 0 0
M  V30 BEGIN ATOM
M  V30 1 O -0.008987 -1.955086 3.272583 0
M  V30 2 C -0.263745 -1.062975 2.453651 0
M  V30 3 C 0.661368 -0.032948 1.995036 0
M  V30 4 C 1.880385 -0.050281 2.495722 0
M  V30 5 C 2.825731 0.971931 2.050427 0
M  V30 6 N 2.561563 1.947987 1.160003 0
M  V30 7 C 3.677488 2.710501 0.990219 0
M  V30 8 C 4.008662 3.822496 0.226845 0
M  V30 9 C 5.290894 4.317372 0.338222 0
M  V30 10 F 5.676387 5.403005 -0.382394 0
M  V30 11 C 6.262048 3.779767 1.156965 0
M  V30 12 F 7.516405 4.283766 1.249880 0
M  V30 13 C 5.908679 2.661635 1.916469 0
M  V30 14 C 4.615654 2.138202 1.823796 0
M  V30 15 N 4.106270 1.074409 2.477238 0
M  V30 16 C -1.643223 -1.153721 1.975615 0
M  V30 17 C -2.093397 -1.864401 0.884323 0
M  V30 18 C -1.080811 -2.597186 0.135151 0
M  V30 19 C -0.649629 -3.892333 0.327503 0
M  V30 20 C 0.325607 -4.448476 -0.471450 0
M  V30 21 C 0.866135 -3.668642 -1.480105 0
M  V30 22 F 1.827236 -4.177813 -2.287566 0
M  V30 23 C 0.470613 -2.360295 -1.719097 0
M  V30 24 C -0.516207 -1.833239 -0.892116 0
M  V30 25 C -3.434339 -1.855531 0.554428 0
M  V30 26 C -3.857719 -2.579257 -0.547584 0
M  V30 27 C -5.204530 -2.556126 -0.859025 0
M  V30 28 F -5.669165 -3.257544 -1.940963 0
M  V30 29 C -6.100482 -1.828529 -0.087886 0
M  V30 30 C -5.691926 -1.101060 1.015531 0
M  V30 31 C -4.345663 -1.131932 1.316210 0
M  V30 32 N -3.843414 -0.449257 2.382235 0
M  V30 33 C -2.539239 -0.440878 2.726387 0
M  V30 34 O -2.250080 0.244020 3.741153 0
M  V30 35 H 0.284248 0.678310 1.272568 0
M  V30 36 H 2.165181 -0.796027 3.209813 0
M  V30 37 H 3.273955 4.251590 -0.410410 0
M  V30 38 H 6.656315 2.219306 2.569806 0
M  V30 39 H 4.573044 0.461820 3.155771 0
M  V30 40 H -1.149114 -4.403748 1.150692 0
M  V30 41 H 0.628905 -5.455384 -0.286252 0
M  V30 42 H 0.921591 -1.785846 -2.520982 0
M  V30 43 H -0.781337 -0.801235 -1.132928 0
M  V30 44 H -3.152316 -3.143718 -1.143132 0
M  V30 45 H -7.172295 -1.788123 -0.305654 0
M  V30 46 H -6.391149 -0.533681 1.616804 0
M  V30 47 H -4.555508 0.094883 2.948091 0
M  V30 END ATOM
M  V30 BEGIN BOND
M  V30 1 2 1 2
M  V30 2 1 2 3
M  V30 3 2 3 4
M  V30 4 1 4 5
M  V30 5 2 5 6
M  V30 6 1 6 7
M  V30 7 2 7 8
M  V30 8 1 8 9
M  V30 9 1 9 10
M  V30 10 2 9 11
M  V30 11 1 11 12
M  V30 12 1 11 13
M  V30 13 2 13 14
M  V30 14 1 14 15
M  V30 15 1 2 16
M  V30 16 2 16 17
M  V30 17 1 17 18
M  V30 18 2 18 19
M  V30 19 1 19 20
M  V30 20 2 20 21
M  V30 21 1 21 22
M  V30 22 1 21 23
M  V30 23 2 23 24
M  V30 24 1 17 25
M  V30 25 2 25 26
M  V30 26 1 26 27
M  V30 27 1 27 28
M  V30 28 2 27 29
M  V30 29 1 29 30
M  V30 30 2 30 31
M  V30 31 1 31 32
M  V30 32 1 32 33
M  V30 33 2 33 34
M  V30 34 1 15 5
M  V30 35 1 33 16
M  V30 36 1 14 7
M  V30 37 1 24 18
M  V30 38 1 31 25
M  V30 39 1 3 35
M  V30 40 1 4 36
M  V30 41 1 8 37
M  V30 42 1 13 38
M  V30 43 1 15 39
M  V30 44 1 19 40
M  V30 45 1 20 41
M  V30 46 1 23 42
M  V30 47 1 24 43
M  V30 48 1 26 44
M  V30 49 1 29 45
M  V30 50 1 30 46
M  V30 51 1 32 47
M  V30 END BOND
M  V30 END CTAB
M  END
>  <Dataset>  (714) 
ChEMBL_Kinases

>  <Ligand_Instance>  (714) 
nan

>  <PDB_ID>  (714) 
nan

>  <Standardized_SMILES>  (714) 
O=C(/C=C/c1nc2cc(F)c(F)cc2[nH]1)c1c(-c2ccc(F)cc2)c2cc(F)ccc2[nH]c1=O

>  <Name>  (714) 
nan

>  <Pocket>  (714) 
nan

>  <ATP_Site>  (714) 
nan

>  <Peripheral>  (714) 
nan

>  <Num_H_Atoms_ProtBoundConf>  (714) 
nan

>  <Num_Resolved_Atoms>  (714) 
nan

>  <Num_Not_Resolved_Atoms>  (714) 
nan

$$$$
CHEMBL337834
     RDKit          3D

  0  0  0  0  0  0  0  0  0  0999 V3000
M  V30 BEGIN CTAB
M  V30 COUNTS 124 127 0 0 0
M  V30 BEGIN ATOM
M  V30 1 C 2.153545 -2.377539 3.024949 0
M  V30 2 C 3.235535 -2.984395 2.176516 0
M  V30 3 C 4.482973 -3.064368 3.081730 0
M  V30 4 C 3.591323 -2.064407 1.073594 0 CFG=1
M  V30 5 C 4.667272 -2.612154 0.191095 0
M  V30 6 O 4.964589 -3.832756 0.399447 0
M  V30 7 N 5.481479 -2.129262 -0.856055 0
M  V30 8 C 5.424962 -1.031468 -1.804122 0 CFG=2
M  V30 9 C 6.752749 -0.808210 -2.483082 0
M  V30 10 O 6.674513 0.265904 -3.396962 0
M  V30 11 C 4.882041 0.245775 -1.210711 0
M  V30 12 C 3.401279 0.207069 -1.308793 0
M  V30 13 C 2.972175 1.197428 -2.202698 0
M  V30 14 C 1.600375 1.332744 -2.439208 0
M  V30 15 N 1.445982 2.391772 -3.398661 0
M  V30 16 C 1.513144 1.611813 -4.606812 0
M  V30 17 O 1.654702 0.416484 -4.157389 0
M  V30 18 C 1.451233 1.970776 -6.070981 0
M  V30 19 C 1.372710 0.673670 -6.802466 0
M  V30 20 C 0.057399 -0.042213 -6.470323 0
M  V30 21 C -1.079438 0.724933 -6.992862 0
M  V30 22 C -2.480491 0.351962 -6.792152 0
M  V30 23 C -2.869242 -1.012983 -7.200243 0
M  V30 24 C -2.370329 -2.077992 -6.290024 0
M  V30 25 C -2.981451 -1.916367 -4.889841 0
M  V30 26 C -2.395479 -3.033078 -4.019530 0
M  V30 27 C -3.059558 -2.885895 -2.664561 0
M  V30 28 C -2.502896 -3.930574 -1.722959 0
M  V30 29 C -3.236516 -3.779275 -0.394630 0
M  V30 30 C -3.093991 -2.410562 0.176548 0
M  V30 31 O -2.556156 -1.283381 0.034117 0
M  V30 32 N -3.871679 -2.268082 1.381052 0
M  V30 33 C -3.836295 -1.010025 2.015927 0
M  V30 34 C -4.832497 -0.182891 1.482204 0
M  V30 35 C -4.975060 1.122575 1.973905 0
M  V30 36 C -4.114226 1.549455 2.981854 0
M  V30 37 C -3.123009 0.730379 3.515654 0
M  V30 38 C -3.011823 -0.546503 3.007836 0
M  V30 39 N -2.086707 0.787488 4.518270 0
M  V30 40 C -1.054363 -0.101636 4.081294 0
M  V30 41 C -1.937896 1.501448 5.731721 0 CFG=1
M  V30 42 C -0.545699 1.825333 6.153168 0
M  V30 43 C 0.256404 2.673159 5.214767 0
M  V30 44 C 0.195865 0.679302 6.774205 0
M  V30 45 C -2.749578 2.741077 5.858467 0
M  V30 46 O -2.215606 3.560376 6.695750 0
M  V30 47 N -3.915360 3.438315 5.432050 0
M  V30 48 C -5.050383 2.990316 4.650123 0 CFG=2
M  V30 49 C -5.612601 1.702408 5.153351 0
M  V30 50 O -6.691519 1.323506 4.362957 0
M  V30 51 C -4.558803 2.924676 3.221534 0
M  V30 52 C 0.634202 0.558714 -1.852247 0
M  V30 53 C 1.061571 -0.401151 -0.985065 0
M  V30 54 C 2.401402 -0.578432 -0.717155 0
M  V30 55 N 2.464964 -1.684709 0.208620 0
M  V30 56 C 1.250782 -2.453137 0.205106 0
M  V30 57 H 1.267113 -3.068033 3.094646 0
M  V30 58 H 1.863645 -1.350288 2.721914 0
M  V30 59 H 2.457485 -2.257159 4.108830 0
M  V30 60 H 3.059026 -4.043896 1.897750 0
M  V30 61 H 4.191977 -3.226164 4.138846 0
M  V30 62 H 5.124907 -3.925173 2.786660 0
M  V30 63 H 5.077316 -2.133394 3.040765 0
M  V30 64 H 4.026328 -1.155274 1.537677 0
M  V30 65 H 6.372533 -2.677228 -1.029042 0
M  V30 66 H 4.712172 -1.317838 -2.630347 0
M  V30 67 H 7.017533 -1.690553 -3.101279 0
M  V30 68 H 7.592207 -0.661882 -1.776834 0
M  V30 69 H 6.271563 -0.055882 -4.238913 0
M  V30 70 H 5.220271 0.389672 -0.161187 0
M  V30 71 H 5.236173 1.104775 -1.799880 0
M  V30 72 H 3.798869 1.735840 -2.597832 0
M  V30 73 H 1.314812 3.400633 -3.609390 0
M  V30 74 H 0.656648 2.645370 -6.332404 0
M  V30 75 H 2.428108 2.482818 -6.343048 0
M  V30 76 H 2.232327 0.028693 -6.454846 0
M  V30 77 H 1.502120 0.779430 -7.879452 0
M  V30 78 H 0.001296 -0.375706 -5.438782 0
M  V30 79 H 0.164340 -0.992873 -7.115526 0
M  V30 80 H -0.905577 0.776387 -8.136630 0
M  V30 81 H -1.012284 1.831898 -6.691823 0
M  V30 82 H -2.812072 0.569953 -5.722108 0
M  V30 83 H -3.135442 1.057204 -7.408200 0
M  V30 84 H -3.983881 -1.129736 -7.259514 0
M  V30 85 H -2.451035 -1.272548 -8.226954 0
M  V30 86 H -1.310962 -2.191965 -6.136640 0
M  V30 87 H -2.763091 -3.102559 -6.619877 0
M  V30 88 H -2.792386 -0.935799 -4.455494 0
M  V30 89 H -4.059048 -2.094363 -4.931745 0
M  V30 90 H -2.646512 -4.011679 -4.432782 0
M  V30 91 H -1.302073 -2.918222 -3.945684 0
M  V30 92 H -2.876804 -1.884700 -2.221591 0
M  V30 93 H -4.153916 -2.983656 -2.776580 0
M  V30 94 H -1.414947 -3.881770 -1.631591 0
M  V30 95 H -2.759282 -4.921452 -2.156470 0
M  V30 96 H -4.297598 -4.038007 -0.573848 0
M  V30 97 H -2.813536 -4.507206 0.296875 0
M  V30 98 H -4.488741 -2.971545 1.893624 0
M  V30 99 H -5.548823 -0.431578 0.695533 0
M  V30 100 H -5.731462 1.805516 1.594641 0
M  V30 101 H -2.317718 -1.280073 3.316635 0
M  V30 102 H -0.102292 0.457537 4.356183 0
M  V30 103 H -0.843855 -0.078134 2.969865 0
M  V30 104 H -0.872271 -1.022660 4.604295 0
M  V30 105 H -2.331258 0.860483 6.583396 0
M  V30 106 H -0.700041 2.516542 7.046398 0
M  V30 107 H 0.460099 3.711921 5.563638 0
M  V30 108 H 1.299221 2.275279 5.030954 0
M  V30 109 H -0.261147 2.850061 4.225081 0
M  V30 110 H -0.477226 -0.228343 6.819825 0
M  V30 111 H 0.430149 0.828852 7.872308 0
M  V30 112 H 1.186652 0.468198 6.346502 0
M  V30 113 H -3.988429 4.453942 5.719810 0
M  V30 114 H -5.846281 3.768538 4.766555 0
M  V30 115 H -6.005787 1.895938 6.175708 0
M  V30 116 H -4.887826 0.895382 5.183043 0
M  V30 117 H -6.803891 0.363476 4.254558 0
M  V30 118 H -5.320357 3.260410 2.495227 0
M  V30 119 H -3.708982 3.658686 3.073504 0
M  V30 120 H -0.375354 0.795832 -2.144059 0
M  V30 121 H 0.300335 -1.008570 -0.519285 0
M  V30 122 H 1.657107 -3.450971 0.597001 0
M  V30 123 H 0.514237 -2.265316 0.972499 0
M  V30 124 H 0.916618 -2.842906 -0.777157 0
M  V30 END ATOM
M  V30 BEGIN BOND
M  V30 1 1 1 2
M  V30 2 1 2 3
M  V30 3 1 2 4
M  V30 4 1 4 5
M  V30 5 2 5 6
M  V30 6 1 5 7
M  V30 7 1 7 8
M  V30 8 1 8 9
M  V30 9 1 9 10
M  V30 10 1 8 11
M  V30 11 1 11 12
M  V30 12 2 12 13
M  V30 13 1 13 14
M  V30 14 1 14 15
M  V30 15 1 15 16
M  V30 16 2 16 17
M  V30 17 1 16 18
M  V30 18 1 18 19
M  V30 19 1 19 20
M  V30 20 1 20 21
M  V30 21 1 21 22
M  V30 22 1 22 23
M  V30 23 1 23 24
M  V30 24 1 24 25
M  V30 25 1 25 26
M  V30 26 1 26 27
M  V30 27 1 27 28
M  V30 28 1 28 29
M  V30 29 1 29 30
M  V30 30 2 30 31
M  V30 31 1 30 32
M  V30 32 1 32 33
M  V30 33 2 33 34
M  V30 34 1 34 35
M  V30 35 2 35 36
M  V30 36 1 36 37
M  V30 37 2 37 38
M  V30 38 1 37 39
M  V30 39 1 39 40
M  V30 40 1 39 41
M  V30 41 1 41 42
M  V30 42 1 42 43
M  V30 43 1 42 44
M  V30 44 1 41 45
M  V30 45 2 45 46
M  V30 46 1 45 47
M  V30 47 1 47 48
M  V30 48 1 48 49
M  V30 49 1 49 50
M  V30 50 1 48 51
M  V30 51 2 14 52
M  V30 52 1 52 53
M  V30 53 2 53 54
M  V30 54 1 54 55
M  V30 55 1 55 56
M  V30 56 1 55 4
M  V30 57 1 54 12
M  V30 58 1 38 33
M  V30 59 1 51 36
M  V30 60 1 1 57
M  V30 61 1 1 58
M  V30 62 1 1 59
M  V30 63 1 2 60
M  V30 64 1 3 61
M  V30 65 1 3 62
M  V30 66 1 3 63
M  V30 67 1 4 64 CFG=1
M  V30 68 1 7 65
M  V30 69 1 8 66 CFG=3
M  V30 70 1 9 67
M  V30 71 1 9 68
M  V30 72 1 10 69
M  V30 73 1 11 70
M  V30 74 1 11 71
M  V30 75 1 13 72
M  V30 76 1 15 73
M  V30 77 1 18 74
M  V30 78 1 18 75
M  V30 79 1 19 76
M  V30 80 1 19 77
M  V30 81 1 20 78
M  V30 82 1 20 79
M  V30 83 1 21 80
M  V30 84 1 21 81
M  V30 85 1 22 82
M  V30 86 1 22 83
M  V30 87 1 23 84
M  V30 88 1 23 85
M  V30 89 1 24 86
M  V30 90 1 24 87
M  V30 91 1 25 88
M  V30 92 1 25 89
M  V30 93 1 26 90
M  V30 94 1 26 91
M  V30 95 1 27 92
M  V30 96 1 27 93
M  V30 97 1 28 94
M  V30 98 1 28 95
M  V30 99 1 29 96
M  V30 100 1 29 97
M  V30 101 1 32 98
M  V30 102 1 34 99
M  V30 103 1 35 100
M  V30 104 1 38 101
M  V30 105 1 40 102
M  V30 106 1 40 103
M  V30 107 1 40 104
M  V30 108 1 41 105 CFG=1
M  V30 109 1 42 106
M  V30 110 1 43 107
M  V30 111 1 43 108
M  V30 112 1 43 109
M  V30 113 1 44 110
M  V30 114 1 44 111
M  V30 115 1 44 112
M  V30 116 1 47 113
M  V30 117 1 48 114 CFG=3
M  V30 118 1 49 115
M  V30 119 1 49 116
M  V30 120 1 50 117
M  V30 121 1 51 118
M  V30 122 1 51 119
M  V30 123 1 52 120
M  V30 124 1 53 121
M  V30 125 1 56 122
M  V30 126 1 56 123
M  V30 127 1 56 124
M  V30 END BOND
M  V30 END CTAB
M  END
>  <Dataset>  (715) 
ChEMBL_Kinases

>  <Ligand_Instance>  (715) 
nan

>  <PDB_ID>  (715) 
nan

>  <Standardized_SMILES>  (715) 
CC(C)[C@H]1C(=O)N[C@H](CO)Cc2cc(NC(=O)CCCCCCCCCCCCC(=O)Nc3ccc4c(c3)N(C)[C@@H](C(C)C)C(=O)N[C@H](CO)C4)ccc2N1C

>  <Name>  (715) 
nan

>  <Pocket>  (715) 
nan

>  <ATP_Site>  (715) 
nan

>  <Peripheral>  (715) 
nan

>  <Num_H_Atoms_ProtBoundConf>  (715) 
nan

>  <Num_Resolved_Atoms>  (715) 
nan

>  <Num_Not_Resolved_Atoms>  (715) 
nan

$$$$
CHEMBL4789373
     RDKit          3D

  0  0  0  0  0  0  0  0  0  0999 V3000
M  V30 BEGIN CTAB
M  V30 COUNTS 44 48 0 0 0
M  V30 BEGIN ATOM
M  V30 1 C -1.854788 -5.487641 1.447900 0
M  V30 2 C -2.552400 -4.388787 0.979274 0
M  V30 3 C -2.057113 -3.672789 -0.114048 0
M  V30 4 C -0.874048 -4.058559 -0.727811 0
M  V30 5 C -0.403324 -3.262935 -1.876660 0
M  V30 6 C 0.485936 -2.138007 -1.500154 0
M  V30 7 C -0.176761 -0.943669 -1.241690 0
M  V30 8 C 0.585146 0.154715 -0.883425 0
M  V30 9 C 1.966351 0.064225 -0.785990 0
M  V30 10 C 2.644662 1.301473 -0.398249 0
M  V30 11 C 3.770464 1.952235 -0.863503 0
M  V30 12 O 3.953664 3.055969 -0.150459 0
M  V30 13 C 3.019533 3.183105 0.762908 0
M  V30 14 C 2.760322 4.131024 1.737767 0
M  V30 15 C 1.679479 4.018654 2.589482 0
M  V30 16 C 0.864701 2.915311 2.426338 0
M  V30 17 C -0.294212 2.742369 3.298115 0
M  V30 18 C -0.730150 3.574155 4.334960 0
M  V30 19 N -1.850578 3.005101 4.860141 0
M  V30 20 N -2.114585 1.886052 4.205319 0
M  V30 21 C -1.189067 1.693072 3.247393 0
M  V30 22 N 1.152745 2.013440 1.462786 0
M  V30 23 C 2.177812 2.093518 0.634082 0
M  V30 24 C 2.601478 -1.134738 -1.048105 0
M  V30 25 C 1.859855 -2.241751 -1.406876 0
M  V30 26 C -0.166589 -5.161331 -0.263621 0
M  V30 27 C -0.664939 -5.859977 0.815704 0
M  V30 28 H -2.233819 -6.035825 2.284827 0
M  V30 29 H -3.484870 -4.106789 1.484055 0
M  V30 30 H -2.668710 -2.828306 -0.411576 0
M  V30 31 H -1.295394 -2.910603 -2.454429 0
M  V30 32 H 0.144980 -3.909620 -2.617915 0
M  V30 33 H -1.250195 -0.832835 -1.306670 0
M  V30 34 H 0.056548 1.094796 -0.680597 0
M  V30 35 H 4.345452 1.549951 -1.681844 0
M  V30 36 H 3.404277 4.997072 1.861987 0
M  V30 37 H 1.493514 4.771595 3.346474 0
M  V30 38 H -0.171935 4.472232 4.559097 0
M  V30 39 H -2.967366 1.330635 4.508375 0
M  V30 40 H -1.213012 0.834156 2.589296 0
M  V30 41 H 3.672887 -1.161279 -0.960947 0
M  V30 42 H 2.328374 -3.189970 -1.617143 0
M  V30 43 H 0.760539 -5.453738 -0.754044 0
M  V30 44 H -0.116979 -6.726527 1.187062 0
M  V30 END ATOM
M  V30 BEGIN BOND
M  V30 1 2 1 2
M  V30 2 1 2 3
M  V30 3 2 3 4
M  V30 4 1 4 5
M  V30 5 1 5 6
M  V30 6 2 6 7
M  V30 7 1 7 8
M  V30 8 2 8 9
M  V30 9 1 9 10
M  V30 10 2 10 11
M  V30 11 1 11 12
M  V30 12 1 12 13
M  V30 13 2 13 14
M  V30 14 1 14 15
M  V30 15 2 15 16
M  V30 16 1 16 17
M  V30 17 1 17 18
M  V30 18 2 18 19
M  V30 19 1 19 20
M  V30 20 1 20 21
M  V30 21 1 16 22
M  V30 22 2 22 23
M  V30 23 1 9 24
M  V30 24 2 24 25
M  V30 25 1 4 26
M  V30 26 2 26 27
M  V30 27 1 27 1
M  V30 28 1 25 6
M  V30 29 1 23 10
M  V30 30 1 23 13
M  V30 31 2 21 17
M  V30 32 1 1 28
M  V30 33 1 2 29
M  V30 34 1 3 30
M  V30 35 1 5 31
M  V30 36 1 5 32
M  V30 37 1 7 33
M  V30 38 1 8 34
M  V30 39 1 11 35
M  V30 40 1 14 36
M  V30 41 1 15 37
M  V30 42 1 18 38
M  V30 43 1 20 39
M  V30 44 1 21 40
M  V30 45 1 24 41
M  V30 46 1 25 42
M  V30 47 1 26 43
M  V30 48 1 27 44
M  V30 END BOND
M  V30 END CTAB
M  END
>  <Dataset>  (716) 
ChEMBL_Kinases

>  <Ligand_Instance>  (716) 
nan

>  <PDB_ID>  (716) 
nan

>  <Standardized_SMILES>  (716) 
c1ccc(Cc2ccc(-c3coc4ccc(-c5cn[nH]c5)nc34)cc2)cc1

>  <Name>  (716) 
nan

>  <Pocket>  (716) 
nan

>  <ATP_Site>  (716) 
nan

>  <Peripheral>  (716) 
nan

>  <Num_H_Atoms_ProtBoundConf>  (716) 
nan

>  <Num_Resolved_Atoms>  (716) 
nan

>  <Num_Not_Resolved_Atoms>  (716) 
nan

$$$$
CHEMBL279115
     RDKit          3D

  0  0  0  0  0  0  0  0  0  0999 V3000
M  V30 BEGIN CTAB
M  V30 COUNTS 100 103 0 0 0
M  V30 BEGIN ATOM
M  V30 1 C -1.179910 3.893759 6.864791 0
M  V30 2 C -1.577877 4.503949 5.477957 0
M  V30 3 C -2.609081 3.669904 4.851037 0
M  V30 4 C -3.245173 4.076853 3.596122 0
M  V30 5 C -2.448612 4.324478 2.365185 0
M  V30 6 C -1.564807 5.507512 2.383715 0
M  V30 7 C -0.703828 5.826935 1.227086 0
M  V30 8 C -1.293620 6.218106 -0.043210 0
M  V30 9 C -2.166752 5.240682 -0.729967 0
M  V30 10 C -1.464943 3.927415 -0.971930 0
M  V30 11 C -0.258683 4.182969 -1.846321 0
M  V30 12 C 0.493613 2.900822 -2.140569 0
M  V30 13 C -0.317832 1.865615 -2.854237 0
M  V30 14 C 0.587992 0.683020 -3.040220 0
M  V30 15 O 1.437299 0.589272 -3.960625 0
M  V30 16 O 0.367274 -0.262389 -2.087912 0
M  V30 17 C 1.006900 -1.498032 -1.922994 0 CFG=2
M  V30 18 C 0.081270 -2.667504 -2.171889 0 CFG=1
M  V30 19 C -0.236104 -2.647031 -3.650242 0
M  V30 20 C 0.778748 -3.892210 -1.724175 0 CFG=1
M  V30 21 O 2.082643 -3.878801 -2.224639 0
M  V30 22 C 0.750429 -3.816602 -0.218656 0 CFG=1
M  V30 23 C 1.139881 -5.138610 0.330289 0
M  V30 24 C 0.354483 -6.220755 0.268386 0
M  V30 25 C 0.920710 -7.454494 0.874618 0
M  V30 26 O 0.115993 -7.930529 1.917377 0
M  V30 27 C -1.025006 -6.419856 -0.313407 0
M  V30 28 C -1.131566 -5.553954 -1.570424 0 CFG=2
M  V30 29 O -2.033219 -4.525511 -1.442447 0
M  V30 30 C -1.677085 -6.441834 -2.662049 0
M  V30 31 O -2.609846 -7.282825 -2.717861 0
M  V30 32 C -0.895681 -6.207018 -3.871588 0
M  V30 33 C -1.047334 -6.582285 -5.312733 0
M  V30 34 C 0.197252 -5.488127 -3.563493 0
M  V30 35 C 0.197122 -5.208000 -2.126263 0 CFG=1
M  V30 36 C 1.622858 -2.682009 0.217099 0 CFG=2
M  V30 37 C 1.032354 -1.407532 0.700585 0
M  V30 38 C -0.426236 -1.125562 0.728978 0
M  V30 39 C 1.788321 -0.738703 1.862177 0
M  V30 40 C 1.765472 -1.533553 -0.632070 0 CFG=2
M  V30 41 O 2.885202 -0.672947 -0.665668 0
M  V30 42 C 3.949003 -0.709702 -1.512285 0
M  V30 43 C 4.901759 0.388113 -1.192244 0
M  V30 44 O 4.044377 -1.560566 -2.396265 0
M  V30 45 H -2.029703 4.162546 7.525282 0
M  V30 46 H -0.244461 4.376063 7.164807 0
M  V30 47 H -1.114396 2.800072 6.730899 0
M  V30 48 H -0.589293 4.328861 4.933372 0
M  V30 49 H -1.730840 5.565411 5.564475 0
M  V30 50 H -3.466915 3.561754 5.614883 0
M  V30 51 H -2.200332 2.597086 4.753123 0
M  V30 52 H -4.127704 3.402248 3.339949 0
M  V30 53 H -3.802211 5.072486 3.780610 0
M  V30 54 H -3.173706 4.268242 1.523189 0
M  V30 55 H -1.777149 3.402112 2.242347 0
M  V30 56 H -2.315243 6.406716 2.528563 0
M  V30 57 H -0.946481 5.577705 3.310702 0
M  V30 58 H 0.114643 6.577450 1.550280 0
M  V30 59 H -0.025335 4.893134 1.102148 0
M  V30 60 H -0.492453 6.507860 -0.818271 0
M  V30 61 H -1.872338 7.204132 0.048096 0
M  V30 62 H -3.161202 5.203351 -0.327403 0
M  V30 63 H -2.371237 5.692891 -1.806755 0
M  V30 64 H -1.123378 3.445145 -0.036748 0
M  V30 65 H -2.153006 3.175614 -1.436916 0
M  V30 66 H -0.499971 4.701309 -2.793079 0
M  V30 67 H 0.464839 4.824688 -1.297921 0
M  V30 68 H 0.873317 2.539030 -1.165364 0
M  V30 69 H 1.380140 3.197657 -2.738658 0
M  V30 70 H -0.527133 2.261678 -3.889106 0
M  V30 71 H -1.280430 1.628161 -2.419903 0
M  V30 72 H 1.758498 -1.571962 -2.741182 0
M  V30 73 H -0.877650 -2.514085 -1.653217 0
M  V30 74 H -0.622943 -1.614525 -3.859047 0
M  V30 75 H 0.678734 -2.737592 -4.232179 0
M  V30 76 H -1.066332 -3.314689 -3.940884 0
M  V30 77 H 2.666536 -4.345260 -1.593629 0
M  V30 78 H -0.324045 -3.655694 0.043353 0
M  V30 79 H 2.101650 -5.245395 0.805463 0
M  V30 80 H 0.997711 -8.242387 0.071684 0
M  V30 81 H 1.955699 -7.255105 1.196364 0
M  V30 82 H -0.198576 -7.136134 2.430160 0
M  V30 83 H -1.744711 -6.024055 0.424809 0
M  V30 84 H -1.153683 -7.485607 -0.561372 0
M  V30 85 H -2.845504 -4.612388 -1.998828 0
M  V30 86 H -2.063577 -7.009283 -5.494156 0
M  V30 87 H -0.928601 -5.705613 -5.983334 0
M  V30 88 H -0.274717 -7.330632 -5.606139 0
M  V30 89 H 1.022299 -5.107855 -4.159275 0
M  V30 90 H 0.915796 -5.969256 -1.686697 0
M  V30 91 H 2.519165 -3.049567 0.756959 0
M  V30 92 H -1.080385 -2.001704 0.928649 0
M  V30 93 H -0.711811 -0.412947 1.563733 0
M  V30 94 H -0.851529 -0.642305 -0.164430 0
M  V30 95 H 1.562938 0.362694 1.784006 0
M  V30 96 H 2.874189 -0.849914 1.768606 0
M  V30 97 H 1.376638 -1.080013 2.822246 0
M  V30 98 H 5.755180 0.267034 -1.888323 0
M  V30 99 H 5.308652 0.295471 -0.166857 0
M  V30 100 H 4.493656 1.390077 -1.317853 0
M  V30 END ATOM
M  V30 BEGIN BOND
M  V30 1 1 1 2
M  V30 2 1 2 3
M  V30 3 1 3 4
M  V30 4 1 4 5
M  V30 5 1 5 6
M  V30 6 1 6 7
M  V30 7 1 7 8
M  V30 8 1 8 9
M  V30 9 1 9 10
M  V30 10 1 10 11
M  V30 11 1 11 12
M  V30 12 1 12 13
M  V30 13 1 13 14
M  V30 14 2 14 15
M  V30 15 1 14 16
M  V30 16 1 16 17
M  V30 17 1 17 18
M  V30 18 1 18 19
M  V30 19 1 18 20
M  V30 20 1 20 21 CFG=3
M  V30 21 1 20 22
M  V30 22 1 22 23
M  V30 23 2 23 24
M  V30 24 1 24 25
M  V30 25 1 25 26
M  V30 26 1 24 27
M  V30 27 1 27 28
M  V30 28 1 28 29 CFG=1
M  V30 29 1 28 30
M  V30 30 2 30 31
M  V30 31 1 30 32
M  V30 32 1 32 33
M  V30 33 2 32 34
M  V30 34 1 34 35
M  V30 35 1 22 36
M  V30 36 1 36 37
M  V30 37 1 37 38
M  V30 38 1 37 39
M  V30 39 1 37 40
M  V30 40 1 40 41 CFG=3
M  V30 41 1 41 42
M  V30 42 1 42 43
M  V30 43 2 42 44
M  V30 44 1 40 17
M  V30 45 1 35 20
M  V30 46 1 40 36
M  V30 47 1 35 28
M  V30 48 1 1 45
M  V30 49 1 1 46
M  V30 50 1 1 47
M  V30 51 1 2 48
M  V30 52 1 2 49
M  V30 53 1 3 50
M  V30 54 1 3 51
M  V30 55 1 4 52
M  V30 56 1 4 53
M  V30 57 1 5 54
M  V30 58 1 5 55
M  V30 59 1 6 56
M  V30 60 1 6 57
M  V30 61 1 7 58
M  V30 62 1 7 59
M  V30 63 1 8 60
M  V30 64 1 8 61
M  V30 65 1 9 62
M  V30 66 1 9 63
M  V30 67 1 10 64
M  V30 68 1 10 65
M  V30 69 1 11 66
M  V30 70 1 11 67
M  V30 71 1 12 68
M  V30 72 1 12 69
M  V30 73 1 13 70
M  V30 74 1 13 71
M  V30 75 1 17 72 CFG=3
M  V30 76 1 18 73 CFG=1
M  V30 77 1 19 74
M  V30 78 1 19 75
M  V30 79 1 19 76
M  V30 80 1 21 77
M  V30 81 1 22 78 CFG=3
M  V30 82 1 23 79
M  V30 83 1 25 80
M  V30 84 1 25 81
M  V30 85 1 26 82
M  V30 86 1 27 83
M  V30 87 1 27 84
M  V30 88 1 29 85
M  V30 89 1 33 86
M  V30 90 1 33 87
M  V30 91 1 33 88
M  V30 92 1 34 89
M  V30 93 1 35 90 CFG=1
M  V30 94 1 36 91 CFG=1
M  V30 95 1 38 92
M  V30 96 1 38 93
M  V30 97 1 38 94
M  V30 98 1 39 95
M  V30 99 1 39 96
M  V30 100 1 39 97
M  V30 101 1 43 98
M  V30 102 1 43 99
M  V30 103 1 43 100
M  V30 END BOND
M  V30 END CTAB
M  END
>  <Dataset>  (717) 
ChEMBL_Kinases

>  <Ligand_Instance>  (717) 
nan

>  <PDB_ID>  (717) 
nan

>  <Standardized_SMILES>  (717) 
CCCCCCCCCCCCCC(=O)O[C@@H]1[C@@H](C)[C@@]2(O)[C@@H](C=C(CO)C[C@]3(O)C(=O)C(C)=C[C@@H]23)[C@@H]2C(C)(C)[C@]12OC(C)=O

>  <Name>  (717) 
PHORBOL MYRISTATE ACETATE

>  <Pocket>  (717) 
nan

>  <ATP_Site>  (717) 
nan

>  <Peripheral>  (717) 
nan

>  <Num_H_Atoms_ProtBoundConf>  (717) 
nan

>  <Num_Resolved_Atoms>  (717) 
nan

>  <Num_Not_Resolved_Atoms>  (717) 
nan

$$$$
CHEMBL3102950
     RDKit          3D

  0  0  0  0  0  0  0  0  0  0999 V3000
M  V30 BEGIN CTAB
M  V30 COUNTS 37 40 0 0 0
M  V30 BEGIN ATOM
M  V30 1 O 0.141172 -5.050884 5.003843 0
M  V30 2 C 0.627370 -4.269154 3.953204 0
M  V30 3 C -0.292184 -3.750076 3.093274 0
M  V30 4 C 0.191083 -2.977928 2.055668 0
M  V30 5 C 1.526209 -2.701057 1.835194 0
M  V30 6 C 1.927009 -1.862146 0.692708 0
M  V30 7 C 3.126186 -2.010360 0.019124 0
M  V30 8 N 3.428260 -1.195839 -1.029200 0
M  V30 9 C 2.579981 -0.222290 -1.448684 0
M  V30 10 N 2.633596 0.700698 -2.438686 0
M  V30 11 C 1.497841 1.442388 -2.421264 0
M  V30 12 C 0.661849 1.014299 -1.402791 0
M  V30 13 C -0.648454 1.541957 -1.039356 0
M  V30 14 C -0.866892 1.757952 0.323121 0
M  V30 15 C -2.107304 2.262057 0.725638 0
M  V30 16 C -3.093260 2.541167 -0.189031 0
M  V30 17 O -4.313584 3.040083 0.238199 0
M  V30 18 C -2.863961 2.322289 -1.540001 0
M  V30 19 C -1.646561 1.826276 -1.947592 0
M  V30 20 C 1.374788 -0.032144 -0.814089 0
M  V30 21 C 1.062031 -0.863375 0.258673 0
M  V30 22 C 2.441340 -3.251886 2.739878 0
M  V30 23 C 1.978363 -4.026619 3.783872 0
M  V30 24 H -0.104319 -4.528855 5.859289 0
M  V30 25 H -1.363162 -3.927520 3.206329 0
M  V30 26 H -0.577747 -2.573540 1.378489 0
M  V30 27 H 3.781550 -2.785219 0.366589 0
M  V30 28 H 3.426497 0.836996 -3.126197 0
M  V30 29 H 1.228650 2.261768 -3.081538 0
M  V30 30 H -0.190998 1.585553 1.127581 0
M  V30 31 H -2.335490 2.450242 1.770547 0
M  V30 32 H -4.893528 2.547798 0.915085 0
M  V30 33 H -3.655038 2.547167 -2.266068 0
M  V30 34 H -1.433898 1.642950 -2.999377 0
M  V30 35 H 0.144670 -0.758826 0.781893 0
M  V30 36 H 3.502042 -3.036854 2.571767 0
M  V30 37 H 2.703543 -4.453494 4.486883 0
M  V30 END ATOM
M  V30 BEGIN BOND
M  V30 1 1 1 2
M  V30 2 2 2 3
M  V30 3 1 3 4
M  V30 4 2 4 5
M  V30 5 1 5 6
M  V30 6 2 6 7
M  V30 7 1 7 8
M  V30 8 2 8 9
M  V30 9 1 9 10
M  V30 10 1 10 11
M  V30 11 2 11 12
M  V30 12 1 12 13
M  V30 13 2 13 14
M  V30 14 1 14 15
M  V30 15 2 15 16
M  V30 16 1 16 17
M  V30 17 1 16 18
M  V30 18 2 18 19
M  V30 19 1 12 20
M  V30 20 2 20 21
M  V30 21 1 5 22
M  V30 22 2 22 23
M  V30 23 1 23 2
M  V30 24 1 21 6
M  V30 25 1 20 9
M  V30 26 1 19 13
M  V30 27 1 1 24
M  V30 28 1 3 25
M  V30 29 1 4 26
M  V30 30 1 7 27
M  V30 31 1 10 28
M  V30 32 1 11 29
M  V30 33 1 14 30
M  V30 34 1 15 31
M  V30 35 1 17 32
M  V30 36 1 18 33
M  V30 37 1 19 34
M  V30 38 1 21 35
M  V30 39 1 22 36
M  V30 40 1 23 37
M  V30 END BOND
M  V30 END CTAB
M  END
>  <Dataset>  (718) 
ChEMBL_Kinases

>  <Ligand_Instance>  (718) 
nan

>  <PDB_ID>  (718) 
nan

>  <Standardized_SMILES>  (718) 
Oc1ccc(-c2cnc3[nH]cc(-c4ccc(O)cc4)c3c2)cc1

>  <Name>  (718) 
nan

>  <Pocket>  (718) 
nan

>  <ATP_Site>  (718) 
nan

>  <Peripheral>  (718) 
nan

>  <Num_H_Atoms_ProtBoundConf>  (718) 
nan

>  <Num_Resolved_Atoms>  (718) 
nan

>  <Num_Not_Resolved_Atoms>  (718) 
nan

$$$$
CHEMBL4283353
     RDKit          3D

  0  0  0  0  0  0  0  0  0  0999 V3000
M  V30 BEGIN CTAB
M  V30 COUNTS 81 85 0 0 0
M  V30 BEGIN ATOM
M  V30 1 C 5.027314 -0.846669 3.507202 0
M  V30 2 C 5.537312 0.054298 2.388449 0
M  V30 3 C 4.489915 1.131747 2.072231 0
M  V30 4 C 5.064492 1.969213 0.960516 0 CFG=2
M  V30 5 C 6.367621 2.559394 1.507070 0
M  V30 6 N 4.200257 3.020230 0.500377 0
M  V30 7 C 3.045441 2.266899 0.127527 0
M  V30 8 N 2.072208 2.238719 1.072717 0
M  V30 9 C 0.914705 1.572538 0.918768 0
M  V30 10 C 0.770793 0.913495 -0.263231 0
M  V30 11 C -0.238272 0.124471 -0.802942 0
M  V30 12 C -1.524208 -0.224810 -0.186287 0
M  V30 13 C -1.666401 -0.604982 1.130096 0
M  V30 14 C -2.859131 -0.940107 1.730068 0
M  V30 15 C -4.024459 -0.895185 0.953631 0
M  V30 16 C -5.308729 -1.238370 1.593169 0
M  V30 17 N -5.707875 -2.565269 1.604961 0
M  V30 18 C -6.921027 -2.967407 2.187673 0
M  V30 19 C -6.714471 -4.193087 3.050011 0
M  V30 20 C -5.627557 -4.023336 4.051578 0
M  V30 21 N -4.362280 -3.651473 3.513180 0
M  V30 22 C -3.302766 -3.555865 4.443662 0
M  V30 23 C -4.063842 -4.158130 2.223256 0
M  V30 24 C -4.940873 -3.613880 1.106358 0
M  V30 25 C -3.882170 -0.514427 -0.366340 0
M  V30 26 C -2.674623 -0.180879 -0.952316 0
M  V30 27 C 0.114291 -0.325459 -2.066836 0
M  V30 28 N 1.350071 0.186052 -2.316316 0
M  V30 29 C 1.997399 -0.107943 -3.568927 0 CFG=1
M  V30 30 C 1.109737 0.483951 -4.648634 0
M  V30 31 C 1.774080 0.540084 -5.995363 0
M  V30 32 C 2.907196 1.510001 -5.947405 0 CFG=2
M  V30 33 O 3.893512 1.035759 -6.812466 0
M  V30 34 C 3.406975 1.706597 -4.555529 0
M  V30 35 C 3.365834 0.429877 -3.737042 0
M  V30 36 C 1.726734 0.909946 -1.254807 0
M  V30 37 N 2.857982 1.600333 -1.026442 0
M  V30 38 H 5.019616 -0.324475 4.473118 0
M  V30 39 H 5.718583 -1.725349 3.529253 0
M  V30 40 H 4.023382 -1.266619 3.216013 0
M  V30 41 H 6.437502 0.567938 2.786839 0
M  V30 42 H 5.701556 -0.516348 1.475715 0
M  V30 43 H 3.586077 0.564606 1.767798 0
M  V30 44 H 4.343919 1.695879 3.014387 0
M  V30 45 H 5.361468 1.278226 0.140465 0
M  V30 46 H 6.411058 3.605749 1.142025 0
M  V30 47 H 6.298811 2.619877 2.610773 0
M  V30 48 H 7.250048 1.988366 1.145833 0
M  V30 49 H 4.539674 4.006585 0.524602 0
M  V30 50 H 0.135512 1.545735 1.659804 0
M  V30 51 H -0.774316 -0.656280 1.770400 0
M  V30 52 H -2.952503 -1.233053 2.752352 0
M  V30 53 H -5.284637 -0.852121 2.662010 0
M  V30 54 H -6.074818 -0.577820 1.106760 0
M  V30 55 H -7.595777 -3.316227 1.351800 0
M  V30 56 H -7.485950 -2.176441 2.713013 0
M  V30 57 H -7.669354 -4.318686 3.641539 0
M  V30 58 H -6.624331 -5.116348 2.455742 0
M  V30 59 H -5.512432 -4.982234 4.603462 0
M  V30 60 H -5.911051 -3.264610 4.817326 0
M  V30 61 H -3.271752 -4.476080 5.081314 0
M  V30 62 H -2.326728 -3.537854 3.888810 0
M  V30 63 H -3.358153 -2.711135 5.152722 0
M  V30 64 H -3.983431 -5.270921 2.204268 0
M  V30 65 H -3.015611 -3.820020 1.976785 0
M  V30 66 H -4.343915 -3.397757 0.195818 0
M  V30 67 H -5.570567 -4.503922 0.795563 0
M  V30 68 H -4.812041 -0.490835 -0.938171 0
M  V30 69 H -2.660751 0.111460 -2.013879 0
M  V30 70 H -0.500619 -0.960995 -2.704917 0
M  V30 71 H 2.007671 -1.211425 -3.731811 0
M  V30 72 H 0.859136 1.542997 -4.377479 0
M  V30 73 H 0.143453 -0.064705 -4.666808 0
M  V30 74 H 2.130425 -0.460071 -6.314232 0
M  V30 75 H 0.994876 0.842388 -6.729899 0
M  V30 76 H 2.583582 2.506516 -6.317708 0
M  V30 77 H 3.824615 1.457165 -7.717488 0
M  V30 78 H 4.484018 1.996554 -4.633505 0
M  V30 79 H 2.936232 2.565506 -4.014195 0
M  V30 80 H 3.968609 0.573366 -2.845098 0
M  V30 81 H 3.954207 -0.309842 -4.361565 0
M  V30 END ATOM
M  V30 BEGIN BOND
M  V30 1 1 1 2
M  V30 2 1 2 3
M  V30 3 1 3 4
M  V30 4 1 4 5
M  V30 5 1 4 6
M  V30 6 1 6 7
M  V30 7 2 7 8
M  V30 8 1 8 9
M  V30 9 2 9 10
M  V30 10 1 10 11
M  V30 11 1 11 12
M  V30 12 2 12 13
M  V30 13 1 13 14
M  V30 14 2 14 15
M  V30 15 1 15 16
M  V30 16 1 16 17
M  V30 17 1 17 18
M  V30 18 1 18 19
M  V30 19 1 19 20
M  V30 20 1 20 21
M  V30 21 1 21 22
M  V30 22 1 21 23
M  V30 23 1 23 24
M  V30 24 1 15 25
M  V30 25 2 25 26
M  V30 26 2 11 27
M  V30 27 1 27 28
M  V30 28 1 28 29
M  V30 29 1 29 30
M  V30 30 1 30 31
M  V30 31 1 31 32
M  V30 32 1 32 33
M  V30 33 1 32 34
M  V30 34 1 34 35
M  V30 35 1 28 36
M  V30 36 2 36 37
M  V30 37 1 37 7
M  V30 38 1 36 10
M  V30 39 1 26 12
M  V30 40 1 35 29
M  V30 41 1 24 17
M  V30 42 1 1 38
M  V30 43 1 1 39
M  V30 44 1 1 40
M  V30 45 1 2 41
M  V30 46 1 2 42
M  V30 47 1 3 43
M  V30 48 1 3 44
M  V30 49 1 4 45 CFG=3
M  V30 50 1 5 46
M  V30 51 1 5 47
M  V30 52 1 5 48
M  V30 53 1 6 49
M  V30 54 1 9 50
M  V30 55 1 13 51
M  V30 56 1 14 52
M  V30 57 1 16 53
M  V30 58 1 16 54
M  V30 59 1 18 55
M  V30 60 1 18 56
M  V30 61 1 19 57
M  V30 62 1 19 58
M  V30 63 1 20 59
M  V30 64 1 20 60
M  V30 65 1 22 61
M  V30 66 1 22 62
M  V30 67 1 22 63
M  V30 68 1 23 64
M  V30 69 1 23 65
M  V30 70 1 24 66
M  V30 71 1 24 67
M  V30 72 1 25 68
M  V30 73 1 26 69
M  V30 74 1 27 70
M  V30 75 1 29 71 CFG=3
M  V30 76 1 30 72
M  V30 77 1 30 73
M  V30 78 1 31 74
M  V30 79 1 31 75
M  V30 80 1 32 76 CFG=3
M  V30 81 1 33 77
M  V30 82 1 34 78
M  V30 83 1 34 79
M  V30 84 1 35 80
M  V30 85 1 35 81
M  V30 END BOND
M  V30 END CTAB
M  END
>  <Dataset>  (719) 
ChEMBL_Kinases

>  <Ligand_Instance>  (719) 
nan

>  <PDB_ID>  (719) 
nan

>  <Standardized_SMILES>  (719) 
CCC[C@H](C)Nc1ncc2c(-c3ccc(CN4CCCN(C)CC4)cc3)cn([C@H]3CC[C@H](O)CC3)c2n1

>  <Name>  (719) 
nan

>  <Pocket>  (719) 
nan

>  <ATP_Site>  (719) 
nan

>  <Peripheral>  (719) 
nan

>  <Num_H_Atoms_ProtBoundConf>  (719) 
nan

>  <Num_Resolved_Atoms>  (719) 
nan

>  <Num_Not_Resolved_Atoms>  (719) 
nan

$$$$
CHEMBL4447403
     RDKit          3D

  0  0  0  0  0  0  0  0  0  0999 V3000
M  V30 BEGIN CTAB
M  V30 COUNTS 53 56 0 0 0
M  V30 BEGIN ATOM
M  V30 1 O 2.314723 -5.983958 0.834900 0
M  V30 2 C 2.573710 -6.274099 -0.374942 0
M  V30 3 N 3.484829 -5.389228 -1.011785 0
M  V30 4 C 3.909663 -4.356464 -0.130781 0
M  V30 5 N 4.915303 -4.212268 0.737134 0
M  V30 6 N 4.865907 -3.028741 1.325252 0
M  V30 7 C 3.799838 -2.370380 0.835061 0
M  V30 8 C 3.375120 -1.103623 1.171972 0
M  V30 9 C 2.235850 -0.580436 0.552501 0
M  V30 10 C 1.666078 0.740005 0.803673 0
M  V30 11 C 2.573699 1.724960 1.134141 0
M  V30 12 C 2.029778 2.985041 1.373344 0
M  V30 13 C 0.667034 3.209736 1.279763 0
M  V30 14 C -0.188814 2.180375 0.944436 0
M  V30 15 C -1.647047 2.458696 0.853266 0
M  V30 16 N -2.305370 2.252768 2.115513 0
M  V30 17 S -4.014811 2.570800 2.041482 0
M  V30 18 O -4.625666 1.631410 1.010719 0
M  V30 19 O -4.588861 2.241537 3.383723 0
M  V30 20 C -4.335389 4.239733 1.608764 0
M  V30 21 C -5.771085 4.646192 1.544053 0
M  V30 22 C -6.631471 3.917208 0.566391 0
M  V30 23 F -6.174368 4.038226 -0.721244 0
M  V30 24 F -6.904312 2.632483 0.940306 0
M  V30 25 F -7.891520 4.581562 0.535410 0
M  V30 26 C 0.296577 0.911413 0.696811 0
M  V30 27 C 1.617876 -1.400354 -0.368301 0
M  V30 28 C 2.034881 -2.669122 -0.712373 0
M  V30 29 C 3.167236 -3.175228 -0.089306 0
M  V30 30 C 2.005598 -7.438753 -1.141915 0
M  V30 31 C 0.472196 -7.661992 -0.949689 0
M  V30 32 C 1.490731 -8.607297 -0.401323 0
M  V30 33 H 3.781308 -5.513367 -2.001307 0
M  V30 34 H 5.590807 -2.772363 2.031409 0
M  V30 35 H 3.853986 -0.463491 1.888113 0
M  V30 36 H 3.632610 1.527118 1.201496 0
M  V30 37 H 2.679896 3.798512 1.635520 0
M  V30 38 H 0.301697 4.201941 1.474919 0
M  V30 39 H -2.026976 1.804188 0.051642 0
M  V30 40 H -1.790500 3.520956 0.566453 0
M  V30 41 H -2.228767 1.259885 2.436010 0
M  V30 42 H -3.857135 4.947955 2.349400 0
M  V30 43 H -3.885217 4.492842 0.599142 0
M  V30 44 H -6.238218 4.625432 2.577105 0
M  V30 45 H -5.776843 5.744028 1.265107 0
M  V30 46 H -0.345462 0.083076 0.431991 0
M  V30 47 H 0.716057 -1.049512 -0.892513 0
M  V30 48 H 1.539740 -3.292812 -1.432664 0
M  V30 49 H 2.323807 -7.557983 -2.178141 0
M  V30 50 H -0.025718 -6.901411 -0.325002 0
M  V30 51 H -0.112962 -7.926291 -1.842179 0
M  V30 52 H 1.495994 -9.600185 -0.867185 0
M  V30 53 H 1.540050 -8.652699 0.711333 0
M  V30 END ATOM
M  V30 BEGIN BOND
M  V30 1 2 1 2
M  V30 2 1 2 3
M  V30 3 1 3 4
M  V30 4 2 4 5
M  V30 5 1 5 6
M  V30 6 1 6 7
M  V30 7 2 7 8
M  V30 8 1 8 9
M  V30 9 1 9 10
M  V30 10 2 10 11
M  V30 11 1 11 12
M  V30 12 2 12 13
M  V30 13 1 13 14
M  V30 14 1 14 15
M  V30 15 1 15 16
M  V30 16 1 16 17
M  V30 17 2 17 18
M  V30 18 2 17 19
M  V30 19 1 17 20
M  V30 20 1 20 21
M  V30 21 1 21 22
M  V30 22 1 22 23
M  V30 23 1 22 24
M  V30 24 1 22 25
M  V30 25 2 14 26
M  V30 26 2 9 27
M  V30 27 1 27 28
M  V30 28 2 28 29
M  V30 29 1 2 30
M  V30 30 1 30 31
M  V30 31 1 31 32
M  V30 32 1 29 4
M  V30 33 1 32 30
M  V30 34 1 29 7
M  V30 35 1 26 10
M  V30 36 1 3 33
M  V30 37 1 6 34
M  V30 38 1 8 35
M  V30 39 1 11 36
M  V30 40 1 12 37
M  V30 41 1 13 38
M  V30 42 1 15 39
M  V30 43 1 15 40
M  V30 44 1 16 41
M  V30 45 1 20 42
M  V30 46 1 20 43
M  V30 47 1 21 44
M  V30 48 1 21 45
M  V30 49 1 26 46
M  V30 50 1 27 47
M  V30 51 1 28 48
M  V30 52 1 30 49
M  V30 53 1 31 50
M  V30 54 1 31 51
M  V30 55 1 32 52
M  V30 56 1 32 53
M  V30 END BOND
M  V30 END CTAB
M  END
>  <Dataset>  (720) 
ChEMBL_Kinases

>  <Ligand_Instance>  (720) 
nan

>  <PDB_ID>  (720) 
nan

>  <Standardized_SMILES>  (720) 
O=C(Nc1n[nH]c2cc(-c3cccc(CNS(=O)(=O)CCC(F)(F)F)c3)ccc12)C1CC1

>  <Name>  (720) 
nan

>  <Pocket>  (720) 
nan

>  <ATP_Site>  (720) 
nan

>  <Peripheral>  (720) 
nan

>  <Num_H_Atoms_ProtBoundConf>  (720) 
nan

>  <Num_Resolved_Atoms>  (720) 
nan

>  <Num_Not_Resolved_Atoms>  (720) 
nan

$$$$
CHEMBL521201
     RDKit          3D

  0  0  0  0  0  0  0  0  0  0999 V3000
M  V30 BEGIN CTAB
M  V30 COUNTS 47 50 0 0 0
M  V30 BEGIN ATOM
M  V30 1 C -0.723538 -3.062702 5.022015 0
M  V30 2 O -0.507493 -3.670009 3.776189 0
M  V30 3 C -0.545232 -3.035454 2.560725 0
M  V30 4 C -0.808859 -1.688583 2.427633 0
M  V30 5 C -0.855328 -1.006438 1.204228 0
M  V30 6 C -1.155297 0.417149 1.182958 0
M  V30 7 C -0.555670 1.416686 0.562267 0
M  V30 8 C 0.578822 1.607287 -0.318189 0
M  V30 9 C 1.030637 1.011639 -1.473844 0
M  V30 10 N 2.187392 1.517529 -1.923320 0
M  V30 11 C 2.551073 2.484979 -1.066184 0
M  V30 12 C 3.674324 3.282037 -1.119499 0
M  V30 13 C 3.869650 4.222839 -0.131507 0
M  V30 14 C 2.940333 4.336133 0.873323 0
M  V30 15 C 1.839486 3.511715 0.871410 0
M  V30 16 C 1.586511 2.553692 -0.085229 0
M  V30 17 C -1.343014 2.625392 0.903356 0
M  V30 18 O -1.347615 3.863895 0.672597 0
M  V30 19 N -2.414518 2.239988 1.749987 0
M  V30 20 C -2.339540 0.823390 1.983699 0
M  V30 21 C -0.608794 -1.826505 0.129403 0
M  V30 22 C -0.339250 -3.172982 0.184150 0
M  V30 23 O -0.098727 -3.941860 -0.937957 0
M  V30 24 C -0.107460 -3.411905 -2.248183 0
M  V30 25 C -0.309192 -3.777384 1.422910 0
M  V30 26 O -0.041688 -5.134932 1.538041 0
M  V30 27 C -1.129024 -6.046885 1.503314 0
M  V30 28 H -0.121954 -3.653198 5.764531 0
M  V30 29 H -1.786227 -3.118063 5.330370 0
M  V30 30 H -0.361373 -2.026200 5.107089 0
M  V30 31 H -0.988961 -1.145236 3.356071 0
M  V30 32 H 0.523700 0.220384 -1.995532 0
M  V30 33 H 2.706056 1.217075 -2.775945 0
M  V30 34 H 4.414897 3.201294 -1.908325 0
M  V30 35 H 4.756686 4.840434 -0.188763 0
M  V30 36 H 3.113006 5.074835 1.631501 0
M  V30 37 H 1.158114 3.655269 1.694776 0
M  V30 38 H -3.233448 2.646210 2.255064 0
M  V30 39 H -3.218142 0.273439 1.588176 0
M  V30 40 H -2.154487 0.589679 3.049024 0
M  V30 41 H -0.638477 -1.393805 -0.836463 0
M  V30 42 H 0.472694 -4.042466 -2.955014 0
M  V30 43 H 0.410033 -2.434244 -2.231018 0
M  V30 44 H -1.146814 -3.243669 -2.590397 0
M  V30 45 H -0.853276 -7.046653 1.843459 0
M  V30 46 H -1.914413 -5.667242 2.215822 0
M  V30 47 H -1.575518 -6.030826 0.502878 0
M  V30 END ATOM
M  V30 BEGIN BOND
M  V30 1 1 1 2
M  V30 2 1 2 3
M  V30 3 2 3 4
M  V30 4 1 4 5
M  V30 5 1 5 6
M  V30 6 2 6 7
M  V30 7 1 7 8
M  V30 8 2 8 9
M  V30 9 1 9 10
M  V30 10 1 10 11
M  V30 11 2 11 12
M  V30 12 1 12 13
M  V30 13 2 13 14
M  V30 14 1 14 15
M  V30 15 2 15 16
M  V30 16 1 7 17
M  V30 17 2 17 18
M  V30 18 1 17 19
M  V30 19 1 19 20
M  V30 20 2 5 21
M  V30 21 1 21 22
M  V30 22 1 22 23
M  V30 23 1 23 24
M  V30 24 2 22 25
M  V30 25 1 25 26
M  V30 26 1 26 27
M  V30 27 1 25 3
M  V30 28 1 20 6
M  V30 29 1 16 8
M  V30 30 1 16 11
M  V30 31 1 1 28
M  V30 32 1 1 29
M  V30 33 1 1 30
M  V30 34 1 4 31
M  V30 35 1 9 32
M  V30 36 1 10 33
M  V30 37 1 12 34
M  V30 38 1 13 35
M  V30 39 1 14 36
M  V30 40 1 15 37
M  V30 41 1 19 38
M  V30 42 1 20 39
M  V30 43 1 20 40
M  V30 44 1 21 41
M  V30 45 1 24 42
M  V30 46 1 24 43
M  V30 47 1 24 44
M  V30 48 1 27 45
M  V30 49 1 27 46
M  V30 50 1 27 47
M  V30 END BOND
M  V30 END CTAB
M  END
>  <Dataset>  (721) 
ChEMBL_Kinases

>  <Ligand_Instance>  (721) 
nan

>  <PDB_ID>  (721) 
nan

>  <Standardized_SMILES>  (721) 
COc1cc(C2=C(c3c[nH]c4ccccc34)C(=O)NC2)cc(OC)c1OC

>  <Name>  (721) 
nan

>  <Pocket>  (721) 
nan

>  <ATP_Site>  (721) 
nan

>  <Peripheral>  (721) 
nan

>  <Num_H_Atoms_ProtBoundConf>  (721) 
nan

>  <Num_Resolved_Atoms>  (721) 
nan

>  <Num_Not_Resolved_Atoms>  (721) 
nan

$$$$
CHEMBL3393348
     RDKit          3D

  0  0  0  0  0  0  0  0  0  0999 V3000
M  V30 BEGIN CTAB
M  V30 COUNTS 38 41 0 0 0
M  V30 BEGIN ATOM
M  V30 1 N -0.328547 -3.381670 5.873459 0
M  V30 2 C -0.031712 -3.150831 4.773234 0
M  V30 3 C 0.336275 -2.880838 3.417311 0
M  V30 4 C 0.108555 -3.855239 2.474914 0
M  V30 5 C 0.459893 -3.604108 1.165822 0
M  V30 6 C 1.026806 -2.418390 0.775664 0
M  V30 7 C 1.274948 -1.401445 1.703249 0
M  V30 8 C 1.850717 -0.084614 1.537012 0
M  V30 9 C 2.935972 0.316931 2.305858 0
M  V30 10 N 3.276928 1.566945 1.905441 0
M  V30 11 C 2.478714 2.020775 0.912822 0
M  V30 12 N 2.318286 3.094196 0.150910 0
M  V30 13 C 1.350128 3.168245 -0.780601 0
M  V30 14 N 0.484438 2.130862 -0.980754 0
M  V30 15 C 0.610131 1.015345 -0.226283 0
M  V30 16 N -0.403474 0.079706 -0.562059 0
M  V30 17 C -1.467334 -0.238133 0.407941 0
M  V30 18 C -2.758754 0.310657 -0.181212 0
M  V30 19 O -2.627192 0.670851 -1.494449 0
M  V30 20 C -1.966695 -0.233578 -2.306617 0
M  V30 21 C -0.644492 -0.701059 -1.787791 0
M  V30 22 C 1.602410 0.980969 0.702195 0
M  V30 23 C 0.903859 -1.695694 3.022148 0
M  V30 24 H -0.333028 -4.792289 2.749056 0
M  V30 25 H 0.308377 -4.324197 0.380440 0
M  V30 26 H 1.341503 -2.116428 -0.219750 0
M  V30 27 H 3.446998 -0.234758 3.091018 0
M  V30 28 H 4.064094 2.173456 2.282472 0
M  V30 29 H 1.294354 4.092678 -1.361874 0
M  V30 30 H -1.633640 -1.329924 0.496588 0
M  V30 31 H -1.280493 0.167941 1.401476 0
M  V30 32 H -2.966442 1.267443 0.380088 0
M  V30 33 H -3.608631 -0.346316 0.061023 0
M  V30 34 H -1.808912 0.278384 -3.275174 0
M  V30 35 H -2.636163 -1.104801 -2.564246 0
M  V30 36 H 0.128394 -0.512717 -2.536537 0
M  V30 37 H -0.676955 -1.768480 -1.459044 0
M  V30 38 H 1.045402 -0.981009 3.848430 0
M  V30 END ATOM
M  V30 BEGIN BOND
M  V30 1 3 1 2
M  V30 2 1 2 3
M  V30 3 2 3 4
M  V30 4 1 4 5
M  V30 5 2 5 6
M  V30 6 1 6 7
M  V30 7 1 7 8
M  V30 8 2 8 9
M  V30 9 1 9 10
M  V30 10 1 10 11
M  V30 11 2 11 12
M  V30 12 1 12 13
M  V30 13 2 13 14
M  V30 14 1 14 15
M  V30 15 1 15 16
M  V30 16 1 16 17
M  V30 17 1 17 18
M  V30 18 1 18 19
M  V30 19 1 19 20
M  V30 20 1 20 21
M  V30 21 2 15 22
M  V30 22 2 7 23
M  V30 23 1 23 3
M  V30 24 1 22 8
M  V30 25 1 22 11
M  V30 26 1 21 16
M  V30 27 1 4 24
M  V30 28 1 5 25
M  V30 29 1 6 26
M  V30 30 1 9 27
M  V30 31 1 10 28
M  V30 32 1 13 29
M  V30 33 1 17 30
M  V30 34 1 17 31
M  V30 35 1 18 32
M  V30 36 1 18 33
M  V30 37 1 20 34
M  V30 38 1 20 35
M  V30 39 1 21 36
M  V30 40 1 21 37
M  V30 41 1 23 38
M  V30 END BOND
M  V30 END CTAB
M  END
>  <Dataset>  (722) 
ChEMBL_Kinases

>  <Ligand_Instance>  (722) 
nan

>  <PDB_ID>  (722) 
nan

>  <Standardized_SMILES>  (722) 
N#Cc1cccc(-c2c[nH]c3ncnc(N4CCOCC4)c23)c1

>  <Name>  (722) 
nan

>  <Pocket>  (722) 
nan

>  <ATP_Site>  (722) 
nan

>  <Peripheral>  (722) 
nan

>  <Num_H_Atoms_ProtBoundConf>  (722) 
nan

>  <Num_Resolved_Atoms>  (722) 
nan

>  <Num_Not_Resolved_Atoms>  (722) 
nan

$$$$
CHEMBL374453
     RDKit          3D

  0  0  0  0  0  0  0  0  0  0999 V3000
M  V30 BEGIN CTAB
M  V30 COUNTS 44 47 0 0 0
M  V30 BEGIN ATOM
M  V30 1 C 1.253978 -1.839059 -2.295271 0
M  V30 2 C 0.655170 -2.513448 -1.114612 0
M  V30 3 C 0.559138 -1.851565 0.046772 0
M  V30 4 C 1.046140 -0.480103 0.126981 0
M  V30 5 O 1.566754 0.183270 -0.804958 0
M  V30 6 N 0.972448 0.259575 1.316866 0
M  V30 7 C 1.509054 1.589606 1.173763 0
M  V30 8 C 0.727544 2.669826 0.791226 0
M  V30 9 C 1.373454 3.905911 0.690071 0
M  V30 10 C 2.724210 3.986595 0.969433 0
M  V30 11 N 3.496433 5.083131 0.923190 0
M  V30 12 N 4.714872 4.728463 1.258947 0
M  V30 13 C 4.778755 3.407558 1.531867 0
M  V30 14 C 3.494841 2.890962 1.352612 0
M  V30 15 C 2.850810 1.652216 1.454705 0
M  V30 16 C -0.025791 -2.473829 1.232805 0
M  V30 17 C -1.447269 -2.125731 1.480318 0
M  V30 18 C -2.442295 -2.345046 0.564044 0
M  V30 19 C -3.780310 -2.045754 0.735326 0
M  V30 20 C -4.160969 -1.466502 1.951037 0
M  V30 21 Cl -5.825904 -1.043439 2.283690 0
M  V30 22 C -3.210075 -1.218096 2.918374 0
M  V30 23 Cl -3.670579 -0.488483 4.457449 0
M  V30 24 C -1.898758 -1.546074 2.668639 0
M  V30 25 C 0.148945 -3.992047 1.164719 0
M  V30 26 C -0.378072 -4.525161 -0.118358 0
M  V30 27 O -1.219334 -5.427509 -0.369069 0
M  V30 28 N 0.193813 -3.874466 -1.252847 0
M  V30 29 H 0.654198 -0.955789 -2.624646 0
M  V30 30 H 2.332207 -1.574399 -2.133991 0
M  V30 31 H 1.247059 -2.522308 -3.162461 0
M  V30 32 H 0.572075 -0.120804 2.203602 0
M  V30 33 H -0.322289 2.514257 0.592326 0
M  V30 34 H 0.789667 4.767428 0.393637 0
M  V30 35 H 3.311913 6.084472 0.686583 0
M  V30 36 H 5.585165 2.752674 1.836438 0
M  V30 37 H 3.466562 0.841773 1.748130 0
M  V30 38 H 0.589377 -2.165018 2.116249 0
M  V30 39 H -2.227356 -2.782687 -0.383807 0
M  V30 40 H -4.537085 -2.230441 -0.003894 0
M  V30 41 H -1.180422 -1.336810 3.450509 0
M  V30 42 H 1.220727 -4.258932 1.255773 0
M  V30 43 H -0.421805 -4.466877 1.978737 0
M  V30 44 H 0.310891 -4.318160 -2.213314 0
M  V30 END ATOM
M  V30 BEGIN BOND
M  V30 1 1 1 2
M  V30 2 2 2 3
M  V30 3 1 3 4
M  V30 4 2 4 5
M  V30 5 1 4 6
M  V30 6 1 6 7
M  V30 7 2 7 8
M  V30 8 1 8 9
M  V30 9 2 9 10
M  V30 10 1 10 11
M  V30 11 1 11 12
M  V30 12 2 12 13
M  V30 13 1 13 14
M  V30 14 2 14 15
M  V30 15 1 3 16
M  V30 16 1 16 17
M  V30 17 2 17 18
M  V30 18 1 18 19
M  V30 19 2 19 20
M  V30 20 1 20 21
M  V30 21 1 20 22
M  V30 22 1 22 23
M  V30 23 2 22 24
M  V30 24 1 16 25
M  V30 25 1 25 26
M  V30 26 2 26 27
M  V30 27 1 26 28
M  V30 28 1 28 2
M  V30 29 1 15 7
M  V30 30 1 24 17
M  V30 31 1 14 10
M  V30 32 1 1 29
M  V30 33 1 1 30
M  V30 34 1 1 31
M  V30 35 1 6 32
M  V30 36 1 8 33
M  V30 37 1 9 34
M  V30 38 1 11 35
M  V30 39 1 13 36
M  V30 40 1 15 37
M  V30 41 1 16 38
M  V30 42 1 18 39
M  V30 43 1 19 40
M  V30 44 1 24 41
M  V30 45 1 25 42
M  V30 46 1 25 43
M  V30 47 1 28 44
M  V30 END BOND
M  V30 END CTAB
M  END
>  <Dataset>  (723) 
ChEMBL_Kinases

>  <Ligand_Instance>  (723) 
nan

>  <PDB_ID>  (723) 
nan

>  <Standardized_SMILES>  (723) 
CC1=C(C(=O)Nc2ccc3[nH]ncc3c2)C(c2ccc(Cl)c(Cl)c2)CC(=O)N1

>  <Name>  (723) 
GSK-299115A

>  <Pocket>  (723) 
nan

>  <ATP_Site>  (723) 
nan

>  <Peripheral>  (723) 
nan

>  <Num_H_Atoms_ProtBoundConf>  (723) 
nan

>  <Num_Resolved_Atoms>  (723) 
nan

>  <Num_Not_Resolved_Atoms>  (723) 
nan

$$$$
CHEMBL3745885
     RDKit          3D

  0  0  0  0  0  0  0  0  0  0999 V3000
M  V30 BEGIN CTAB
M  V30 COUNTS 48 52 0 0 0
M  V30 BEGIN ATOM
M  V30 1 C 1.711243 0.713531 -1.894435 0
M  V30 2 N 1.805677 0.391087 -0.494908 0
M  V30 3 C 2.760524 0.868310 0.345500 0
M  V30 4 O 3.582796 1.644606 -0.235750 0
M  V30 5 C 2.775067 0.500310 1.695796 0
M  V30 6 S 4.051038 1.187317 2.673950 0
M  V30 7 O 5.401204 0.742880 2.187833 0
M  V30 8 O 3.889871 0.685265 4.092261 0
M  V30 9 C 3.914454 2.928818 2.697126 0
M  V30 10 C 2.989759 3.764988 2.111786 0
M  V30 11 C 3.090840 5.128925 2.280146 0
M  V30 12 C 4.099493 5.702440 3.025370 0
M  V30 13 F 4.118207 7.039561 3.134345 0
M  V30 14 C 5.034377 4.880244 3.619044 0
M  V30 15 C 4.944599 3.493907 3.456859 0
M  V30 16 F 5.945808 2.829848 4.108163 0
M  V30 17 C 1.810820 -0.353523 2.171335 0
M  V30 18 C 0.848847 -0.831308 1.313488 0
M  V30 19 C -0.127129 -1.688606 1.770487 0
M  V30 20 N -1.022369 -2.103372 0.866076 0
M  V30 21 C -1.063367 -1.773741 -0.417104 0
M  V30 22 N -2.012838 -2.214351 -1.373168 0
M  V30 23 C -3.109193 -3.089422 -1.170750 0
M  V30 24 C -3.957477 -3.425527 -2.230709 0
M  V30 25 C -5.031645 -4.268707 -2.082742 0
M  V30 26 C -5.330774 -4.833938 -0.862312 0
M  V30 27 N -6.302919 -5.671682 -0.461981 0
M  V30 28 C -6.141266 -5.922957 0.865409 0
M  V30 29 C -5.036889 -5.215993 1.283999 0
M  V30 30 C -4.517999 -4.524157 0.197038 0
M  V30 31 C -3.461672 -3.685839 0.018857 0
M  V30 32 N -0.098602 -0.946556 -0.796650 0
M  V30 33 C 0.855347 -0.455130 -0.009080 0
M  V30 34 H 2.663430 1.007005 -2.356259 0
M  V30 35 H 0.981464 1.535971 -2.092586 0
M  V30 36 H 1.337319 -0.171043 -2.460357 0
M  V30 37 H 2.249287 3.207615 1.559019 0
M  V30 38 H 2.291019 5.678193 1.761217 0
M  V30 39 H 5.807421 5.371040 4.193990 0
M  V30 40 H 1.838277 -0.626013 3.215016 0
M  V30 41 H -0.157633 -2.003066 2.809544 0
M  V30 42 H -1.907397 -1.857221 -2.366195 0
M  V30 43 H -3.775097 -3.009365 -3.230037 0
M  V30 44 H -5.648380 -4.487510 -2.944726 0
M  V30 45 H -7.046056 -6.051442 -1.086124 0
M  V30 46 H -6.783331 -6.560537 1.430564 0
M  V30 47 H -4.638343 -5.200277 2.289414 0
M  V30 48 H -2.883787 -3.497793 0.886967 0
M  V30 END ATOM
M  V30 BEGIN BOND
M  V30 1 1 1 2
M  V30 2 1 2 3
M  V30 3 2 3 4
M  V30 4 1 3 5
M  V30 5 1 5 6
M  V30 6 2 6 7
M  V30 7 2 6 8
M  V30 8 1 6 9
M  V30 9 2 9 10
M  V30 10 1 10 11
M  V30 11 2 11 12
M  V30 12 1 12 13
M  V30 13 1 12 14
M  V30 14 2 14 15
M  V30 15 1 15 16
M  V30 16 2 5 17
M  V30 17 1 17 18
M  V30 18 2 18 19
M  V30 19 1 19 20
M  V30 20 2 20 21
M  V30 21 1 21 22
M  V30 22 1 22 23
M  V30 23 2 23 24
M  V30 24 1 24 25
M  V30 25 2 25 26
M  V30 26 1 26 27
M  V30 27 1 27 28
M  V30 28 2 28 29
M  V30 29 1 29 30
M  V30 30 2 30 31
M  V30 31 1 21 32
M  V30 32 2 32 33
M  V30 33 1 33 2
M  V30 34 1 15 9
M  V30 35 1 33 18
M  V30 36 1 31 23
M  V30 37 1 30 26
M  V30 38 1 1 34
M  V30 39 1 1 35
M  V30 40 1 1 36
M  V30 41 1 10 37
M  V30 42 1 11 38
M  V30 43 1 14 39
M  V30 44 1 17 40
M  V30 45 1 19 41
M  V30 46 1 22 42
M  V30 47 1 24 43
M  V30 48 1 25 44
M  V30 49 1 27 45
M  V30 50 1 28 46
M  V30 51 1 29 47
M  V30 52 1 31 48
M  V30 END BOND
M  V30 END CTAB
M  END
>  <Dataset>  (724) 
ChEMBL_Kinases

>  <Ligand_Instance>  (724) 
nan

>  <PDB_ID>  (724) 
nan

>  <Standardized_SMILES>  (724) 
Cn1c(=O)c(S(=O)(=O)c2ccc(F)cc2F)cc2cnc(Nc3ccc4[nH]ccc4c3)nc21

>  <Name>  (724) 
nan

>  <Pocket>  (724) 
nan

>  <ATP_Site>  (724) 
nan

>  <Peripheral>  (724) 
nan

>  <Num_H_Atoms_ProtBoundConf>  (724) 
nan

>  <Num_Resolved_Atoms>  (724) 
nan

>  <Num_Not_Resolved_Atoms>  (724) 
nan

$$$$
CHEMBL3356470
     RDKit          3D

  0  0  0  0  0  0  0  0  0  0999 V3000
M  V30 BEGIN CTAB
M  V30 COUNTS 41 44 0 0 0
M  V30 BEGIN ATOM
M  V30 1 C -0.577162 1.934508 -1.420315 0
M  V30 2 C -0.479668 0.958569 -0.307165 0
M  V30 3 C -1.662563 0.838063 0.430945 0
M  V30 4 C -1.637361 -0.053279 1.475700 0
M  V30 5 C -0.579480 -0.832807 1.867928 0
M  V30 6 C 0.543307 -0.667321 1.106880 0
M  V30 7 C 0.626665 0.213052 0.020873 0
M  V30 8 N 1.803194 0.370515 -0.743267 0
M  V30 9 C 2.799507 0.728033 -1.647540 0
M  V30 10 C 2.599257 0.428017 -3.128893 0
M  V30 11 N 3.520025 1.562012 -3.357505 0
M  V30 12 C 2.847113 2.161974 -2.177030 0
M  V30 13 N -0.604424 -1.747754 2.954131 0
M  V30 14 C -1.866427 -1.785609 3.619811 0
M  V30 15 N -2.001558 -2.351179 4.776267 0
M  V30 16 N -0.887713 -2.934561 5.379482 0
M  V30 17 C 0.395996 -2.932418 4.770743 0
M  V30 18 O 1.372525 -3.271427 5.492708 0
M  V30 19 C 0.535757 -2.535061 3.322927 0 CFG=1
M  V30 20 C 0.680457 -3.802979 2.526694 0
M  V30 21 C -3.112478 -1.204844 3.065374 0
M  V30 22 O -2.815555 -0.149187 2.183846 0
M  V30 23 H -0.031436 2.876922 -1.128170 0
M  V30 24 H -0.217702 1.507070 -2.370939 0
M  V30 25 H -1.619708 2.274510 -1.610803 0
M  V30 26 H -2.559861 1.425104 0.186503 0
M  V30 27 H 1.392381 -1.276408 1.400593 0
M  V30 28 H 2.484415 -0.342933 -0.334164 0
M  V30 29 H 3.885900 0.476692 -1.423931 0
M  V30 30 H 2.991853 -0.553587 -3.421196 0
M  V30 31 H 1.640886 0.693004 -3.568268 0
M  V30 32 H 3.342806 2.056329 -4.247600 0
M  V30 33 H 1.902365 2.612545 -2.492500 0
M  V30 34 H 3.564287 2.817595 -1.671282 0
M  V30 35 H -1.015369 -3.393909 6.327629 0
M  V30 36 H 1.501291 -1.976978 3.292648 0
M  V30 37 H 1.754746 -3.937565 2.208331 0
M  V30 38 H 0.044427 -3.835929 1.613710 0
M  V30 39 H 0.423078 -4.724525 3.111198 0
M  V30 40 H -3.735840 -1.965127 2.550061 0
M  V30 41 H -3.695097 -0.755180 3.920670 0
M  V30 END ATOM
M  V30 BEGIN BOND
M  V30 1 1 1 2
M  V30 2 2 2 3
M  V30 3 1 3 4
M  V30 4 2 4 5
M  V30 5 1 5 6
M  V30 6 2 6 7
M  V30 7 1 7 8
M  V30 8 1 8 9
M  V30 9 1 9 10
M  V30 10 1 10 11
M  V30 11 1 11 12
M  V30 12 1 5 13
M  V30 13 1 13 14
M  V30 14 2 14 15
M  V30 15 1 15 16
M  V30 16 1 16 17
M  V30 17 2 17 18
M  V30 18 1 17 19
M  V30 19 1 19 20
M  V30 20 1 14 21
M  V30 21 1 21 22
M  V30 22 1 7 2
M  V30 23 1 12 9
M  V30 24 1 19 13
M  V30 25 1 22 4
M  V30 26 1 1 23
M  V30 27 1 1 24
M  V30 28 1 1 25
M  V30 29 1 3 26
M  V30 30 1 6 27
M  V30 31 1 8 28
M  V30 32 1 9 29
M  V30 33 1 10 30
M  V30 34 1 10 31
M  V30 35 1 11 32
M  V30 36 1 12 33
M  V30 37 1 12 34
M  V30 38 1 16 35
M  V30 39 1 19 36 CFG=1
M  V30 40 1 20 37
M  V30 41 1 20 38
M  V30 42 1 20 39
M  V30 43 1 21 40
M  V30 44 1 21 41
M  V30 END BOND
M  V30 END CTAB
M  END
>  <Dataset>  (725) 
ChEMBL_Kinases

>  <Ligand_Instance>  (725) 
nan

>  <PDB_ID>  (725) 
nan

>  <Standardized_SMILES>  (725) 
Cc1cc2c(cc1NC1CNC1)N1C(=NNC(=O)[C@H]1C)CO2

>  <Name>  (725) 
nan

>  <Pocket>  (725) 
nan

>  <ATP_Site>  (725) 
nan

>  <Peripheral>  (725) 
nan

>  <Num_H_Atoms_ProtBoundConf>  (725) 
nan

>  <Num_Resolved_Atoms>  (725) 
nan

>  <Num_Not_Resolved_Atoms>  (725) 
nan

$$$$
CHEMBL186101
     RDKit          3D

  0  0  0  0  0  0  0  0  0  0999 V3000
M  V30 BEGIN CTAB
M  V30 COUNTS 40 43 0 0 0
M  V30 BEGIN ATOM
M  V30 1 C -0.435322 -5.553807 -1.576796 0
M  V30 2 C -0.017933 -4.277441 -0.957534 0
M  V30 3 C 0.014639 -4.254645 0.418893 0
M  V30 4 C 0.393972 -3.099203 1.079563 0
M  V30 5 C 0.463746 -2.969338 2.575547 0
M  V30 6 C 0.719313 -2.031441 0.288187 0
M  V30 7 C 0.710331 -1.976992 -1.086321 0
M  V30 8 N 1.032330 -0.842500 -1.876124 0
M  V30 9 C 1.133394 0.517676 -1.495261 0
M  V30 10 N 1.608911 1.403904 -2.418700 0
M  V30 11 C 1.714161 2.704801 -2.130890 0
M  V30 12 C 1.328329 3.124481 -0.878955 0
M  V30 13 C 0.839327 2.248669 0.083073 0
M  V30 14 C 0.451486 2.830565 1.355343 0
M  V30 15 C 0.593184 4.141251 1.743373 0
M  V30 16 N 0.111052 4.312929 2.992071 0
M  V30 17 N -0.350195 3.148534 3.447712 0
M  V30 18 N -0.907321 2.849882 4.607536 0
M  V30 19 C -1.315032 1.598167 4.877365 0
M  V30 20 C -1.149317 0.590948 3.916853 0
M  V30 21 C -0.559963 0.992993 2.738405 0
M  V30 22 C -0.139590 2.273982 2.458196 0
M  V30 23 N 0.762629 0.959320 -0.273991 0
M  V30 24 C 0.320770 -3.167728 -1.692657 0
M  V30 25 H -1.231668 -6.026893 -0.932082 0
M  V30 26 H -0.888453 -5.324392 -2.559621 0
M  V30 27 H 0.405346 -6.266317 -1.634385 0
M  V30 28 H -0.246548 -5.116492 1.023758 0
M  V30 29 H 0.171928 -3.945278 3.015947 0
M  V30 30 H 1.509298 -2.786432 2.905174 0
M  V30 31 H -0.207894 -2.169729 2.945765 0
M  V30 32 H 1.031393 -1.130655 0.795829 0
M  V30 33 H 1.218618 -1.066039 -2.892407 0
M  V30 34 H 2.091321 3.390285 -2.874040 0
M  V30 35 H 1.423237 4.188967 -0.667444 0
M  V30 36 H 1.020809 4.984215 1.187716 0
M  V30 37 H -1.771157 1.318831 5.807421 0
M  V30 38 H -1.477043 -0.386285 4.152017 0
M  V30 39 H -0.435730 0.239003 1.995418 0
M  V30 40 H 0.267119 -3.276242 -2.758125 0
M  V30 END ATOM
M  V30 BEGIN BOND
M  V30 1 1 1 2
M  V30 2 2 2 3
M  V30 3 1 3 4
M  V30 4 1 4 5
M  V30 5 2 4 6
M  V30 6 1 6 7
M  V30 7 1 7 8
M  V30 8 1 8 9
M  V30 9 2 9 10
M  V30 10 1 10 11
M  V30 11 2 11 12
M  V30 12 1 12 13
M  V30 13 1 13 14
M  V30 14 1 14 15
M  V30 15 2 15 16
M  V30 16 1 16 17
M  V30 17 1 17 18
M  V30 18 2 18 19
M  V30 19 1 19 20
M  V30 20 2 20 21
M  V30 21 1 21 22
M  V30 22 2 13 23
M  V30 23 2 7 24
M  V30 24 1 24 2
M  V30 25 1 23 9
M  V30 26 2 22 14
M  V30 27 1 22 17
M  V30 28 1 1 25
M  V30 29 1 1 26
M  V30 30 1 1 27
M  V30 31 1 3 28
M  V30 32 1 5 29
M  V30 33 1 5 30
M  V30 34 1 5 31
M  V30 35 1 6 32
M  V30 36 1 8 33
M  V30 37 1 11 34
M  V30 38 1 12 35
M  V30 39 1 15 36
M  V30 40 1 19 37
M  V30 41 1 20 38
M  V30 42 1 21 39
M  V30 43 1 24 40
M  V30 END BOND
M  V30 END CTAB
M  END
>  <Dataset>  (726) 
ChEMBL_Kinases

>  <Ligand_Instance>  (726) 
nan

>  <PDB_ID>  (726) 
nan

>  <Standardized_SMILES>  (726) 
Cc1cc(C)cc(Nc2nccc(-c3cnn4ncccc34)n2)c1

>  <Name>  (726) 
nan

>  <Pocket>  (726) 
nan

>  <ATP_Site>  (726) 
nan

>  <Peripheral>  (726) 
nan

>  <Num_H_Atoms_ProtBoundConf>  (726) 
nan

>  <Num_Resolved_Atoms>  (726) 
nan

>  <Num_Not_Resolved_Atoms>  (726) 
nan

$$$$
CHEMBL5078833
     RDKit          3D

  0  0  0  0  0  0  0  0  0  0999 V3000
M  V30 BEGIN CTAB
M  V30 COUNTS 41 45 0 0 0
M  V30 BEGIN ATOM
M  V30 1 C 4.129783 -4.381767 0.675764 0
M  V30 2 C 3.264003 -3.217308 1.076977 0
M  V30 3 N 2.276103 -2.732528 0.303079 0
M  V30 4 C 1.559157 -1.671112 0.776336 0
M  V30 5 C 0.542548 -1.235444 -0.163609 0
M  V30 6 C -0.317193 -2.242026 -0.622232 0
M  V30 7 C -1.329629 -2.065800 -1.549534 0
M  V30 8 C -1.495059 -0.794314 -2.054511 0
M  V30 9 C -0.676124 0.229628 -1.636516 0
M  V30 10 C 0.324894 0.032175 -0.713291 0
M  V30 11 O -1.067350 1.380781 -2.302936 0
M  V30 12 C -1.886824 0.988275 -3.411002 0
M  V30 13 O -2.380318 -0.253206 -2.975133 0
M  V30 14 C 1.908364 -1.187008 2.012297 0
M  V30 15 C 1.267348 -0.135651 2.619464 0
M  V30 16 C 0.139589 0.749008 2.381676 0
M  V30 17 C 0.417727 2.096332 2.432422 0
M  V30 18 C -0.509537 3.112585 2.269186 0
M  V30 19 N -1.792714 2.713236 2.041342 0
M  V30 20 C -2.138663 1.416731 1.978649 0
M  V30 21 N -3.470917 0.972035 1.742016 0
M  V30 22 C -1.201004 0.434976 2.143777 0
M  V30 23 C 1.940381 0.005057 3.841629 0
M  V30 24 N 2.919238 -0.945323 3.900597 0
M  V30 25 C 2.919936 -1.690250 2.792921 0
M  V30 26 N 3.616769 -2.737682 2.306016 0
M  V30 27 H 5.187633 -4.082523 0.654496 0
M  V30 28 H 4.048069 -5.207427 1.433648 0
M  V30 29 H 3.805802 -4.780386 -0.286397 0
M  V30 30 H -0.225196 -3.260980 -0.252713 0
M  V30 31 H -1.958741 -2.887376 -1.860924 0
M  V30 32 H 1.003335 0.776146 -0.346534 0
M  V30 33 H -1.313653 0.929292 -4.358767 0
M  V30 34 H -2.698593 1.760730 -3.468214 0
M  V30 35 H 1.419347 2.465448 2.610288 0
M  V30 36 H -0.257782 4.156318 2.314971 0
M  V30 37 H -4.236665 0.633213 2.390233 0
M  V30 38 H -4.227834 0.635537 2.397666 0
M  V30 39 H -1.371393 -0.650528 2.112436 0
M  V30 40 H 1.812339 0.683093 4.657727 0
M  V30 41 H 3.605658 -1.108006 4.691781 0
M  V30 END ATOM
M  V30 BEGIN BOND
M  V30 1 1 1 2
M  V30 2 2 2 3
M  V30 3 1 3 4
M  V30 4 1 4 5
M  V30 5 2 5 6
M  V30 6 1 6 7
M  V30 7 2 7 8
M  V30 8 1 8 9
M  V30 9 2 9 10
M  V30 10 1 9 11
M  V30 11 1 11 12
M  V30 12 1 12 13
M  V30 13 2 4 14
M  V30 14 1 14 15
M  V30 15 1 15 16
M  V30 16 2 16 17
M  V30 17 1 17 18
M  V30 18 2 18 19
M  V30 19 1 19 20
M  V30 20 1 20 21
M  V30 21 2 20 22
M  V30 22 2 15 23
M  V30 23 1 23 24
M  V30 24 1 24 25
M  V30 25 2 25 26
M  V30 26 1 26 2
M  V30 27 1 10 5
M  V30 28 1 25 14
M  V30 29 1 13 8
M  V30 30 1 22 16
M  V30 31 1 1 27
M  V30 32 1 1 28
M  V30 33 1 1 29
M  V30 34 1 6 30
M  V30 35 1 7 31
M  V30 36 1 10 32
M  V30 37 1 12 33
M  V30 38 1 12 34
M  V30 39 1 17 35
M  V30 40 1 18 36
M  V30 41 1 21 37
M  V30 42 1 21 38
M  V30 43 1 22 39
M  V30 44 1 23 40
M  V30 45 1 24 41
M  V30 END BOND
M  V30 END CTAB
M  END
>  <Dataset>  (727) 
ChEMBL_Kinases

>  <Ligand_Instance>  (727) 
nan

>  <PDB_ID>  (727) 
nan

>  <Standardized_SMILES>  (727) 
Cc1nc(-c2ccc3c(c2)OCO3)c2c(-c3ccnc(N)c3)c[nH]c2n1

>  <Name>  (727) 
nan

>  <Pocket>  (727) 
nan

>  <ATP_Site>  (727) 
nan

>  <Peripheral>  (727) 
nan

>  <Num_H_Atoms_ProtBoundConf>  (727) 
nan

>  <Num_Resolved_Atoms>  (727) 
nan

>  <Num_Not_Resolved_Atoms>  (727) 
nan

$$$$
CHEMBL568150
     RDKit          3D

  0  0  0  0  0  0  0  0  0  0999 V3000
M  V30 BEGIN CTAB
M  V30 COUNTS 25 27 0 0 0
M  V30 BEGIN ATOM
M  V30 1 O -1.838258 -3.950098 4.412389 0
M  V30 2 C -1.133890 -3.721181 3.377286 0
M  V30 3 N -0.798123 -4.717782 2.424400 0
M  V30 4 C -0.245162 -4.242666 1.217114 0
M  V30 5 O 0.131134 -4.954287 0.225031 0
M  V30 6 C -0.088569 -2.799655 1.098190 0
M  V30 7 C 0.201232 -2.012925 0.102048 0
M  V30 8 C 0.297440 -0.567749 0.243862 0
M  V30 9 C -0.633337 0.093966 1.009369 0
M  V30 10 C -0.612336 1.457156 1.201348 0
M  V30 11 C 0.370531 2.222941 0.614033 0
M  V30 12 N 0.472476 3.589606 0.748551 0
M  V30 13 C 1.511760 4.202994 0.098152 0
M  V30 14 C 2.456003 3.580752 -0.670161 0
M  V30 15 N 2.342373 2.226608 -0.793614 0
M  V30 16 C 1.327465 1.588136 -0.166224 0
M  V30 17 C 1.301723 0.208777 -0.356632 0
M  V30 18 S -0.376783 -2.207831 2.795364 0
M  V30 19 H -0.945875 -5.757146 2.589454 0
M  V30 20 H 0.361912 -2.521229 -0.844581 0
M  V30 21 H -1.476852 -0.347523 1.536712 0
M  V30 22 H -1.310455 2.047036 1.789329 0
M  V30 23 H 1.504089 5.287256 0.266062 0
M  V30 24 H 3.228003 4.189515 -1.125563 0
M  V30 25 H 2.038947 -0.299306 -0.961958 0
M  V30 END ATOM
M  V30 BEGIN BOND
M  V30 1 2 1 2
M  V30 2 1 2 3
M  V30 3 1 3 4
M  V30 4 2 4 5
M  V30 5 1 4 6
M  V30 6 2 6 7
M  V30 7 1 7 8
M  V30 8 2 8 9
M  V30 9 1 9 10
M  V30 10 2 10 11
M  V30 11 1 11 12
M  V30 12 2 12 13
M  V30 13 1 13 14
M  V30 14 2 14 15
M  V30 15 1 15 16
M  V30 16 2 16 17
M  V30 17 1 6 18
M  V30 18 1 18 2
M  V30 19 1 17 8
M  V30 20 1 16 11
M  V30 21 1 3 19
M  V30 22 1 7 20
M  V30 23 1 9 21
M  V30 24 1 10 22
M  V30 25 1 13 23
M  V30 26 1 14 24
M  V30 27 1 17 25
M  V30 END BOND
M  V30 END CTAB
M  END
>  <Dataset>  (728) 
ChEMBL_Kinases

>  <Ligand_Instance>  (728) 
nan

>  <PDB_ID>  (728) 
nan

>  <Standardized_SMILES>  (728) 
O=C1NC(=O)/C(=C/c2ccc3nccnc3c2)S1

>  <Name>  (728) 
nan

>  <Pocket>  (728) 
nan

>  <ATP_Site>  (728) 
nan

>  <Peripheral>  (728) 
nan

>  <Num_H_Atoms_ProtBoundConf>  (728) 
nan

>  <Num_Resolved_Atoms>  (728) 
nan

>  <Num_Not_Resolved_Atoms>  (728) 
nan

$$$$
CHEMBL186054
     RDKit          3D

  0  0  0  0  0  0  0  0  0  0999 V3000
M  V30 BEGIN CTAB
M  V30 COUNTS 42 45 0 0 0
M  V30 BEGIN ATOM
M  V30 1 C 0.000442 -4.874729 3.197702 0
M  V30 2 O 0.885606 -4.878162 2.099860 0
M  V30 3 C 1.312319 -3.757936 1.444383 0
M  V30 4 C 0.849180 -2.518845 1.881572 0
M  V30 5 C 1.313983 -1.428115 1.182082 0
M  V30 6 C 2.168269 -1.433351 0.119676 0
M  V30 7 N 2.614718 -0.292806 -0.594257 0
M  V30 8 C 2.078663 1.020492 -0.598783 0
M  V30 9 N 2.730347 2.009542 -1.226304 0
M  V30 10 C 2.275070 3.265934 -1.289469 0
M  V30 11 C 1.079822 3.548266 -0.679332 0
M  V30 12 C 0.370305 2.536724 -0.014641 0
M  V30 13 C -0.891467 2.961836 0.568212 0
M  V30 14 C -1.408632 4.254132 0.645856 0
M  V30 15 N -2.606199 4.218249 1.247708 0
M  V30 16 N -2.920974 2.969177 1.577925 0
M  V30 17 N -3.997963 2.489267 2.174448 0
M  V30 18 C -4.126258 1.168878 2.414672 0
M  V30 19 C -3.121876 0.292769 2.036456 0
M  V30 20 C -2.024778 0.877760 1.415125 0
M  V30 21 C -1.886612 2.223789 1.166177 0
M  V30 22 N 0.886648 1.297796 0.010456 0
M  V30 23 C 2.589926 -2.691130 -0.263978 0
M  V30 24 C 2.177969 -3.837352 0.377539 0
M  V30 25 O 2.588752 -5.108922 0.011072 0
M  V30 26 C 3.479536 -5.287133 -1.076275 0
M  V30 27 H -0.163535 -5.885613 3.612205 0
M  V30 28 H 0.348632 -4.186181 4.000278 0
M  V30 29 H -1.005602 -4.528168 2.868464 0
M  V30 30 H 0.166777 -2.421628 2.720561 0
M  V30 31 H 0.957711 -0.479068 1.542783 0
M  V30 32 H 3.470874 -0.439737 -1.212756 0
M  V30 33 H 2.877673 4.003292 -1.827551 0
M  V30 34 H 0.722879 4.581708 -0.739358 0
M  V30 35 H -0.938340 5.174475 0.282222 0
M  V30 36 H -4.985683 0.689300 2.904252 0
M  V30 37 H -3.115231 -0.794080 2.179189 0
M  V30 38 H -1.235655 0.212338 1.103931 0
M  V30 39 H 3.280638 -2.767581 -1.112873 0
M  V30 40 H 3.137176 -4.632956 -1.906748 0
M  V30 41 H 4.510202 -5.000509 -0.797746 0
M  V30 42 H 3.419577 -6.344267 -1.413022 0
M  V30 END ATOM
M  V30 BEGIN BOND
M  V30 1 1 1 2
M  V30 2 1 2 3
M  V30 3 2 3 4
M  V30 4 1 4 5
M  V30 5 2 5 6
M  V30 6 1 6 7
M  V30 7 1 7 8
M  V30 8 2 8 9
M  V30 9 1 9 10
M  V30 10 2 10 11
M  V30 11 1 11 12
M  V30 12 1 12 13
M  V30 13 1 13 14
M  V30 14 2 14 15
M  V30 15 1 15 16
M  V30 16 1 16 17
M  V30 17 2 17 18
M  V30 18 1 18 19
M  V30 19 2 19 20
M  V30 20 1 20 21
M  V30 21 2 12 22
M  V30 22 1 6 23
M  V30 23 2 23 24
M  V30 24 1 24 25
M  V30 25 1 25 26
M  V30 26 1 24 3
M  V30 27 1 22 8
M  V30 28 2 21 13
M  V30 29 1 21 16
M  V30 30 1 1 27
M  V30 31 1 1 28
M  V30 32 1 1 29
M  V30 33 1 4 30
M  V30 34 1 5 31
M  V30 35 1 7 32
M  V30 36 1 10 33
M  V30 37 1 11 34
M  V30 38 1 14 35
M  V30 39 1 18 36
M  V30 40 1 19 37
M  V30 41 1 20 38
M  V30 42 1 23 39
M  V30 43 1 26 40
M  V30 44 1 26 41
M  V30 45 1 26 42
M  V30 END BOND
M  V30 END CTAB
M  END
>  <Dataset>  (729) 
ChEMBL_Kinases

>  <Ligand_Instance>  (729) 
nan

>  <PDB_ID>  (729) 
nan

>  <Standardized_SMILES>  (729) 
COc1ccc(Nc2nccc(-c3cnn4ncccc34)n2)cc1OC

>  <Name>  (729) 
PYRAZOLOPYRIDAZINE 2

>  <Pocket>  (729) 
nan

>  <ATP_Site>  (729) 
nan

>  <Peripheral>  (729) 
nan

>  <Num_H_Atoms_ProtBoundConf>  (729) 
nan

>  <Num_Resolved_Atoms>  (729) 
nan

>  <Num_Not_Resolved_Atoms>  (729) 
nan

$$$$
CHEMBL521823
     RDKit          3D

  0  0  0  0  0  0  0  0  0  0999 V3000
M  V30 BEGIN CTAB
M  V30 COUNTS 46 49 0 0 0
M  V30 BEGIN ATOM
M  V30 1 C 2.305156 -2.361458 0.914040 0
M  V30 2 C 1.322258 -1.944990 -0.139537 0
M  V30 3 N 1.652919 -0.664207 -0.729633 0
M  V30 4 C 2.414783 -0.387883 -1.794812 0
M  V30 5 C 3.100092 -1.379298 -2.616464 0
M  V30 6 N 3.110043 -2.718664 -2.482532 0
M  V30 7 O 3.820619 -3.284508 -3.385316 0
M  V30 8 N 4.323750 -2.368641 -4.169471 0
M  V30 9 C 3.895295 -1.152090 -3.721488 0
M  V30 10 N 4.203586 0.125436 -4.280880 0
M  V30 11 N 2.457913 0.930306 -1.998459 0
M  V30 12 C 1.717307 1.573954 -1.063394 0
M  V30 13 C 1.395160 2.884191 -0.770003 0
M  V30 14 N 0.598369 3.207368 0.276685 0
M  V30 15 C 0.089749 2.227500 1.075334 0
M  V30 16 C 0.402389 0.913442 0.795270 0
M  V30 17 O -0.126102 -0.056766 1.619836 0
M  V30 18 C -0.956862 0.182887 2.721886 0
M  V30 19 C -1.374131 -1.084295 3.427924 0
M  V30 20 C -2.276833 -0.776340 4.620229 0
M  V30 21 C -3.410127 0.042464 4.136355 0
M  V30 22 N -3.986414 -0.315825 2.904121 0
M  V30 23 C -3.508445 -1.411733 2.174004 0
M  V30 24 C -2.187062 -1.999637 2.569834 0
M  V30 25 C 1.219379 0.535434 -0.272819 0
M  V30 26 H 1.869977 -2.182988 1.913469 0
M  V30 27 H 2.565347 -3.432491 0.847968 0
M  V30 28 H 3.184691 -1.695006 0.805984 0
M  V30 29 H 0.317663 -1.945544 0.296244 0
M  V30 30 H 1.273868 -2.710673 -0.968350 0
M  V30 31 H 5.093333 0.654898 -4.211399 0
M  V30 32 H 3.427459 0.556423 -4.817661 0
M  V30 33 H 1.803675 3.664143 -1.410703 0
M  V30 34 H -0.547719 2.475424 1.913904 0
M  V30 35 H -1.827156 0.813773 2.522826 0
M  V30 36 H -0.337460 0.756515 3.462276 0
M  V30 37 H -0.503924 -1.646540 3.817427 0
M  V30 38 H -2.631360 -1.778907 4.979512 0
M  V30 39 H -1.712765 -0.249583 5.406036 0
M  V30 40 H -4.212984 -0.006825 4.925888 0
M  V30 41 H -3.100869 1.108916 4.107224 0
M  V30 42 H -4.200850 0.500329 2.304095 0
M  V30 43 H -4.303715 -2.209246 2.178483 0
M  V30 44 H -3.413920 -1.129410 1.103006 0
M  V30 45 H -2.414568 -2.893766 3.207230 0
M  V30 46 H -1.643220 -2.412560 1.693732 0
M  V30 END ATOM
M  V30 BEGIN BOND
M  V30 1 1 1 2
M  V30 2 1 2 3
M  V30 3 1 3 4
M  V30 4 1 4 5
M  V30 5 2 5 6
M  V30 6 1 6 7
M  V30 7 1 7 8
M  V30 8 2 8 9
M  V30 9 1 9 10
M  V30 10 2 4 11
M  V30 11 1 11 12
M  V30 12 2 12 13
M  V30 13 1 13 14
M  V30 14 2 14 15
M  V30 15 1 15 16
M  V30 16 1 16 17
M  V30 17 1 17 18
M  V30 18 1 18 19
M  V30 19 1 19 20
M  V30 20 1 20 21
M  V30 21 1 21 22
M  V30 22 1 22 23
M  V30 23 1 23 24
M  V30 24 2 16 25
M  V30 25 1 25 3
M  V30 26 1 9 5
M  V30 27 1 25 12
M  V30 28 1 24 19
M  V30 29 1 1 26
M  V30 30 1 1 27
M  V30 31 1 1 28
M  V30 32 1 2 29
M  V30 33 1 2 30
M  V30 34 1 10 31
M  V30 35 1 10 32
M  V30 36 1 13 33
M  V30 37 1 15 34
M  V30 38 1 18 35
M  V30 39 1 18 36
M  V30 40 1 19 37
M  V30 41 1 20 38
M  V30 42 1 20 39
M  V30 43 1 21 40
M  V30 44 1 21 41
M  V30 45 1 22 42
M  V30 46 1 23 43
M  V30 47 1 23 44
M  V30 48 1 24 45
M  V30 49 1 24 46
M  V30 END BOND
M  V30 END CTAB
M  END
>  <Dataset>  (730) 
ChEMBL_Kinases

>  <Ligand_Instance>  (730) 
nan

>  <PDB_ID>  (730) 
nan

>  <Standardized_SMILES>  (730) 
CCn1c(-c2nonc2N)nc2cncc(OCC3CCNCC3)c21

>  <Name>  (730) 
nan

>  <Pocket>  (730) 
nan

>  <ATP_Site>  (730) 
nan

>  <Peripheral>  (730) 
nan

>  <Num_H_Atoms_ProtBoundConf>  (730) 
nan

>  <Num_Resolved_Atoms>  (730) 
nan

>  <Num_Not_Resolved_Atoms>  (730) 
nan

$$$$
CHEMBL3393333
     RDKit          3D

  0  0  0  0  0  0  0  0  0  0999 V3000
M  V30 BEGIN CTAB
M  V30 COUNTS 58 62 0 0 0
M  V30 BEGIN ATOM
M  V30 1 N 3.865835 -0.678944 6.129627 0
M  V30 2 C 4.091771 -1.040792 5.033482 0
M  V30 3 C 4.348312 -1.499189 3.677647 0
M  V30 4 C 4.792987 -2.792871 3.435827 0
M  V30 5 C 5.021921 -3.186458 2.124778 0
M  V30 6 N 4.814466 -2.323857 1.108809 0
M  V30 7 C 4.381459 -1.061237 1.329999 0
M  V30 8 N 4.208162 -0.279672 0.149478 0
M  V30 9 C 2.822214 -0.447583 -0.133229 0
M  V30 10 C 1.977741 0.516955 0.400158 0
M  V30 11 C 0.590029 0.511056 0.227815 0
M  V30 12 C -0.274856 1.564529 0.815686 0
M  V30 13 C -1.029302 2.359285 -0.207310 0
M  V30 14 C -2.485152 2.110558 -0.315265 0
M  V30 15 N -3.208470 1.912379 0.902571 0
M  V30 16 C -3.899690 0.665100 0.807481 0
M  V30 17 C -4.671948 0.166757 1.981042 0
M  V30 18 O -5.662949 -0.288255 1.087070 0
M  V30 19 C -5.301711 0.751093 0.229860 0
M  V30 20 C -2.311229 2.040304 2.019580 0
M  V30 21 C -1.212454 1.012394 1.825778 0
M  V30 22 C 0.083332 -0.543137 -0.528871 0
M  V30 23 C 0.925870 -1.501420 -1.058038 0
M  V30 24 N 0.377493 -2.559929 -1.825792 0
M  V30 25 C -1.008767 -2.723553 -2.196340 0
M  V30 26 C -1.211981 -4.127180 -2.644795 0
M  V30 27 C 0.073828 -4.839245 -2.362717 0
M  V30 28 F -0.001909 -5.341735 -1.064277 0
M  V30 29 F 0.379900 -5.813476 -3.271669 0
M  V30 30 C 1.085204 -3.707017 -2.397016 0
M  V30 31 N 2.276153 -1.445515 -0.857021 0
M  V30 32 C 4.144578 -0.642548 2.633476 0
M  V30 33 H 4.946380 -3.458404 4.281555 0
M  V30 34 H 5.368204 -4.187983 1.922678 0
M  V30 35 H 4.943689 0.272752 -0.361955 0
M  V30 36 H 2.386860 1.342501 0.994569 0
M  V30 37 H 0.432231 2.296736 1.313711 0
M  V30 38 H -0.580688 2.044020 -1.202266 0
M  V30 39 H -0.773123 3.449916 -0.170425 0
M  V30 40 H -2.918813 2.987793 -0.856007 0
M  V30 41 H -2.642404 1.259693 -1.042942 0
M  V30 42 H -3.361902 -0.178379 0.299748 0
M  V30 43 H -5.108740 0.878031 2.680658 0
M  V30 44 H -4.240346 -0.750297 2.480601 0
M  V30 45 H -5.777350 1.718210 0.515270 0
M  V30 46 H -5.330591 0.474700 -0.822029 0
M  V30 47 H -2.804463 1.967246 2.994560 0
M  V30 48 H -1.920858 3.093014 1.972589 0
M  V30 49 H -0.724423 0.768359 2.798961 0
M  V30 50 H -1.688691 0.114605 1.405220 0
M  V30 51 H -0.998514 -0.586477 -0.690106 0
M  V30 52 H -1.317361 -2.006416 -2.987591 0
M  V30 53 H -1.696998 -2.503850 -1.339186 0
M  V30 54 H -2.080576 -4.623708 -2.128763 0
M  V30 55 H -1.446223 -4.124357 -3.748009 0
M  V30 56 H 1.344391 -3.432086 -3.434726 0
M  V30 57 H 1.953984 -3.998481 -1.780639 0
M  V30 58 H 3.800097 0.378215 2.733968 0
M  V30 END ATOM
M  V30 BEGIN BOND
M  V30 1 3 1 2
M  V30 2 1 2 3
M  V30 3 2 3 4
M  V30 4 1 4 5
M  V30 5 2 5 6
M  V30 6 1 6 7
M  V30 7 1 7 8
M  V30 8 1 8 9
M  V30 9 2 9 10
M  V30 10 1 10 11
M  V30 11 1 11 12
M  V30 12 1 12 13
M  V30 13 1 13 14
M  V30 14 1 14 15
M  V30 15 1 15 16
M  V30 16 1 16 17
M  V30 17 1 17 18
M  V30 18 1 18 19
M  V30 19 1 15 20
M  V30 20 1 20 21
M  V30 21 2 11 22
M  V30 22 1 22 23
M  V30 23 1 23 24
M  V30 24 1 24 25
M  V30 25 1 25 26
M  V30 26 1 26 27
M  V30 27 1 27 28
M  V30 28 1 27 29
M  V30 29 1 27 30
M  V30 30 2 23 31
M  V30 31 2 7 32
M  V30 32 1 32 3
M  V30 33 1 31 9
M  V30 34 1 21 12
M  V30 35 1 30 24
M  V30 36 1 19 16
M  V30 37 1 4 33
M  V30 38 1 5 34
M  V30 39 1 8 35
M  V30 40 1 10 36
M  V30 41 1 12 37
M  V30 42 1 13 38
M  V30 43 1 13 39
M  V30 44 1 14 40
M  V30 45 1 14 41
M  V30 46 1 16 42
M  V30 47 1 17 43
M  V30 48 1 17 44
M  V30 49 1 19 45
M  V30 50 1 19 46
M  V30 51 1 20 47
M  V30 52 1 20 48
M  V30 53 1 21 49
M  V30 54 1 21 50
M  V30 55 1 22 51
M  V30 56 1 25 52
M  V30 57 1 25 53
M  V30 58 1 26 54
M  V30 59 1 26 55
M  V30 60 1 30 56
M  V30 61 1 30 57
M  V30 62 1 32 58
M  V30 END BOND
M  V30 END CTAB
M  END
>  <Dataset>  (731) 
ChEMBL_Kinases

>  <Ligand_Instance>  (731) 
nan

>  <PDB_ID>  (731) 
nan

>  <Standardized_SMILES>  (731) 
N#Cc1ccnc(Nc2cc(C3CCN(C4COC4)CC3)cc(N3CCC(F)(F)C3)n2)c1

>  <Name>  (731) 
nan

>  <Pocket>  (731) 
nan

>  <ATP_Site>  (731) 
nan

>  <Peripheral>  (731) 
nan

>  <Num_H_Atoms_ProtBoundConf>  (731) 
nan

>  <Num_Resolved_Atoms>  (731) 
nan

>  <Num_Not_Resolved_Atoms>  (731) 
nan

$$$$
CHEMBL4764173
     RDKit          3D

  0  0  0  0  0  0  0  0  0  0999 V3000
M  V30 BEGIN CTAB
M  V30 COUNTS 55 57 0 0 0
M  V30 BEGIN ATOM
M  V30 1 C -1.132740 -4.194028 2.911427 0
M  V30 2 C -1.236429 -4.445268 1.426126 0
M  V30 3 C 0.114227 -4.253851 0.816414 0 CFG=2
M  V30 4 N 0.689025 -2.959967 0.968024 0
M  V30 5 C 0.160153 -1.706122 0.540845 0
M  V30 6 N 1.007957 -0.696137 0.598722 0
M  V30 7 C 0.806932 0.572434 0.267772 0
M  V30 8 N 1.572305 1.710679 0.294992 0
M  V30 9 C 2.405028 2.869254 0.338808 0
M  V30 10 C 2.978482 3.197047 1.664311 0
M  V30 11 C 2.575501 3.991595 2.691308 0
M  V30 12 C 3.171018 4.233190 3.894661 0
M  V30 13 C 4.392145 3.564491 4.122318 0
M  V30 14 C 4.868312 2.729168 3.104562 0
M  V30 15 C 4.187049 2.552934 1.921007 0
M  V30 16 C -0.486238 0.859872 -0.203901 0
M  V30 17 N -1.165443 1.923683 -0.638983 0
M  V30 18 C -2.414262 1.560452 -0.956484 0
M  V30 19 N -2.578001 0.238358 -0.732320 0
M  V30 20 C -3.859355 -0.359827 -1.008581 0
M  V30 21 C -3.820054 -1.846996 -1.179286 0
M  V30 22 C -4.557615 0.330394 -2.168229 0
M  V30 23 C -1.385227 -0.169904 -0.271795 0
M  V30 24 N -1.053506 -1.405827 0.092645 0
M  V30 25 C 0.222216 -4.770734 -0.603524 0 CFG=1
M  V30 26 C -0.451091 -3.968882 -1.644966 0
M  V30 27 O 1.608545 -4.792121 -0.883112 0
M  V30 28 H -1.352020 -5.134317 3.482266 0
M  V30 29 H -1.773079 -3.363390 3.272133 0
M  V30 30 H -0.097221 -3.923830 3.182214 0
M  V30 31 H -1.997408 -3.731121 1.054696 0
M  V30 32 H -1.533346 -5.492347 1.273610 0
M  V30 33 H 0.746998 -5.008178 1.385635 0
M  V30 34 H 1.618009 -2.969439 1.466382 0
M  V30 35 H 2.463479 1.215109 0.646608 0
M  V30 36 H 3.251089 2.876488 -0.409760 0
M  V30 37 H 1.792224 3.780161 0.017661 0
M  V30 38 H 1.616554 4.481312 2.450955 0
M  V30 39 H 2.671307 4.906304 4.570785 0
M  V30 40 H 4.868809 3.748522 5.068282 0
M  V30 41 H 5.811894 2.220528 3.287830 0
M  V30 42 H 4.661624 1.878592 1.206874 0
M  V30 43 H -3.121658 2.307476 -1.332873 0
M  V30 44 H -4.518265 -0.171180 -0.123930 0
M  V30 45 H -3.430483 -2.054184 -2.202081 0
M  V30 46 H -3.179701 -2.321542 -0.445114 0
M  V30 47 H -4.874375 -2.232242 -1.160089 0
M  V30 48 H -3.806455 0.728900 -2.895654 0
M  V30 49 H -5.153088 -0.428458 -2.696867 0
M  V30 50 H -5.244651 1.132234 -1.834533 0
M  V30 51 H -0.072410 -5.845015 -0.666806 0
M  V30 52 H -0.530289 -4.642025 -2.555919 0
M  V30 53 H -1.480664 -3.667573 -1.450825 0
M  V30 54 H 0.217798 -3.127592 -1.994910 0
M  V30 55 H 1.771475 -4.868015 -1.852082 0
M  V30 END ATOM
M  V30 BEGIN BOND
M  V30 1 1 1 2
M  V30 2 1 2 3
M  V30 3 1 3 4
M  V30 4 1 4 5
M  V30 5 2 5 6
M  V30 6 1 6 7
M  V30 7 1 7 8
M  V30 8 1 8 9
M  V30 9 1 9 10
M  V30 10 2 10 11
M  V30 11 1 11 12
M  V30 12 2 12 13
M  V30 13 1 13 14
M  V30 14 2 14 15
M  V30 15 2 7 16
M  V30 16 1 16 17
M  V30 17 2 17 18
M  V30 18 1 18 19
M  V30 19 1 19 20
M  V30 20 1 20 21
M  V30 21 1 20 22
M  V30 22 1 19 23
M  V30 23 2 23 24
M  V30 24 1 3 25
M  V30 25 1 25 26
M  V30 26 1 25 27
M  V30 27 1 24 5
M  V30 28 1 15 10
M  V30 29 1 23 16
M  V30 30 1 1 28
M  V30 31 1 1 29
M  V30 32 1 1 30
M  V30 33 1 2 31
M  V30 34 1 2 32
M  V30 35 1 3 33 CFG=1
M  V30 36 1 4 34
M  V30 37 1 8 35
M  V30 38 1 9 36
M  V30 39 1 9 37
M  V30 40 1 11 38
M  V30 41 1 12 39
M  V30 42 1 13 40
M  V30 43 1 14 41
M  V30 44 1 15 42
M  V30 45 1 18 43
M  V30 46 1 20 44
M  V30 47 1 21 45
M  V30 48 1 21 46
M  V30 49 1 21 47
M  V30 50 1 22 48
M  V30 51 1 22 49
M  V30 52 1 22 50
M  V30 53 1 25 51 CFG=1
M  V30 54 1 26 52
M  V30 55 1 26 53
M  V30 56 1 26 54
M  V30 57 1 27 55
M  V30 END BOND
M  V30 END CTAB
M  END
>  <Dataset>  (732) 
ChEMBL_Kinases

>  <Ligand_Instance>  (732) 
nan

>  <PDB_ID>  (732) 
nan

>  <Standardized_SMILES>  (732) 
CC[C@H](Nc1nc(NCc2ccccc2)c2ncn(C(C)C)c2n1)[C@@H](C)O

>  <Name>  (732) 
nan

>  <Pocket>  (732) 
nan

>  <ATP_Site>  (732) 
nan

>  <Peripheral>  (732) 
nan

>  <Num_H_Atoms_ProtBoundConf>  (732) 
nan

>  <Num_Resolved_Atoms>  (732) 
nan

>  <Num_Not_Resolved_Atoms>  (732) 
nan

$$$$
CHEMBL3685320
     RDKit          3D

  0  0  0  0  0  0  0  0  0  0999 V3000
M  V30 BEGIN CTAB
M  V30 COUNTS 51 54 0 0 0
M  V30 BEGIN ATOM
M  V30 1 N 1.226224 -4.232128 3.242310 0
M  V30 2 C 1.687056 -3.238605 4.149668 0
M  V30 3 O 1.902201 -3.687536 5.305356 0
M  V30 4 C 1.905626 -1.833246 3.830233 0
M  V30 5 C 2.363529 -1.045565 4.866274 0
M  V30 6 C 2.586261 0.306118 4.602033 0
M  V30 7 C 2.347184 0.817947 3.329476 0
M  V30 8 C 1.888844 -0.045634 2.352133 0
M  V30 9 C 1.643955 0.504355 1.023429 0
M  V30 10 C 2.441589 1.547635 0.602942 0
M  V30 11 C 2.229747 2.085020 -0.648013 0
M  V30 12 C 3.027221 3.182151 -1.158403 0
M  V30 13 N 4.054957 3.707841 -0.331176 0
M  V30 14 O 2.941386 3.767223 -2.279082 0
M  V30 15 C 1.227854 1.557631 -1.429492 0
M  V30 16 N 1.036998 2.085242 -2.639522 0
M  V30 17 C 0.088385 1.623632 -3.450924 0
M  V30 18 N -0.695821 0.621332 -3.074108 0
M  V30 19 C -0.610425 -0.007859 -1.869198 0
M  V30 20 N -1.432770 -1.081284 -1.437612 0
M  V30 21 C -1.886412 -2.053846 -0.533159 0 CFG=1
M  V30 22 C -2.553650 -1.554911 0.719636 0
M  V30 23 C -4.038403 -1.660246 0.745107 0
M  V30 24 C -4.562098 -2.922487 0.110247 0
M  V30 25 N -4.108633 -2.857332 -1.277880 0
M  V30 26 C -2.700909 -3.123921 -1.228661 0
M  V30 27 C 0.391577 0.519977 -1.081408 0
M  V30 28 C 0.662705 0.034932 0.179677 0
M  V30 29 C 1.650305 -1.387129 2.550692 0
M  V30 30 H 0.170820 -4.268649 3.156930 0
M  V30 31 H 0.184758 -4.169008 3.246217 0
M  V30 32 H 2.548123 -1.450594 5.856126 0
M  V30 33 H 2.942473 0.947002 5.384172 0
M  V30 34 H 2.530900 1.867378 3.164544 0
M  V30 35 H 3.219847 1.943317 1.233300 0
M  V30 36 H 5.080964 3.973655 -0.326457 0
M  V30 37 H 5.057781 3.985723 -0.269543 0
M  V30 38 H -0.203024 1.934317 -4.463356 0
M  V30 39 H -2.084746 -1.230775 -2.262156 0
M  V30 40 H -0.976528 -2.644016 -0.177018 0
M  V30 41 H -2.158512 -2.042906 1.634386 0
M  V30 42 H -2.317727 -0.470837 0.864919 0
M  V30 43 H -4.398327 -1.616909 1.786502 0
M  V30 44 H -4.491080 -0.800942 0.188986 0
M  V30 45 H -5.645574 -2.930451 0.199382 0
M  V30 46 H -4.066242 -3.773609 0.629902 0
M  V30 47 H -4.344246 -1.897534 -1.602154 0
M  V30 48 H -2.333537 -3.216803 -2.278346 0
M  V30 49 H -2.584471 -4.121451 -0.757597 0
M  V30 50 H 0.103150 -0.764542 0.578073 0
M  V30 51 H 1.298420 -2.008380 1.767275 0
M  V30 END ATOM
M  V30 BEGIN BOND
M  V30 1 1 1 2
M  V30 2 2 2 3
M  V30 3 1 2 4
M  V30 4 2 4 5
M  V30 5 1 5 6
M  V30 6 2 6 7
M  V30 7 1 7 8
M  V30 8 1 8 9
M  V30 9 2 9 10
M  V30 10 1 10 11
M  V30 11 1 11 12
M  V30 12 1 12 13
M  V30 13 2 12 14
M  V30 14 2 11 15
M  V30 15 1 15 16
M  V30 16 2 16 17
M  V30 17 1 17 18
M  V30 18 2 18 19
M  V30 19 1 19 20
M  V30 20 1 20 21
M  V30 21 1 21 22
M  V30 22 1 22 23
M  V30 23 1 23 24
M  V30 24 1 24 25
M  V30 25 1 25 26
M  V30 26 1 19 27
M  V30 27 2 27 28
M  V30 28 2 8 29
M  V30 29 1 29 4
M  V30 30 1 28 9
M  V30 31 1 27 15
M  V30 32 1 26 21
M  V30 33 1 1 30
M  V30 34 1 1 31
M  V30 35 1 5 32
M  V30 36 1 6 33
M  V30 37 1 7 34
M  V30 38 1 10 35
M  V30 39 1 13 36
M  V30 40 1 13 37
M  V30 41 1 17 38
M  V30 42 1 20 39
M  V30 43 1 21 40 CFG=1
M  V30 44 1 22 41
M  V30 45 1 22 42
M  V30 46 1 23 43
M  V30 47 1 23 44
M  V30 48 1 24 45
M  V30 49 1 24 46
M  V30 50 1 25 47
M  V30 51 1 26 48
M  V30 52 1 26 49
M  V30 53 1 28 50
M  V30 54 1 29 51
M  V30 END BOND
M  V30 END CTAB
M  END
>  <Dataset>  (733) 
ChEMBL_Kinases

>  <Ligand_Instance>  (733) 
nan

>  <PDB_ID>  (733) 
nan

>  <Standardized_SMILES>  (733) 
NC(=O)c1cccc(-c2cc(C(N)=O)c3ncnc(N[C@H]4CCCNC4)c3c2)c1

>  <Name>  (733) 
nan

>  <Pocket>  (733) 
nan

>  <ATP_Site>  (733) 
nan

>  <Peripheral>  (733) 
nan

>  <Num_H_Atoms_ProtBoundConf>  (733) 
nan

>  <Num_Resolved_Atoms>  (733) 
nan

>  <Num_Not_Resolved_Atoms>  (733) 
nan

$$$$
CHEMBL3125732
     RDKit          3D

  0  0  0  0  0  0  0  0  0  0999 V3000
M  V30 BEGIN CTAB
M  V30 COUNTS 39 42 0 0 0
M  V30 BEGIN ATOM
M  V30 1 C 3.061325 -7.475259 3.867867 0
M  V30 2 O 2.443427 -6.343782 4.446752 0
M  V30 3 C 2.109196 -5.288754 3.598850 0
M  V30 4 C 2.331112 -5.252225 2.234814 0
M  V30 5 C 1.949277 -4.137828 1.503062 0
M  V30 6 C 1.349864 -3.047290 2.077253 0
M  V30 7 C 0.981258 -1.917493 1.228701 0
M  V30 8 N 0.388875 -0.757458 1.556444 0
M  V30 9 C 0.211300 0.040511 0.486527 0
M  V30 10 C -0.332428 1.297576 0.285528 0
M  V30 11 C -0.332809 1.795034 -1.006362 0
M  V30 12 C -0.895324 3.111988 -1.287103 0
M  V30 13 C -0.372158 3.911760 -2.334287 0
M  V30 14 S -1.394865 5.439780 -2.293872 0
M  V30 15 C -2.407306 4.889694 -0.914705 0
M  V30 16 C -3.491239 5.652562 -0.316707 0
M  V30 17 N -3.773093 6.933775 -0.860871 0
M  V30 18 O -4.280387 5.412754 0.632965 0
M  V30 19 C -1.939714 3.678932 -0.600680 0
M  V30 20 C 0.196026 1.043432 -2.035286 0
M  V30 21 N 0.716794 -0.174778 -1.805636 0
M  V30 22 C 0.747079 -0.718855 -0.561662 0
M  V30 23 N 1.207298 -1.897366 -0.096960 0
M  V30 24 C 1.120048 -3.065461 3.438738 0
M  V30 25 C 1.498073 -4.172986 4.174618 0
M  V30 26 H 3.120570 -8.327042 4.574076 0
M  V30 27 H 4.091734 -7.155066 3.575966 0
M  V30 28 H 2.562580 -7.795603 2.932166 0
M  V30 29 H 2.804019 -6.117140 1.793919 0
M  V30 30 H 2.158773 -4.193162 0.449754 0
M  V30 31 H -0.735625 1.851449 1.122374 0
M  V30 32 H 0.482078 3.601355 -2.994501 0
M  V30 33 H -3.812197 7.922546 -1.121436 0
M  V30 34 H -4.556412 7.010675 -1.576572 0
M  V30 35 H -2.422345 3.150581 0.230157 0
M  V30 36 H 0.226341 1.373977 -3.067052 0
M  V30 37 H 1.649130 -2.600369 -0.760140 0
M  V30 38 H 0.643252 -2.207009 3.919870 0
M  V30 39 H 1.283438 -4.114259 5.249546 0
M  V30 END ATOM
M  V30 BEGIN BOND
M  V30 1 1 1 2
M  V30 2 1 2 3
M  V30 3 2 3 4
M  V30 4 1 4 5
M  V30 5 2 5 6
M  V30 6 1 6 7
M  V30 7 2 7 8
M  V30 8 1 8 9
M  V30 9 2 9 10
M  V30 10 1 10 11
M  V30 11 1 11 12
M  V30 12 2 12 13
M  V30 13 1 13 14
M  V30 14 1 14 15
M  V30 15 1 15 16
M  V30 16 1 16 17
M  V30 17 2 16 18
M  V30 18 2 15 19
M  V30 19 2 11 20
M  V30 20 1 20 21
M  V30 21 2 21 22
M  V30 22 1 22 23
M  V30 23 1 6 24
M  V30 24 2 24 25
M  V30 25 1 25 3
M  V30 26 1 23 7
M  V30 27 1 22 9
M  V30 28 1 19 12
M  V30 29 1 1 26
M  V30 30 1 1 27
M  V30 31 1 1 28
M  V30 32 1 4 29
M  V30 33 1 5 30
M  V30 34 1 10 31
M  V30 35 1 13 32
M  V30 36 1 17 33
M  V30 37 1 17 34
M  V30 38 1 19 35
M  V30 39 1 20 36
M  V30 40 1 23 37
M  V30 41 1 24 38
M  V30 42 1 25 39
M  V30 END BOND
M  V30 END CTAB
M  END
>  <Dataset>  (734) 
ChEMBL_Kinases

>  <Ligand_Instance>  (734) 
nan

>  <PDB_ID>  (734) 
nan

>  <Standardized_SMILES>  (734) 
COc1ccc(-c2nc3cc(-c4csc(C(N)=O)c4)cnc3[nH]2)cc1

>  <Name>  (734) 
nan

>  <Pocket>  (734) 
nan

>  <ATP_Site>  (734) 
nan

>  <Peripheral>  (734) 
nan

>  <Num_H_Atoms_ProtBoundConf>  (734) 
nan

>  <Num_Resolved_Atoms>  (734) 
nan

>  <Num_Not_Resolved_Atoms>  (734) 
nan

$$$$
CHEMBL4436188
     RDKit          3D

  0  0  0  0  0  0  0  0  0  0999 V3000
M  V30 BEGIN CTAB
M  V30 COUNTS 74 79 0 0 0
M  V30 BEGIN ATOM
M  V30 1 C 3.249814 -3.297359 3.357904 0
M  V30 2 C 2.710173 -2.652229 2.108138 0 CFG=2
M  V30 3 C 3.830281 -2.268386 1.214136 0
M  V30 4 C 5.146231 -2.698983 1.424965 0
M  V30 5 C 6.103957 -2.278750 0.517265 0
M  V30 6 N 5.858917 -1.492542 -0.543204 0
M  V30 7 C 4.595364 -1.042495 -0.797817 0
M  V30 8 N 4.296268 -0.226339 -1.925521 0
M  V30 9 C 2.944574 0.175105 -1.996947 0
M  V30 10 N 2.595512 1.474997 -1.779058 0
M  V30 11 C 1.262981 1.619790 -1.872813 0
M  V30 12 C 0.339454 2.634764 -1.758896 0
M  V30 13 C -1.027897 2.416380 -1.921058 0
M  V30 14 C -1.455052 1.119837 -2.207280 0
M  V30 15 C -2.879628 0.767048 -2.403253 0
M  V30 16 C -3.978581 1.417633 -2.918065 0
M  V30 17 N -5.039095 0.591102 -2.823137 0
M  V30 18 N -4.679384 -0.563586 -2.270643 0
M  V30 19 C -5.482094 -1.718074 -1.978464 0
M  V30 20 C -5.555737 -2.737089 -3.066930 0
M  V30 21 C -4.245738 -3.349787 -3.485115 0
M  V30 22 C -4.491581 -4.506783 -2.523826 0
M  V30 23 C -5.969880 -4.131058 -2.575524 0
M  V30 24 C -3.365122 -0.486203 -2.002968 0
M  V30 25 C -0.514614 0.086409 -2.323723 0
M  V30 26 C 0.830400 0.343530 -2.156603 0
M  V30 27 N 1.836732 -0.546329 -2.236761 0
M  V30 28 C 3.650488 -1.466642 0.111533 0
M  V30 29 N 1.886304 -1.529306 2.341813 0
M  V30 30 C 0.704422 -1.797844 3.124919 0
M  V30 31 C -0.286569 -0.675065 2.898586 0
M  V30 32 N 0.348811 0.629401 2.906601 0
M  V30 33 C -0.433172 1.662604 3.529583 0
M  V30 34 O -1.494555 1.101993 3.902918 0
M  V30 35 C 0.096476 3.070083 3.615233 0
M  V30 36 C -0.932164 3.946437 4.314894 0
M  V30 37 F -2.136575 3.992459 3.666079 0
M  V30 38 F -0.346663 5.189609 4.439804 0
M  V30 39 F -1.086656 3.470231 5.614410 0
M  V30 40 C 1.662127 0.796208 2.314529 0
M  V30 41 C 2.499366 -0.347780 2.844335 0
M  V30 42 H 3.562773 -4.332513 3.140349 0
M  V30 43 H 2.496936 -3.296064 4.174685 0
M  V30 44 H 4.136750 -2.771485 3.764596 0
M  V30 45 H 2.120647 -3.417862 1.557831 0
M  V30 46 H 5.380587 -3.335167 2.266986 0
M  V30 47 H 7.108047 -2.643341 0.726787 0
M  V30 48 H 5.105238 -0.015648 -2.572232 0
M  V30 49 H 0.695429 3.627760 -1.535801 0
M  V30 50 H -1.766414 3.195380 -1.835145 0
M  V30 51 H -3.864982 2.425645 -3.303075 0
M  V30 52 H -5.115729 -2.257880 -1.059706 0
M  V30 53 H -6.533448 -1.422316 -1.702837 0
M  V30 54 H -6.187746 -2.463925 -3.930343 0
M  V30 55 H -4.235502 -3.744993 -4.527509 0
M  V30 56 H -3.332899 -2.783867 -3.305370 0
M  V30 57 H -4.048274 -4.334424 -1.537062 0
M  V30 58 H -4.302208 -5.507484 -2.981779 0
M  V30 59 H -6.590875 -4.709954 -3.262482 0
M  V30 60 H -6.374877 -4.035712 -1.527112 0
M  V30 61 H -2.763384 -1.284872 -1.538165 0
M  V30 62 H -0.877843 -0.891706 -2.544887 0
M  V30 63 H 1.802666 -1.567305 -2.436084 0
M  V30 64 H 2.624526 -1.134300 -0.045638 0
M  V30 65 H 0.229464 -2.732083 2.752111 0
M  V30 66 H 0.871681 -1.900024 4.203058 0
M  V30 67 H -0.704719 -0.784672 1.867880 0
M  V30 68 H -1.136335 -0.760015 3.578240 0
M  V30 69 H 0.284239 3.411176 2.581753 0
M  V30 70 H 1.009322 3.136210 4.242023 0
M  V30 71 H 1.572844 0.618824 1.208449 0
M  V30 72 H 2.086440 1.789813 2.478453 0
M  V30 73 H 3.569569 -0.222201 2.649114 0
M  V30 74 H 2.366394 -0.363194 3.964338 0
M  V30 END ATOM
M  V30 BEGIN BOND
M  V30 1 1 1 2
M  V30 2 1 2 3
M  V30 3 2 3 4
M  V30 4 1 4 5
M  V30 5 2 5 6
M  V30 6 1 6 7
M  V30 7 1 7 8
M  V30 8 1 8 9
M  V30 9 2 9 10
M  V30 10 1 10 11
M  V30 11 2 11 12
M  V30 12 1 12 13
M  V30 13 2 13 14
M  V30 14 1 14 15
M  V30 15 1 15 16
M  V30 16 2 16 17
M  V30 17 1 17 18
M  V30 18 1 18 19
M  V30 19 1 19 20
M  V30 20 1 20 21
M  V30 21 1 21 22
M  V30 22 1 22 23
M  V30 23 1 18 24
M  V30 24 1 14 25
M  V30 25 2 25 26
M  V30 26 1 26 27
M  V30 27 2 7 28
M  V30 28 1 2 29
M  V30 29 1 29 30
M  V30 30 1 30 31
M  V30 31 1 31 32
M  V30 32 1 32 33
M  V30 33 2 33 34
M  V30 34 1 33 35
M  V30 35 1 35 36
M  V30 36 1 36 37
M  V30 37 1 36 38
M  V30 38 1 36 39
M  V30 39 1 32 40
M  V30 40 1 40 41
M  V30 41 1 28 3
M  V30 42 1 41 29
M  V30 43 1 27 9
M  V30 44 1 26 11
M  V30 45 2 24 15
M  V30 46 1 23 20
M  V30 47 1 1 42
M  V30 48 1 1 43
M  V30 49 1 1 44
M  V30 50 1 2 45 CFG=3
M  V30 51 1 4 46
M  V30 52 1 5 47
M  V30 53 1 8 48
M  V30 54 1 12 49
M  V30 55 1 13 50
M  V30 56 1 16 51
M  V30 57 1 19 52
M  V30 58 1 19 53
M  V30 59 1 20 54
M  V30 60 1 21 55
M  V30 61 1 21 56
M  V30 62 1 22 57
M  V30 63 1 22 58
M  V30 64 1 23 59
M  V30 65 1 23 60
M  V30 66 1 24 61
M  V30 67 1 25 62
M  V30 68 1 27 63
M  V30 69 1 28 64
M  V30 70 1 30 65
M  V30 71 1 30 66
M  V30 72 1 31 67
M  V30 73 1 31 68
M  V30 74 1 35 69
M  V30 75 1 35 70
M  V30 76 1 40 71
M  V30 77 1 40 72
M  V30 78 1 41 73
M  V30 79 1 41 74
M  V30 END BOND
M  V30 END CTAB
M  END
>  <Dataset>  (735) 
ChEMBL_Kinases

>  <Ligand_Instance>  (735) 
nan

>  <PDB_ID>  (735) 
nan

>  <Standardized_SMILES>  (735) 
C[C@H](c1ccnc(Nc2nc3ccc(-c4cnn(CC5CCC5)c4)cc3[nH]2)c1)N1CCN(C(=O)CC(F)(F)F)CC1

>  <Name>  (735) 
nan

>  <Pocket>  (735) 
nan

>  <ATP_Site>  (735) 
nan

>  <Peripheral>  (735) 
nan

>  <Num_H_Atoms_ProtBoundConf>  (735) 
nan

>  <Num_Resolved_Atoms>  (735) 
nan

>  <Num_Not_Resolved_Atoms>  (735) 
nan

$$$$
CHEMBL255465
     RDKit          3D

  0  0  0  0  0  0  0  0  0  0999 V3000
M  V30 BEGIN CTAB
M  V30 COUNTS 29 31 0 0 0
M  V30 BEGIN ATOM
M  V30 1 N 2.051763 -3.975229 -1.632260 0
M  V30 2 C 1.575418 -3.351730 -0.445573 0
M  V30 3 N 1.297389 -2.126408 -0.361577 0
M  V30 4 C 0.842856 -1.755428 0.929093 0
M  V30 5 C 0.431768 -0.614796 1.499733 0
M  V30 6 C 0.004988 -0.506542 2.889690 0
M  V30 7 C -1.505609 -0.319693 2.870746 0
M  V30 8 N -1.857392 1.061953 2.494138 0
M  V30 9 C -1.516822 1.867155 1.350275 0
M  V30 10 O -2.174313 2.892180 1.072588 0
M  V30 11 C -0.397196 1.573893 0.423447 0
M  V30 12 N -0.020278 2.306672 -0.635142 0
M  V30 13 C 1.052133 1.701042 -1.226664 0
M  V30 14 C 1.406227 0.528245 -0.546483 0
M  V30 15 C 0.473572 0.472743 0.490803 0
M  V30 16 C 0.882625 -3.007391 1.676711 0
M  V30 17 O 0.588590 -3.276721 2.868454 0
M  V30 18 N 1.351050 -4.017530 0.790728 0
M  V30 19 H 2.012979 -3.524327 -2.565774 0
M  V30 20 H 2.012352 -3.522738 -2.566191 0
M  V30 21 H 0.357900 0.509299 3.276732 0
M  V30 22 H 0.391924 -1.184784 3.622821 0
M  V30 23 H -1.972204 -1.038234 2.167013 0
M  V30 24 H -1.856709 -0.494289 3.899757 0
M  V30 25 H -2.479782 1.593983 3.173920 0
M  V30 26 H -0.476640 3.180942 -0.938062 0
M  V30 27 H 1.524813 2.130345 -2.113968 0
M  V30 28 H 2.217847 -0.128555 -0.798517 0
M  V30 29 H 1.503645 -5.026458 0.982255 0
M  V30 END ATOM
M  V30 BEGIN BOND
M  V30 1 1 1 2
M  V30 2 2 2 3
M  V30 3 1 3 4
M  V30 4 2 4 5
M  V30 5 1 5 6
M  V30 6 1 6 7
M  V30 7 1 7 8
M  V30 8 1 8 9
M  V30 9 2 9 10
M  V30 10 1 9 11
M  V30 11 1 11 12
M  V30 12 1 12 13
M  V30 13 2 13 14
M  V30 14 1 14 15
M  V30 15 1 4 16
M  V30 16 2 16 17
M  V30 17 1 16 18
M  V30 18 1 18 2
M  V30 19 1 15 5
M  V30 20 2 15 11
M  V30 21 1 1 19
M  V30 22 1 1 20
M  V30 23 1 6 21
M  V30 24 1 6 22
M  V30 25 1 7 23
M  V30 26 1 7 24
M  V30 27 1 8 25
M  V30 28 1 12 26
M  V30 29 1 13 27
M  V30 30 1 14 28
M  V30 31 1 18 29
M  V30 END BOND
M  V30 END CTAB
M  END
>  <Dataset>  (736) 
ChEMBL_Kinases

>  <Ligand_Instance>  (736) 
nan

>  <PDB_ID>  (736) 
nan

>  <Standardized_SMILES>  (736) 
NC1=N/C(=C2/CCNC(=O)c3[nH]ccc32)C(=O)N1

>  <Name>  (736) 
DEBROMOHYMENIALDISINE

>  <Pocket>  (736) 
nan

>  <ATP_Site>  (736) 
nan

>  <Peripheral>  (736) 
nan

>  <Num_H_Atoms_ProtBoundConf>  (736) 
nan

>  <Num_Resolved_Atoms>  (736) 
nan

>  <Num_Not_Resolved_Atoms>  (736) 
nan

$$$$
CHEMBL3685318
     RDKit          3D

  0  0  0  0  0  0  0  0  0  0999 V3000
M  V30 BEGIN CTAB
M  V30 COUNTS 53 56 0 0 0
M  V30 BEGIN ATOM
M  V30 1 N 2.823819 -2.113600 5.246410 0
M  V30 2 C 2.117374 -2.846354 4.228428 0
M  V30 3 O 2.186957 -4.098309 4.265426 0
M  V30 4 C 1.355387 -2.149626 3.201195 0
M  V30 5 C 1.289392 -0.773078 3.173509 0
M  V30 6 C 0.562539 -0.165546 2.190596 0
M  V30 7 C 0.510762 1.286531 2.185285 0
M  V30 8 C -0.128378 2.062048 1.332595 0
M  V30 9 C -0.335563 3.504610 1.110358 0
M  V30 10 C 0.375000 4.291424 2.145988 0
M  V30 11 C 1.269744 5.337386 1.596767 0
M  V30 12 N 1.980567 6.128078 2.563525 0
M  V30 13 O 1.303477 5.412509 0.326490 0
M  V30 14 C 1.075399 3.384522 3.076352 0
M  V30 15 C 1.202772 2.077636 3.188822 0
M  V30 16 C -0.073006 -0.965046 1.269139 0
M  V30 17 C -0.033630 -2.337195 1.259892 0
M  V30 18 C -0.710189 -3.037467 0.285438 0
M  V30 19 N -1.482521 -2.431957 -0.755811 0
M  V30 20 C -2.117228 -3.323509 -1.691771 0 CFG=1
M  V30 21 C -2.899471 -2.482821 -2.676676 0
M  V30 22 C -2.914328 -3.068713 -4.055163 0
M  V30 23 C -1.480900 -2.979930 -4.573994 0
M  V30 24 N -0.537832 -3.436825 -3.581405 0
M  V30 25 C -1.157106 -4.150820 -2.508124 0
M  V30 26 N -0.589065 -4.368647 0.391433 0
M  V30 27 C 0.126194 -4.962928 1.359025 0
M  V30 28 N 0.779255 -4.257069 2.301055 0
M  V30 29 C 0.702051 -2.913836 2.256576 0
M  V30 30 H 2.323553 -1.977012 6.174654 0
M  V30 31 H 3.734470 -1.647284 5.355668 0
M  V30 32 H 1.842725 -0.302099 3.965754 0
M  V30 33 H -0.689826 1.555741 0.531921 0
M  V30 34 H 0.066282 3.764833 0.099368 0
M  V30 35 H -1.428572 3.743987 1.137598 0
M  V30 36 H -0.395357 4.841780 2.764668 0
M  V30 37 H 3.004827 6.084821 2.341896 0
M  V30 38 H 1.426924 6.616048 3.317576 0
M  V30 39 H 1.584242 3.991715 3.815301 0
M  V30 40 H 1.790332 1.662793 3.986543 0
M  V30 41 H -0.630053 -0.435827 0.518091 0
M  V30 42 H -1.608239 -1.407384 -0.871773 0
M  V30 43 H -2.861036 -3.956744 -1.166691 0
M  V30 44 H -3.914626 -2.235717 -2.298331 0
M  V30 45 H -2.379517 -1.485356 -2.750677 0
M  V30 46 H -3.310139 -4.100516 -4.063381 0
M  V30 47 H -3.600451 -2.457897 -4.661282 0
M  V30 48 H -1.291228 -1.903374 -4.764699 0
M  V30 49 H -1.370712 -3.548676 -5.494397 0
M  V30 50 H 0.182466 -2.754779 -3.312031 0
M  V30 51 H -0.402412 -4.692559 -1.947284 0
M  V30 52 H -1.792110 -4.945901 -2.998091 0
M  V30 53 H 0.103049 -6.046042 1.275841 0
M  V30 END ATOM
M  V30 BEGIN BOND
M  V30 1 1 1 2
M  V30 2 2 2 3
M  V30 3 1 2 4
M  V30 4 2 4 5
M  V30 5 1 5 6
M  V30 6 1 6 7
M  V30 7 2 7 8
M  V30 8 1 8 9
M  V30 9 1 9 10
M  V30 10 1 10 11
M  V30 11 1 11 12
M  V30 12 2 11 13
M  V30 13 1 10 14
M  V30 14 2 14 15
M  V30 15 2 6 16
M  V30 16 1 16 17
M  V30 17 2 17 18
M  V30 18 1 18 19
M  V30 19 1 19 20
M  V30 20 1 20 21
M  V30 21 1 21 22
M  V30 22 1 22 23
M  V30 23 1 23 24
M  V30 24 1 24 25
M  V30 25 1 18 26
M  V30 26 2 26 27
M  V30 27 1 27 28
M  V30 28 2 28 29
M  V30 29 1 29 4
M  V30 30 1 15 7
M  V30 31 1 29 17
M  V30 32 1 25 20
M  V30 33 1 1 30
M  V30 34 1 1 31
M  V30 35 1 5 32
M  V30 36 1 8 33
M  V30 37 1 9 34
M  V30 38 1 9 35
M  V30 39 1 10 36
M  V30 40 1 12 37
M  V30 41 1 12 38
M  V30 42 1 14 39
M  V30 43 1 15 40
M  V30 44 1 16 41
M  V30 45 1 19 42
M  V30 46 1 20 43 CFG=1
M  V30 47 1 21 44
M  V30 48 1 21 45
M  V30 49 1 22 46
M  V30 50 1 22 47
M  V30 51 1 23 48
M  V30 52 1 23 49
M  V30 53 1 24 50
M  V30 54 1 25 51
M  V30 55 1 25 52
M  V30 56 1 27 53
M  V30 END BOND
M  V30 END CTAB
M  END
>  <Dataset>  (737) 
ChEMBL_Kinases

>  <Ligand_Instance>  (737) 
nan

>  <PDB_ID>  (737) 
nan

>  <Standardized_SMILES>  (737) 
NC(=O)c1cc(C2=CCC(C(N)=O)C=C2)cc2c(N[C@H]3CCCNC3)ncnc12

>  <Name>  (737) 
nan

>  <Pocket>  (737) 
nan

>  <ATP_Site>  (737) 
nan

>  <Peripheral>  (737) 
nan

>  <Num_H_Atoms_ProtBoundConf>  (737) 
nan

>  <Num_Resolved_Atoms>  (737) 
nan

>  <Num_Not_Resolved_Atoms>  (737) 
nan

$$$$
CHEMBL3685317
     RDKit          3D

  0  0  0  0  0  0  0  0  0  0999 V3000
M  V30 BEGIN CTAB
M  V30 COUNTS 53 56 0 0 0
M  V30 BEGIN ATOM
M  V30 1 C 2.982286 -4.093280 5.545295 0
M  V30 2 C 3.649486 -2.819880 5.009133 0
M  V30 3 C 3.311895 -1.731439 6.035191 0
M  V30 4 N 2.940223 -2.483019 3.776784 0
M  V30 5 C 2.783430 -1.238048 3.276673 0
M  V30 6 C 2.060082 -1.331194 2.105493 0
M  V30 7 C 1.591939 -0.337126 1.141747 0
M  V30 8 C 2.349761 0.815512 0.918905 0
M  V30 9 C 1.884667 1.735516 0.005692 0
M  V30 10 C 2.630131 2.964287 -0.273983 0
M  V30 11 N 3.855593 3.200058 0.417654 0
M  V30 12 O 2.229852 3.822942 -1.103622 0
M  V30 13 C 0.691302 1.528519 -0.681012 0
M  V30 14 N 0.202907 2.414000 -1.588569 0
M  V30 15 C -0.957406 2.183962 -2.238026 0
M  V30 16 N -1.649303 1.058367 -1.987139 0
M  V30 17 C -1.257411 0.124702 -1.114692 0
M  V30 18 N -2.046923 -1.036954 -0.906683 0
M  V30 19 C -3.271735 -1.185046 -1.661700 0 CFG=1
M  V30 20 C -4.219455 -0.016081 -1.423624 0
M  V30 21 C -5.604338 -0.519260 -1.826663 0
M  V30 22 C -5.481854 -1.625295 -2.844744 0
M  V30 23 N -4.384758 -1.484086 -3.747401 0
M  V30 24 C -3.090464 -1.326689 -3.132996 0
M  V30 25 C -0.067907 0.396529 -0.472424 0
M  V30 26 C 0.417739 -0.503364 0.441998 0
M  V30 27 C 1.779213 -2.687372 1.907622 0
M  V30 28 N 2.335902 -3.332599 2.948517 0
M  V30 29 H 3.110657 -4.201406 6.638880 0
M  V30 30 H 3.350692 -4.992801 5.003474 0
M  V30 31 H 1.899515 -4.009960 5.294151 0
M  V30 32 H 4.724545 -2.938114 4.884829 0
M  V30 33 H 3.197881 -2.195288 7.038037 0
M  V30 34 H 4.094109 -0.969436 6.123258 0
M  V30 35 H 2.315867 -1.302784 5.773905 0
M  V30 36 H 3.127065 -0.297906 3.658539 0
M  V30 37 H 3.274845 0.990119 1.442092 0
M  V30 38 H 3.902350 3.524255 1.417126 0
M  V30 39 H 4.782760 3.047859 -0.079683 0
M  V30 40 H -1.359697 2.874523 -2.961117 0
M  V30 41 H -1.824842 -1.812093 -0.247456 0
M  V30 42 H -3.844768 -2.079501 -1.326999 0
M  V30 43 H -4.176415 0.380657 -0.411018 0
M  V30 44 H -4.004851 0.792079 -2.176597 0
M  V30 45 H -6.238010 0.306294 -2.200650 0
M  V30 46 H -6.107198 -0.951298 -0.926045 0
M  V30 47 H -5.511420 -2.642131 -2.364210 0
M  V30 48 H -6.404303 -1.571866 -3.462315 0
M  V30 49 H -4.448999 -2.274870 -4.423055 0
M  V30 50 H -2.419082 -2.153480 -3.418362 0
M  V30 51 H -2.665700 -0.393840 -3.540402 0
M  V30 52 H -0.101658 -1.398901 0.662547 0
M  V30 53 H 1.247870 -3.237757 1.141249 0
M  V30 END ATOM
M  V30 BEGIN BOND
M  V30 1 1 1 2
M  V30 2 1 2 3
M  V30 3 1 2 4
M  V30 4 1 4 5
M  V30 5 2 5 6
M  V30 6 1 6 7
M  V30 7 2 7 8
M  V30 8 1 8 9
M  V30 9 1 9 10
M  V30 10 1 10 11
M  V30 11 2 10 12
M  V30 12 2 9 13
M  V30 13 1 13 14
M  V30 14 2 14 15
M  V30 15 1 15 16
M  V30 16 2 16 17
M  V30 17 1 17 18
M  V30 18 1 18 19
M  V30 19 1 19 20
M  V30 20 1 20 21
M  V30 21 1 21 22
M  V30 22 1 22 23
M  V30 23 1 23 24
M  V30 24 1 17 25
M  V30 25 2 25 26
M  V30 26 1 6 27
M  V30 27 2 27 28
M  V30 28 1 28 4
M  V30 29 1 26 7
M  V30 30 1 25 13
M  V30 31 1 24 19
M  V30 32 1 1 29
M  V30 33 1 1 30
M  V30 34 1 1 31
M  V30 35 1 2 32
M  V30 36 1 3 33
M  V30 37 1 3 34
M  V30 38 1 3 35
M  V30 39 1 5 36
M  V30 40 1 8 37
M  V30 41 1 11 38
M  V30 42 1 11 39
M  V30 43 1 15 40
M  V30 44 1 18 41
M  V30 45 1 19 42 CFG=1
M  V30 46 1 20 43
M  V30 47 1 20 44
M  V30 48 1 21 45
M  V30 49 1 21 46
M  V30 50 1 22 47
M  V30 51 1 22 48
M  V30 52 1 23 49
M  V30 53 1 24 50
M  V30 54 1 24 51
M  V30 55 1 26 52
M  V30 56 1 27 53
M  V30 END BOND
M  V30 END CTAB
M  END
>  <Dataset>  (738) 
ChEMBL_Kinases

>  <Ligand_Instance>  (738) 
nan

>  <PDB_ID>  (738) 
nan

>  <Standardized_SMILES>  (738) 
CC(C)n1cc(-c2cc(C(N)=O)c3ncnc(N[C@H]4CCCNC4)c3c2)cn1

>  <Name>  (738) 
nan

>  <Pocket>  (738) 
nan

>  <ATP_Site>  (738) 
nan

>  <Peripheral>  (738) 
nan

>  <Num_H_Atoms_ProtBoundConf>  (738) 
nan

>  <Num_Resolved_Atoms>  (738) 
nan

>  <Num_Not_Resolved_Atoms>  (738) 
nan

$$$$
CHEMBL4129379
     RDKit          3D

  0  0  0  0  0  0  0  0  0  0999 V3000
M  V30 BEGIN CTAB
M  V30 COUNTS 70 74 0 0 0
M  V30 BEGIN ATOM
M  V30 1 C 3.597997 2.095925 2.655957 0
M  V30 2 C 3.103116 0.920069 1.800010 0 CFG=2
M  V30 3 C 4.217282 -0.137833 1.992715 0
M  V30 4 C 5.493862 0.513047 1.608434 0
M  V30 5 O 6.542743 0.779405 2.290289 0
M  V30 6 N 5.502212 0.886973 0.230175 0
M  V30 7 C 4.262099 1.283081 -0.337785 0
M  V30 8 N 4.239151 1.635495 -1.629766 0
M  V30 9 C 3.106862 2.019187 -2.240460 0
M  V30 10 N 2.003008 2.031351 -1.490141 0
M  V30 11 C 1.917590 1.698995 -0.192779 0
M  V30 12 N 0.608435 1.835521 0.377714 0
M  V30 13 C -0.529230 2.032081 -0.521087 0
M  V30 14 C -1.661765 1.095532 -0.342706 0
M  V30 15 C -1.780059 0.405037 0.953220 0
M  V30 16 C -2.428315 -0.912896 0.966798 0
M  V30 17 N -3.752083 -1.051092 1.265175 0
M  V30 18 C -4.073259 -2.383945 1.277785 0
M  V30 19 C -5.463412 -2.768965 1.566691 0
M  V30 20 C -5.729332 -2.953747 3.036687 0
M  V30 21 C -4.848901 -4.019431 3.627780 0
M  V30 22 F -3.506680 -3.735853 3.519563 0
M  V30 23 F -5.055301 -5.243301 2.995874 0
M  V30 24 F -5.172090 -4.177390 4.976866 0
M  V30 25 C -2.871980 -2.984400 0.972234 0
M  V30 26 N -1.857020 -2.074303 0.779501 0
M  V30 27 C -0.683463 -2.751060 0.413278 0
M  V30 28 C -0.722532 -3.219012 -1.011155 0
M  V30 29 N -0.814670 -2.088948 -1.906673 0
M  V30 30 C -0.954214 -2.551743 -3.290786 0
M  V30 31 C -0.743800 -1.224753 -4.027416 0
M  V30 32 C 0.455047 -0.672318 -3.285600 0
M  V30 33 C 0.457757 -1.373704 -1.958122 0
M  V30 34 C -0.622542 0.539630 1.911881 0
M  V30 35 C 0.056664 1.857377 1.706578 0
M  V30 36 C 3.097623 1.311372 0.395074 0
M  V30 37 H 3.219086 1.970208 3.697061 0
M  V30 38 H 3.108702 3.013994 2.259456 0
M  V30 39 H 4.692239 2.153465 2.665253 0
M  V30 40 H 2.223733 0.426343 2.192476 0
M  V30 41 H 4.278890 -0.369918 3.091698 0
M  V30 42 H 4.010139 -1.047473 1.419278 0
M  V30 43 H 6.367389 0.884248 -0.363357 0
M  V30 44 H 3.088731 2.304784 -3.289440 0
M  V30 45 H -0.847800 3.101152 -0.315888 0
M  V30 46 H -0.128703 2.085517 -1.546574 0
M  V30 47 H -2.591080 1.716888 -0.590052 0
M  V30 48 H -1.667059 0.363880 -1.162206 0
M  V30 49 H -2.563689 1.063044 1.512973 0
M  V30 50 H -6.187222 -2.066677 1.095571 0
M  V30 51 H -5.725783 -3.765099 1.099451 0
M  V30 52 H -5.472275 -1.993579 3.535321 0
M  V30 53 H -6.798337 -3.149537 3.238274 0
M  V30 54 H -3.013570 -4.080120 0.946197 0
M  V30 55 H -0.446446 -3.668046 1.024234 0
M  V30 56 H 0.245246 -2.123034 0.456212 0
M  V30 57 H 0.228867 -3.740223 -1.285621 0
M  V30 58 H -1.579083 -3.925537 -1.176891 0
M  V30 59 H -1.947088 -2.954934 -3.509587 0
M  V30 60 H -0.100757 -3.190502 -3.518388 0
M  V30 61 H -1.653648 -0.609675 -3.914715 0
M  V30 62 H -0.490085 -1.383881 -5.101752 0
M  V30 63 H 1.400819 -0.861859 -3.855056 0
M  V30 64 H 0.422513 0.414374 -3.131859 0
M  V30 65 H 0.545061 -0.687927 -1.090885 0
M  V30 66 H 1.267662 -2.154812 -1.966788 0
M  V30 67 H -0.986644 0.566150 2.988882 0
M  V30 68 H -0.004666 -0.341601 1.857439 0
M  V30 69 H 0.751000 2.164647 2.507345 0
M  V30 70 H -0.755172 2.636035 1.764642 0
M  V30 END ATOM
M  V30 BEGIN BOND
M  V30 1 1 1 2
M  V30 2 1 2 3
M  V30 3 1 3 4
M  V30 4 2 4 5
M  V30 5 1 4 6
M  V30 6 1 6 7
M  V30 7 2 7 8
M  V30 8 1 8 9
M  V30 9 2 9 10
M  V30 10 1 10 11
M  V30 11 1 11 12
M  V30 12 1 12 13
M  V30 13 1 13 14
M  V30 14 1 14 15
M  V30 15 1 15 16
M  V30 16 2 16 17
M  V30 17 1 17 18
M  V30 18 1 18 19
M  V30 19 1 19 20
M  V30 20 1 20 21
M  V30 21 1 21 22
M  V30 22 1 21 23
M  V30 23 1 21 24
M  V30 24 2 18 25
M  V30 25 1 25 26
M  V30 26 1 26 27
M  V30 27 1 27 28
M  V30 28 1 28 29
M  V30 29 1 29 30
M  V30 30 1 30 31
M  V30 31 1 31 32
M  V30 32 1 32 33
M  V30 33 1 15 34
M  V30 34 1 34 35
M  V30 35 2 11 36
M  V30 36 1 36 2
M  V30 37 1 36 7
M  V30 38 1 35 12
M  V30 39 1 26 16
M  V30 40 1 33 29
M  V30 41 1 1 37
M  V30 42 1 1 38
M  V30 43 1 1 39
M  V30 44 1 2 40 CFG=1
M  V30 45 1 3 41
M  V30 46 1 3 42
M  V30 47 1 6 43
M  V30 48 1 9 44
M  V30 49 1 13 45
M  V30 50 1 13 46
M  V30 51 1 14 47
M  V30 52 1 14 48
M  V30 53 1 15 49
M  V30 54 1 19 50
M  V30 55 1 19 51
M  V30 56 1 20 52
M  V30 57 1 20 53
M  V30 58 1 25 54
M  V30 59 1 27 55
M  V30 60 1 27 56
M  V30 61 1 28 57
M  V30 62 1 28 58
M  V30 63 1 30 59
M  V30 64 1 30 60
M  V30 65 1 31 61
M  V30 66 1 31 62
M  V30 67 1 32 63
M  V30 68 1 32 64
M  V30 69 1 33 65
M  V30 70 1 33 66
M  V30 71 1 34 67
M  V30 72 1 34 68
M  V30 73 1 35 69
M  V30 74 1 35 70
M  V30 END BOND
M  V30 END CTAB
M  END
>  <Dataset>  (739) 
ChEMBL_Kinases

>  <Ligand_Instance>  (739) 
nan

>  <PDB_ID>  (739) 
nan

>  <Standardized_SMILES>  (739) 
C[C@@H]1CC(=O)Nc2ncnc(N3CCC(c4nc(CCC(F)(F)F)cn4CCN4CCCC4)CC3)c21

>  <Name>  (739) 
nan

>  <Pocket>  (739) 
nan

>  <ATP_Site>  (739) 
nan

>  <Peripheral>  (739) 
nan

>  <Num_H_Atoms_ProtBoundConf>  (739) 
nan

>  <Num_Resolved_Atoms>  (739) 
nan

>  <Num_Not_Resolved_Atoms>  (739) 
nan

$$$$
CHEMBL1939876
     RDKit          3D

  0  0  0  0  0  0  0  0  0  0999 V3000
M  V30 BEGIN CTAB
M  V30 COUNTS 55 58 0 0 0
M  V30 BEGIN ATOM
M  V30 1 C 4.088408 5.980339 4.248685 0
M  V30 2 C 3.338155 6.588685 3.080678 0
M  V30 3 O 2.884478 5.516891 2.282317 0
M  V30 4 C 2.154002 5.664342 1.116623 0
M  V30 5 O 1.991114 6.896206 0.932850 0
M  V30 6 C 1.688011 4.554800 0.296013 0
M  V30 7 C 1.950942 3.242971 0.631753 0
M  V30 8 C 1.336595 2.530071 -0.401721 0
M  V30 9 C 1.283750 1.156440 -0.576834 0
M  V30 10 C 0.631639 0.602697 -1.660009 0
M  V30 11 C 0.614165 -0.859685 -1.783405 0
M  V30 12 C 0.329170 -1.599397 -0.645330 0
M  V30 13 C 0.364828 -2.940402 -0.984487 0
M  V30 14 C 0.134087 -4.136717 -0.143909 0
M  V30 15 O 0.211011 -5.277699 -0.641700 0
M  V30 16 N -0.169924 -3.894072 1.222324 0
M  V30 17 C -0.425823 -4.952508 2.188823 0
M  V30 18 C -1.791229 -5.498965 2.002589 0
M  V30 19 C -2.813230 -4.864098 2.708191 0
M  V30 20 C -4.150824 -5.257616 2.644936 0
M  V30 21 C -4.496498 -6.328443 1.847478 0
M  V30 22 C -5.897313 -6.710231 1.805936 0
M  V30 23 O -6.728436 -6.064276 2.484419 0
M  V30 24 O -6.397892 -7.759837 1.055638 0
M  V30 25 C -3.501163 -6.961635 1.148477 0
M  V30 26 C -2.186792 -6.561878 1.221403 0
M  V30 27 N 0.665631 -2.964161 -2.295802 0
M  V30 28 N 0.815757 -1.741866 -2.781167 0
M  V30 29 C 1.136377 -1.246465 -4.105184 0
M  V30 30 C 0.030580 1.462546 -2.567956 0
M  V30 31 C 0.088998 2.836717 -2.384067 0
M  V30 32 C 0.743506 3.398778 -1.296539 0
M  V30 33 N 0.976988 4.656426 -0.838756 0
M  V30 34 H 5.176396 5.953253 4.029661 0
M  V30 35 H 3.879673 6.560484 5.180312 0
M  V30 36 H 3.791230 4.936662 4.466617 0
M  V30 37 H 2.510803 7.192541 3.505301 0
M  V30 38 H 4.063375 7.184424 2.502688 0
M  V30 39 H 2.500059 2.865553 1.488475 0
M  V30 40 H 1.769473 0.502354 0.160011 0
M  V30 41 H 0.102757 -1.277691 0.382770 0
M  V30 42 H -0.219530 -2.895747 1.581550 0
M  V30 43 H 0.335237 -5.758963 2.115225 0
M  V30 44 H -0.338693 -4.562010 3.220630 0
M  V30 45 H -2.599941 -4.027382 3.342245 0
M  V30 46 H -4.892959 -4.723025 3.216561 0
M  V30 47 H -7.337733 -8.110228 1.229846 0
M  V30 48 H -3.761578 -7.808339 0.515261 0
M  V30 49 H -1.392263 -7.052250 0.678783 0
M  V30 50 H 1.586881 -2.064071 -4.731246 0
M  V30 51 H 0.208300 -0.944204 -4.666796 0
M  V30 52 H 1.883497 -0.432267 -4.092845 0
M  V30 53 H -0.476933 1.022689 -3.412382 0
M  V30 54 H -0.382191 3.505017 -3.095172 0
M  V30 55 H 0.640156 5.524307 -1.322517 0
M  V30 END ATOM
M  V30 BEGIN BOND
M  V30 1 1 1 2
M  V30 2 1 2 3
M  V30 3 1 3 4
M  V30 4 2 4 5
M  V30 5 1 4 6
M  V30 6 2 6 7
M  V30 7 1 7 8
M  V30 8 2 8 9
M  V30 9 1 9 10
M  V30 10 1 10 11
M  V30 11 2 11 12
M  V30 12 1 12 13
M  V30 13 1 13 14
M  V30 14 2 14 15
M  V30 15 1 14 16
M  V30 16 1 16 17
M  V30 17 1 17 18
M  V30 18 2 18 19
M  V30 19 1 19 20
M  V30 20 2 20 21
M  V30 21 1 21 22
M  V30 22 2 22 23
M  V30 23 1 22 24
M  V30 24 1 21 25
M  V30 25 2 25 26
M  V30 26 2 13 27
M  V30 27 1 27 28
M  V30 28 1 28 29
M  V30 29 2 10 30
M  V30 30 1 30 31
M  V30 31 2 31 32
M  V30 32 1 32 33
M  V30 33 1 33 6
M  V30 34 1 32 8
M  V30 35 1 28 11
M  V30 36 1 26 18
M  V30 37 1 1 34
M  V30 38 1 1 35
M  V30 39 1 1 36
M  V30 40 1 2 37
M  V30 41 1 2 38
M  V30 42 1 7 39
M  V30 43 1 9 40
M  V30 44 1 12 41
M  V30 45 1 16 42
M  V30 46 1 17 43
M  V30 47 1 17 44
M  V30 48 1 19 45
M  V30 49 1 20 46
M  V30 50 1 24 47
M  V30 51 1 25 48
M  V30 52 1 26 49
M  V30 53 1 29 50
M  V30 54 1 29 51
M  V30 55 1 29 52
M  V30 56 1 30 53
M  V30 57 1 31 54
M  V30 58 1 33 55
M  V30 END BOND
M  V30 END CTAB
M  END
>  <Dataset>  (740) 
ChEMBL_Kinases

>  <Ligand_Instance>  (740) 
nan

>  <PDB_ID>  (740) 
nan

>  <Standardized_SMILES>  (740) 
CCOC(=O)c1cc2cc(-c3cc(C(=O)NCc4ccc(C(=O)O)cc4)nn3C)ccc2[nH]1

>  <Name>  (740) 
BI 4394

>  <Pocket>  (740) 
nan

>  <ATP_Site>  (740) 
nan

>  <Peripheral>  (740) 
nan

>  <Num_H_Atoms_ProtBoundConf>  (740) 
nan

>  <Num_Resolved_Atoms>  (740) 
nan

>  <Num_Not_Resolved_Atoms>  (740) 
nan

$$$$
CHEMBL4793665
     RDKit          3D

  0  0  0  0  0  0  0  0  0  0999 V3000
M  V30 BEGIN CTAB
M  V30 COUNTS 53 56 0 0 0
M  V30 BEGIN ATOM
M  V30 1 C -0.269344 -4.187195 2.762257 0
M  V30 2 C 0.765541 -3.084967 2.963003 0
M  V30 3 N 2.075531 -3.470977 2.470185 0
M  V30 4 C 2.973249 -2.391236 2.695996 0
M  V30 5 C 4.285078 -2.566201 2.023134 0
M  V30 6 C 4.103833 -2.824618 0.566778 0
M  V30 7 C 3.652926 -1.550419 -0.111513 0
M  V30 8 N 3.997725 -0.679490 -0.782562 0
M  V30 9 C 3.302313 0.331183 -1.240806 0
M  V30 10 C 2.010560 0.393416 -0.903683 0
M  V30 11 C 0.992991 1.447340 -1.296070 0
M  V30 12 C 1.368101 2.503191 -2.096053 0
M  V30 13 N 0.362393 3.356057 -2.360655 0
M  V30 14 C -0.877293 3.168407 -1.876457 0
M  V30 15 N -1.874482 4.150298 -2.227818 0
M  V30 16 C -1.249657 2.109214 -1.075098 0
M  V30 17 O -2.559031 2.006554 -0.626240 0
M  V30 18 C -2.857610 0.891813 0.189843 0
M  V30 19 C -4.247603 0.825880 0.637862 0
M  V30 20 C -4.764212 1.378299 1.790273 0
M  V30 21 C -6.104926 1.246434 2.106143 0
M  V30 22 N -6.957070 0.576304 1.305164 0
M  V30 23 C -6.517120 0.019937 0.176975 0
M  V30 24 C -5.181910 0.145312 -0.147808 0
M  V30 25 C -0.248545 1.206423 -0.776511 0
M  V30 26 S 1.834440 -1.066485 0.103608 0
M  V30 27 C 3.202240 -3.974318 0.341176 0
M  V30 28 C 1.940377 -3.957396 1.150011 0
M  V30 29 H -0.211257 -4.981147 3.517506 0
M  V30 30 H -0.294903 -4.563312 1.718962 0
M  V30 31 H -1.259719 -3.679671 2.929666 0
M  V30 32 H 0.784113 -2.874929 4.049456 0
M  V30 33 H 0.379551 -2.186112 2.476008 0
M  V30 34 H 3.118472 -2.360875 3.828270 0
M  V30 35 H 2.479638 -1.403291 2.503301 0
M  V30 36 H 4.955616 -1.695469 2.192370 0
M  V30 37 H 4.740769 -3.503425 2.455407 0
M  V30 38 H 5.098115 -3.108196 0.089349 0
M  V30 39 H 3.789077 1.082423 -1.875047 0
M  V30 40 H 2.387367 2.553238 -2.425947 0
M  V30 41 H -2.476396 4.466325 -1.413437 0
M  V30 42 H -2.606564 4.653237 -1.677344 0
M  V30 43 H -2.222625 0.842847 1.106102 0
M  V30 44 H -2.613364 -0.021232 -0.403267 0
M  V30 45 H -4.066130 1.917259 2.429151 0
M  V30 46 H -6.490138 1.690929 3.021136 0
M  V30 47 H -7.145754 -0.541672 -0.528774 0
M  V30 48 H -4.819366 -0.311991 -1.075508 0
M  V30 49 H -0.486714 0.360473 -0.153635 0
M  V30 50 H 2.873752 -3.933668 -0.728830 0
M  V30 51 H 3.773483 -4.918063 0.440029 0
M  V30 52 H 1.111859 -3.462499 0.597308 0
M  V30 53 H 1.628688 -5.037926 1.234235 0
M  V30 END ATOM
M  V30 BEGIN BOND
M  V30 1 1 1 2
M  V30 2 1 2 3
M  V30 3 1 3 4
M  V30 4 1 4 5
M  V30 5 1 5 6
M  V30 6 1 6 7
M  V30 7 2 7 8
M  V30 8 1 8 9
M  V30 9 2 9 10
M  V30 10 1 10 11
M  V30 11 2 11 12
M  V30 12 1 12 13
M  V30 13 2 13 14
M  V30 14 1 14 15
M  V30 15 1 14 16
M  V30 16 1 16 17
M  V30 17 1 17 18
M  V30 18 1 18 19
M  V30 19 2 19 20
M  V30 20 1 20 21
M  V30 21 2 21 22
M  V30 22 1 22 23
M  V30 23 2 23 24
M  V30 24 2 16 25
M  V30 25 1 10 26
M  V30 26 1 6 27
M  V30 27 1 27 28
M  V30 28 1 28 3
M  V30 29 1 26 7
M  V30 30 1 25 11
M  V30 31 1 24 19
M  V30 32 1 1 29
M  V30 33 1 1 30
M  V30 34 1 1 31
M  V30 35 1 2 32
M  V30 36 1 2 33
M  V30 37 1 4 34
M  V30 38 1 4 35
M  V30 39 1 5 36
M  V30 40 1 5 37
M  V30 41 1 6 38
M  V30 42 1 9 39
M  V30 43 1 12 40
M  V30 44 1 15 41
M  V30 45 1 15 42
M  V30 46 1 18 43
M  V30 47 1 18 44
M  V30 48 1 20 45
M  V30 49 1 21 46
M  V30 50 1 23 47
M  V30 51 1 24 48
M  V30 52 1 25 49
M  V30 53 1 27 50
M  V30 54 1 27 51
M  V30 55 1 28 52
M  V30 56 1 28 53
M  V30 END BOND
M  V30 END CTAB
M  END
>  <Dataset>  (741) 
ChEMBL_Kinases

>  <Ligand_Instance>  (741) 
nan

>  <PDB_ID>  (741) 
nan

>  <Standardized_SMILES>  (741) 
CCN1CCC(c2ncc(-c3cnc(N)c(OCc4ccncc4)c3)s2)CC1

>  <Name>  (741) 
nan

>  <Pocket>  (741) 
nan

>  <ATP_Site>  (741) 
nan

>  <Peripheral>  (741) 
nan

>  <Num_H_Atoms_ProtBoundConf>  (741) 
nan

>  <Num_Resolved_Atoms>  (741) 
nan

>  <Num_Not_Resolved_Atoms>  (741) 
nan

$$$$
CHEMBL1922123
     RDKit          3D

  0  0  0  0  0  0  0  0  0  0999 V3000
M  V30 BEGIN CTAB
M  V30 COUNTS 57 59 0 0 0
M  V30 BEGIN ATOM
M  V30 1 C 0.602208 0.113904 -3.540304 0
M  V30 2 C 0.539395 -1.246930 -2.881490 0
M  V30 3 C 1.588708 -1.353711 -1.764084 0 CFG=1
M  V30 4 N 1.387727 -0.377831 -0.751801 0
M  V30 5 C 0.202136 -0.319447 0.049425 0
M  V30 6 N 0.294390 -0.972583 1.218803 0
M  V30 7 C -0.761730 -0.994129 2.050073 0
M  V30 8 N -0.637517 -1.704962 3.271707 0
M  V30 9 C 0.502890 -2.420100 3.798796 0
M  V30 10 C 1.694691 -1.594005 4.025709 0
M  V30 11 C 2.743419 -1.391181 3.148288 0
M  V30 12 C 3.846495 -0.586008 3.413230 0
M  V30 13 C 3.838250 0.025127 4.650324 0
M  V30 14 N 2.827107 -0.165204 5.507986 0
M  V30 15 C 1.760524 -0.937761 5.263953 0
M  V30 16 C -1.932137 -0.331484 1.670611 0
M  V30 17 N -3.125853 -0.201009 2.320005 0
M  V30 18 C -3.886890 0.549707 1.469640 0
M  V30 19 N -3.180939 0.854126 0.362843 0
M  V30 20 C -3.700959 1.640363 -0.739969 0
M  V30 21 C -3.557813 3.116301 -0.434936 0
M  V30 22 C -5.136870 1.300823 -1.073591 0
M  V30 23 C -1.953419 0.319701 0.453108 0
M  V30 24 N -0.894184 0.335708 -0.371151 0
M  V30 25 C 1.682516 -2.781912 -1.307017 0
M  V30 26 C 2.041322 -3.644975 -2.510356 0
M  V30 27 C 0.473028 -3.352555 -0.670680 0
M  V30 28 O 2.762170 -2.900484 -0.423768 0
M  V30 29 H -0.216927 0.722528 -3.151096 0
M  V30 30 H 1.614024 0.548768 -3.400053 0
M  V30 31 H 0.482889 0.070322 -4.650808 0
M  V30 32 H -0.468881 -1.493638 -2.484851 0
M  V30 33 H 0.754222 -1.988681 -3.677634 0
M  V30 34 H 2.560454 -1.156415 -2.269833 0
M  V30 35 H 2.046789 0.405325 -0.457235 0
M  V30 36 H -1.515177 -1.717409 3.877218 0
M  V30 37 H 0.209964 -3.019334 4.680664 0
M  V30 38 H 0.778971 -3.195750 3.026322 0
M  V30 39 H 2.700884 -1.898446 2.200462 0
M  V30 40 H 4.609599 -0.508587 2.632686 0
M  V30 41 H 4.705292 0.655254 4.852836 0
M  V30 42 H 1.016554 -0.988578 6.074090 0
M  V30 43 H -4.915695 0.801558 1.765645 0
M  V30 44 H -3.098087 1.464258 -1.677407 0
M  V30 45 H -4.447581 3.495601 0.128957 0
M  V30 46 H -3.424550 3.684072 -1.380505 0
M  V30 47 H -2.699040 3.254321 0.244690 0
M  V30 48 H -5.666779 0.984792 -0.160012 0
M  V30 49 H -5.598846 2.168697 -1.545700 0
M  V30 50 H -5.162669 0.438737 -1.782454 0
M  V30 51 H 2.506674 -4.595898 -2.148671 0
M  V30 52 H 2.746845 -3.177138 -3.199754 0
M  V30 53 H 1.095934 -3.931817 -3.055401 0
M  V30 54 H -0.415078 -2.709907 -0.854719 0
M  V30 55 H 0.607367 -3.624398 0.399196 0
M  V30 56 H 0.220658 -4.313929 -1.161956 0
M  V30 57 H 3.015545 -3.867549 -0.338942 0
M  V30 END ATOM
M  V30 BEGIN BOND
M  V30 1 1 1 2
M  V30 2 1 2 3
M  V30 3 1 3 4
M  V30 4 1 4 5
M  V30 5 2 5 6
M  V30 6 1 6 7
M  V30 7 1 7 8
M  V30 8 1 8 9
M  V30 9 1 9 10
M  V30 10 2 10 11
M  V30 11 1 11 12
M  V30 12 2 12 13
M  V30 13 1 13 14
M  V30 14 2 14 15
M  V30 15 2 7 16
M  V30 16 1 16 17
M  V30 17 2 17 18
M  V30 18 1 18 19
M  V30 19 1 19 20
M  V30 20 1 20 21
M  V30 21 1 20 22
M  V30 22 1 19 23
M  V30 23 2 23 24
M  V30 24 1 3 25
M  V30 25 1 25 26
M  V30 26 1 25 27
M  V30 27 1 25 28
M  V30 28 1 24 5
M  V30 29 1 15 10
M  V30 30 1 23 16
M  V30 31 1 1 29
M  V30 32 1 1 30
M  V30 33 1 1 31
M  V30 34 1 2 32
M  V30 35 1 2 33
M  V30 36 1 3 34 CFG=3
M  V30 37 1 4 35
M  V30 38 1 8 36
M  V30 39 1 9 37
M  V30 40 1 9 38
M  V30 41 1 11 39
M  V30 42 1 12 40
M  V30 43 1 13 41
M  V30 44 1 15 42
M  V30 45 1 18 43
M  V30 46 1 20 44
M  V30 47 1 21 45
M  V30 48 1 21 46
M  V30 49 1 21 47
M  V30 50 1 22 48
M  V30 51 1 22 49
M  V30 52 1 22 50
M  V30 53 1 26 51
M  V30 54 1 26 52
M  V30 55 1 26 53
M  V30 56 1 27 54
M  V30 57 1 27 55
M  V30 58 1 27 56
M  V30 59 1 28 57
M  V30 END BOND
M  V30 END CTAB
M  END
>  <Dataset>  (742) 
ChEMBL_Kinases

>  <Ligand_Instance>  (742) 
nan

>  <PDB_ID>  (742) 
nan

>  <Standardized_SMILES>  (742) 
CC[C@@H](Nc1nc(NCc2cccnc2)c2ncn(C(C)C)c2n1)C(C)(C)O

>  <Name>  (742) 
nan

>  <Pocket>  (742) 
nan

>  <ATP_Site>  (742) 
nan

>  <Peripheral>  (742) 
nan

>  <Num_H_Atoms_ProtBoundConf>  (742) 
nan

>  <Num_Resolved_Atoms>  (742) 
nan

>  <Num_Not_Resolved_Atoms>  (742) 
nan

$$$$
CHEMBL4099337
     RDKit          3D

  0  0  0  0  0  0  0  0  0  0999 V3000
M  V30 BEGIN CTAB
M  V30 COUNTS 52 53 0 0 0
M  V30 BEGIN ATOM
M  V30 1 C 4.259880 -3.678663 3.079366 0
M  V30 2 O 3.393129 -4.509064 2.348711 0
M  V30 3 C 2.263187 -4.013678 1.677823 0
M  V30 4 C 1.454761 -4.884820 0.979060 0
M  V30 5 C 0.347665 -4.363990 0.328674 0
M  V30 6 O -0.395065 -5.333537 -0.343552 0
M  V30 7 C 0.004922 -3.026836 0.337259 0
M  V30 8 C 0.828373 -2.173654 1.042069 0
M  V30 9 C 1.916106 -2.681862 1.682202 0
M  V30 10 C 0.620142 -0.696407 1.149966 0
M  V30 11 C 1.178965 -0.006721 2.298819 0
M  V30 12 C 0.811885 1.396787 2.577260 0
M  V30 13 C 0.994453 2.472230 1.594051 0 CFG=2
M  V30 14 O 0.829413 3.731342 2.360713 0
M  V30 15 C -0.055388 2.631679 0.514027 0 CFG=2
M  V30 16 O -1.341992 2.667608 1.029663 0
M  V30 17 C 0.182270 1.883694 -0.686058 0
M  V30 18 O 1.371593 2.035719 -1.018941 0
M  V30 19 C -0.650292 1.034886 -1.527290 0
M  V30 20 C -2.118711 1.225600 -1.490507 0
M  V30 21 C -2.849454 0.070461 -2.181299 0
M  V30 22 C -2.904440 -1.157898 -1.294377 0 CFG=2
M  V30 23 C -3.869404 -0.718944 -0.123999 0
M  V30 24 O -1.752982 -1.480112 -0.608668 0
M  V30 25 C -1.220026 -2.723082 -0.414391 0
M  V30 26 O -1.905520 -3.616790 -0.958690 0
M  V30 27 H 4.944954 -4.347456 3.633693 0
M  V30 28 H 4.894245 -3.074541 2.399359 0
M  V30 29 H 3.731338 -3.002773 3.769489 0
M  V30 30 H 1.723454 -5.930877 0.972698 0
M  V30 31 H -0.234090 -5.512702 -1.312536 0
M  V30 32 H 2.582755 -2.040643 2.243365 0
M  V30 33 H 1.229002 -0.362987 0.221577 0
M  V30 34 H -0.412254 -0.483701 0.924199 0
M  V30 35 H 2.322918 0.020664 2.172168 0
M  V30 36 H 1.101338 -0.571974 3.271446 0
M  V30 37 H 1.447033 1.716344 3.488845 0
M  V30 38 H -0.221718 1.430683 3.057524 0
M  V30 39 H 1.976076 2.539105 1.169783 0
M  V30 40 H 1.658220 3.730012 2.912354 0
M  V30 41 H 0.094556 3.737706 0.196429 0
M  V30 42 H -1.261531 3.062902 1.941154 0
M  V30 43 H -0.381500 -0.016095 -1.423908 0
M  V30 44 H -0.315030 1.241261 -2.628863 0
M  V30 45 H -2.566317 1.330284 -0.509465 0
M  V30 46 H -2.376620 2.168673 -2.045810 0
M  V30 47 H -3.876693 0.403986 -2.382253 0
M  V30 48 H -2.347001 -0.100629 -3.133989 0
M  V30 49 H -3.469426 -1.961521 -1.767736 0
M  V30 50 H -3.278575 -0.187102 0.644639 0
M  V30 51 H -4.707829 -0.140768 -0.536393 0
M  V30 52 H -4.286433 -1.628340 0.354031 0
M  V30 END ATOM
M  V30 BEGIN BOND
M  V30 1 1 1 2
M  V30 2 1 2 3
M  V30 3 2 3 4
M  V30 4 1 4 5
M  V30 5 1 5 6
M  V30 6 2 5 7
M  V30 7 1 7 8
M  V30 8 2 8 9
M  V30 9 1 8 10
M  V30 10 1 10 11
M  V30 11 1 11 12
M  V30 12 1 12 13
M  V30 13 1 13 14
M  V30 14 1 13 15
M  V30 15 1 15 16
M  V30 16 1 15 17
M  V30 17 2 17 18
M  V30 18 1 17 19
M  V30 19 1 19 20
M  V30 20 1 20 21
M  V30 21 1 21 22
M  V30 22 1 22 23
M  V30 23 1 22 24
M  V30 24 1 24 25
M  V30 25 2 25 26
M  V30 26 1 9 3
M  V30 27 1 25 7
M  V30 28 1 1 27
M  V30 29 1 1 28
M  V30 30 1 1 29
M  V30 31 1 4 30
M  V30 32 1 6 31
M  V30 33 1 9 32
M  V30 34 1 10 33
M  V30 35 1 10 34
M  V30 36 1 11 35
M  V30 37 1 11 36
M  V30 38 1 12 37
M  V30 39 1 12 38
M  V30 40 1 13 39 CFG=3
M  V30 41 1 14 40
M  V30 42 1 15 41 CFG=3
M  V30 43 1 16 42
M  V30 44 1 19 43
M  V30 45 1 19 44
M  V30 46 1 20 45
M  V30 47 1 20 46
M  V30 48 1 21 47
M  V30 49 1 21 48
M  V30 50 1 22 49 CFG=3
M  V30 51 1 23 50
M  V30 52 1 23 51
M  V30 53 1 23 52
M  V30 END BOND
M  V30 END CTAB
M  END
>  <Dataset>  (743) 
ChEMBL_Kinases

>  <Ligand_Instance>  (743) 
nan

>  <PDB_ID>  (743) 
nan

>  <Standardized_SMILES>  (743) 
COc1cc(O)c2c(c1)CCC[C@H](O)[C@H](O)C(=O)CCC[C@H](C)OC2=O

>  <Name>  (743) 
nan

>  <Pocket>  (743) 
nan

>  <ATP_Site>  (743) 
nan

>  <Peripheral>  (743) 
nan

>  <Num_H_Atoms_ProtBoundConf>  (743) 
nan

>  <Num_Resolved_Atoms>  (743) 
nan

>  <Num_Not_Resolved_Atoms>  (743) 
nan

$$$$
CHEMBL3797559
     RDKit          3D

  0  0  0  0  0  0  0  0  0  0999 V3000
M  V30 BEGIN CTAB
M  V30 COUNTS 26 28 0 0 0
M  V30 BEGIN ATOM
M  V30 1 N 0.411107 -3.144526 1.392055 0
M  V30 2 C 1.645872 -2.428236 1.425698 0
M  V30 3 N 2.764111 -3.097790 1.773786 0
M  V30 4 C 3.960524 -2.494262 1.828185 0
M  V30 5 C 4.047105 -1.145877 1.517753 0
M  V30 6 C 2.905775 -0.444347 1.158103 0
M  V30 7 C 1.685793 -1.091953 1.110391 0
M  V30 8 C 0.461419 -0.392070 0.737281 0
M  V30 9 N -0.729256 -1.012838 0.688014 0
M  V30 10 C -1.701867 -0.153494 0.318722 0
M  V30 11 C -3.070309 -0.167895 0.093828 0
M  V30 12 C -3.765065 0.960277 -0.293768 0
M  V30 13 C -3.041793 2.124966 -0.453523 0
M  V30 14 C -1.675718 2.218362 -0.248046 0
M  V30 15 C -1.029244 1.050893 0.140959 0
M  V30 16 N 0.290746 0.882436 0.401863 0
M  V30 17 H -0.300770 -3.370467 2.119738 0
M  V30 18 H 0.160028 -3.527938 0.435437 0
M  V30 19 H 4.863586 -3.011021 2.103524 0
M  V30 20 H 4.973582 -0.593341 1.539355 0
M  V30 21 H 2.939421 0.622557 0.906661 0
M  V30 22 H -3.531744 -1.135205 0.249746 0
M  V30 23 H -4.825714 0.878703 -0.451120 0
M  V30 24 H -3.583922 3.008294 -0.756693 0
M  V30 25 H -1.145288 3.146120 -0.382926 0
M  V30 26 H 1.067579 1.581724 0.363122 0
M  V30 END ATOM
M  V30 BEGIN BOND
M  V30 1 1 1 2
M  V30 2 2 2 3
M  V30 3 1 3 4
M  V30 4 2 4 5
M  V30 5 1 5 6
M  V30 6 2 6 7
M  V30 7 1 7 8
M  V30 8 2 8 9
M  V30 9 1 9 10
M  V30 10 2 10 11
M  V30 11 1 11 12
M  V30 12 2 12 13
M  V30 13 1 13 14
M  V30 14 2 14 15
M  V30 15 1 15 16
M  V30 16 1 7 2
M  V30 17 1 16 8
M  V30 18 1 15 10
M  V30 19 1 1 17
M  V30 20 1 1 18
M  V30 21 1 4 19
M  V30 22 1 5 20
M  V30 23 1 6 21
M  V30 24 1 11 22
M  V30 25 1 12 23
M  V30 26 1 13 24
M  V30 27 1 14 25
M  V30 28 1 16 26
M  V30 END BOND
M  V30 END CTAB
M  END
>  <Dataset>  (744) 
ChEMBL_Kinases

>  <Ligand_Instance>  (744) 
nan

>  <PDB_ID>  (744) 
nan

>  <Standardized_SMILES>  (744) 
Nc1ncccc1-c1nc2ccccc2[nH]1

>  <Name>  (744) 
nan

>  <Pocket>  (744) 
nan

>  <ATP_Site>  (744) 
nan

>  <Peripheral>  (744) 
nan

>  <Num_H_Atoms_ProtBoundConf>  (744) 
nan

>  <Num_Resolved_Atoms>  (744) 
nan

>  <Num_Not_Resolved_Atoms>  (744) 
nan

$$$$
CHEMBL5082044
     RDKit          3D

  0  0  0  0  0  0  0  0  0  0999 V3000
M  V30 BEGIN CTAB
M  V30 COUNTS 40 43 0 0 0
M  V30 BEGIN ATOM
M  V30 1 C -1.580308 -4.582423 1.677833 0
M  V30 2 C -1.232500 -3.143216 1.806441 0
M  V30 3 N -0.167882 -2.640587 1.197206 0
M  V30 4 C 0.172626 -1.344377 1.294092 0
M  V30 5 N 1.352925 -0.901195 0.652164 0
M  V30 6 C 2.148515 -1.813216 -0.156095 0
M  V30 7 C 1.428854 -2.316254 -1.347254 0
M  V30 8 C 0.660389 -3.298344 -1.851938 0
M  V30 9 C 0.210899 -3.277020 -3.120781 0
M  V30 10 C 0.585813 -2.192271 -3.865547 0
M  V30 11 S 1.584244 -1.181709 -2.777178 0
M  V30 12 C -0.659772 -0.571983 2.067907 0
M  V30 13 C -0.486341 0.773383 2.291774 0
M  V30 14 C 0.382607 1.864705 1.895761 0
M  V30 15 C 1.029049 2.469371 2.981648 0
M  V30 16 C 1.884467 3.562171 2.880174 0
M  V30 17 N 2.085695 4.049331 1.647305 0
M  V30 18 C 1.508732 3.534405 0.548728 0
M  V30 19 N 1.686801 4.010949 -0.780536 0
M  V30 20 C 0.664482 2.454624 0.655266 0
M  V30 21 C -1.565453 1.100570 3.129169 0
M  V30 22 N -2.320221 -0.005061 3.369709 0
M  V30 23 C -1.774779 -1.046715 2.720401 0
M  V30 24 N -2.019245 -2.360624 2.553233 0
M  V30 25 H -2.081287 -4.985964 2.562761 0
M  V30 26 H -2.168417 -4.746039 0.737628 0
M  V30 27 H -0.618385 -5.123046 1.485624 0
M  V30 28 H 1.836936 0.008617 0.629868 0
M  V30 29 H 3.155812 -1.462963 -0.393459 0
M  V30 30 H 2.327575 -2.758465 0.461043 0
M  V30 31 H 0.509195 -4.039675 -1.076450 0
M  V30 32 H -0.414415 -4.128569 -3.444717 0
M  V30 33 H 0.140006 -2.220367 -5.043497 0
M  V30 34 H 0.911686 2.125652 4.013934 0
M  V30 35 H 2.366228 4.005304 3.728487 0
M  V30 36 H 2.522241 3.859691 -1.419846 0
M  V30 37 H 1.070578 4.594641 -1.416000 0
M  V30 38 H 0.118110 1.917557 -0.124891 0
M  V30 39 H -1.873580 2.051786 3.590151 0
M  V30 40 H -3.178401 -0.091118 3.945710 0
M  V30 END ATOM
M  V30 BEGIN BOND
M  V30 1 1 1 2
M  V30 2 2 2 3
M  V30 3 1 3 4
M  V30 4 1 4 5
M  V30 5 1 5 6
M  V30 6 1 6 7
M  V30 7 2 7 8
M  V30 8 1 8 9
M  V30 9 2 9 10
M  V30 10 1 10 11
M  V30 11 2 4 12
M  V30 12 1 12 13
M  V30 13 1 13 14
M  V30 14 2 14 15
M  V30 15 1 15 16
M  V30 16 2 16 17
M  V30 17 1 17 18
M  V30 18 1 18 19
M  V30 19 2 18 20
M  V30 20 2 13 21
M  V30 21 1 21 22
M  V30 22 1 22 23
M  V30 23 2 23 24
M  V30 24 1 24 2
M  V30 25 1 11 7
M  V30 26 1 23 12
M  V30 27 1 20 14
M  V30 28 1 1 25
M  V30 29 1 1 26
M  V30 30 1 1 27
M  V30 31 1 5 28
M  V30 32 1 6 29
M  V30 33 1 6 30
M  V30 34 1 8 31
M  V30 35 1 9 32
M  V30 36 1 10 33
M  V30 37 1 15 34
M  V30 38 1 16 35
M  V30 39 1 19 36
M  V30 40 1 19 37
M  V30 41 1 20 38
M  V30 42 1 21 39
M  V30 43 1 22 40
M  V30 END BOND
M  V30 END CTAB
M  END
>  <Dataset>  (745) 
ChEMBL_Kinases

>  <Ligand_Instance>  (745) 
nan

>  <PDB_ID>  (745) 
nan

>  <Standardized_SMILES>  (745) 
Cc1nc(NCc2cccs2)c2c(-c3ccnc(N)c3)c[nH]c2n1

>  <Name>  (745) 
nan

>  <Pocket>  (745) 
nan

>  <ATP_Site>  (745) 
nan

>  <Peripheral>  (745) 
nan

>  <Num_H_Atoms_ProtBoundConf>  (745) 
nan

>  <Num_Resolved_Atoms>  (745) 
nan

>  <Num_Not_Resolved_Atoms>  (745) 
nan

$$$$
CHEMBL3355174
     RDKit          3D

  0  0  0  0  0  0  0  0  0  0999 V3000
M  V30 BEGIN CTAB
M  V30 COUNTS 55 58 0 0 0
M  V30 BEGIN ATOM
M  V30 1 C 5.947500 -0.543936 5.110973 0
M  V30 2 C 5.018984 -0.981655 3.992674 0
M  V30 3 C 3.848949 -1.661602 4.645239 0
M  V30 4 N 4.673411 0.188475 3.229001 0
M  V30 5 C 3.554121 0.412384 2.518049 0
M  V30 6 C 3.583007 1.648567 1.922565 0
M  V30 7 N 2.633901 2.301017 1.091083 0
M  V30 8 C 1.391871 1.773273 0.685841 0
M  V30 9 O 1.089616 0.607515 1.099946 0
M  V30 10 C 0.450975 2.488514 -0.172280 0
M  V30 11 C 0.641317 3.750987 -0.694108 0
M  V30 12 C -0.297007 4.361996 -1.499353 0
M  V30 13 C -1.480284 3.731839 -1.822592 0
M  V30 14 C -1.700255 2.482627 -1.323213 0
M  V30 15 N -2.900095 1.754246 -1.606813 0
M  V30 16 C -3.028721 0.413106 -1.550150 0
M  V30 17 C -4.306029 0.018754 -1.878333 0
M  V30 18 N -4.883632 -1.277979 -1.949636 0
M  V30 19 C -4.180427 -2.480849 -1.671077 0
M  V30 20 O -2.968497 -2.440454 -1.336696 0
M  V30 21 N -4.735335 -3.774710 -1.736258 0
M  V30 22 C -3.775547 -4.776998 -1.400143 0
M  V30 23 C -2.909254 -5.452873 -2.230029 0
M  V30 24 C -2.056120 -6.392097 -1.691891 0
M  V30 25 C -2.035812 -6.683333 -0.347120 0
M  V30 26 C -2.909399 -6.004891 0.505227 0
M  V30 27 C -3.770751 -5.057390 -0.034280 0
M  V30 28 Cl -4.813171 -4.280736 1.145806 0
M  V30 29 C -4.961025 1.199935 -2.141987 0
M  V30 30 N -4.083616 2.205257 -1.967177 0
M  V30 31 C -0.746686 1.891707 -0.519718 0
M  V30 32 C 4.798325 2.165057 2.319079 0
M  V30 33 N 5.425233 1.267319 3.098997 0
M  V30 34 H 5.340591 -0.112957 5.935589 0
M  V30 35 H 6.441435 -1.464189 5.508469 0
M  V30 36 H 6.688733 0.200140 4.732329 0
M  V30 37 H 5.518680 -1.688137 3.300203 0
M  V30 38 H 4.092874 -2.755241 4.785164 0
M  V30 39 H 3.697631 -1.281274 5.697497 0
M  V30 40 H 2.933193 -1.545137 4.054207 0
M  V30 41 H 2.752196 -0.306587 2.443318 0
M  V30 42 H 2.841693 3.252833 0.732066 0
M  V30 43 H 1.547574 4.260824 -0.459988 0
M  V30 44 H -0.057942 5.370106 -1.869342 0
M  V30 45 H -2.211072 4.210989 -2.451356 0
M  V30 46 H -2.218805 -0.239298 -1.279840 0
M  V30 47 H -5.881723 -1.390815 -2.219537 0
M  V30 48 H -5.753850 -3.868575 -2.013143 0
M  V30 49 H -2.989562 -5.165326 -3.267168 0
M  V30 50 H -1.390231 -6.896376 -2.405290 0
M  V30 51 H -1.345794 -7.433214 0.039781 0
M  V30 52 H -2.864536 -6.259225 1.548797 0
M  V30 53 H -6.007914 1.285945 -2.439178 0
M  V30 54 H -0.952199 0.892446 -0.136105 0
M  V30 55 H 5.248564 3.139061 2.079152 0
M  V30 END ATOM
M  V30 BEGIN BOND
M  V30 1 1 1 2
M  V30 2 1 2 3
M  V30 3 1 2 4
M  V30 4 1 4 5
M  V30 5 2 5 6
M  V30 6 1 6 7
M  V30 7 1 7 8
M  V30 8 2 8 9
M  V30 9 1 8 10
M  V30 10 2 10 11
M  V30 11 1 11 12
M  V30 12 2 12 13
M  V30 13 1 13 14
M  V30 14 1 14 15
M  V30 15 1 15 16
M  V30 16 2 16 17
M  V30 17 1 17 18
M  V30 18 1 18 19
M  V30 19 2 19 20
M  V30 20 1 19 21
M  V30 21 1 21 22
M  V30 22 2 22 23
M  V30 23 1 23 24
M  V30 24 2 24 25
M  V30 25 1 25 26
M  V30 26 2 26 27
M  V30 27 1 27 28
M  V30 28 1 17 29
M  V30 29 2 29 30
M  V30 30 2 14 31
M  V30 31 1 6 32
M  V30 32 2 32 33
M  V30 33 1 33 4
M  V30 34 1 31 10
M  V30 35 1 30 15
M  V30 36 1 27 22
M  V30 37 1 1 34
M  V30 38 1 1 35
M  V30 39 1 1 36
M  V30 40 1 2 37
M  V30 41 1 3 38
M  V30 42 1 3 39
M  V30 43 1 3 40
M  V30 44 1 5 41
M  V30 45 1 7 42
M  V30 46 1 11 43
M  V30 47 1 12 44
M  V30 48 1 13 45
M  V30 49 1 16 46
M  V30 50 1 18 47
M  V30 51 1 21 48
M  V30 52 1 23 49
M  V30 53 1 24 50
M  V30 54 1 25 51
M  V30 55 1 26 52
M  V30 56 1 29 53
M  V30 57 1 31 54
M  V30 58 1 32 55
M  V30 END BOND
M  V30 END CTAB
M  END
>  <Dataset>  (746) 
ChEMBL_Kinases

>  <Ligand_Instance>  (746) 
nan

>  <PDB_ID>  (746) 
nan

>  <Standardized_SMILES>  (746) 
CC(C)n1cc(NC(=O)c2cccc(-n3cc(NC(=O)Nc4ccccc4Cl)cn3)c2)cn1

>  <Name>  (746) 
nan

>  <Pocket>  (746) 
nan

>  <ATP_Site>  (746) 
nan

>  <Peripheral>  (746) 
nan

>  <Num_H_Atoms_ProtBoundConf>  (746) 
nan

>  <Num_Resolved_Atoms>  (746) 
nan

>  <Num_Not_Resolved_Atoms>  (746) 
nan

$$$$
CHEMBL4292930
     RDKit          3D

  0  0  0  0  0  0  0  0  0  0999 V3000
M  V30 BEGIN CTAB
M  V30 COUNTS 54 57 0 0 0
M  V30 BEGIN ATOM
M  V30 1 C 0.331072 -1.594698 5.128568 0
M  V30 2 C 1.227812 -1.141285 4.002483 0
M  V30 3 C 2.484511 -0.583270 4.042399 0
M  V30 4 N 2.884494 -0.350407 2.784421 0
M  V30 5 N 1.929451 -0.737189 1.919598 0
M  V30 6 C 1.868778 -0.707472 0.553424 0
M  V30 7 N 3.024654 -0.139245 -0.068448 0
M  V30 8 C 2.869573 1.200290 -0.595190 0
M  V30 9 C 2.347327 2.124928 0.427831 0
M  V30 10 C 0.951309 2.238248 0.466060 0
M  V30 11 C 0.285825 3.056860 1.345864 0
M  V30 12 C 1.024300 3.815615 2.248705 0
M  V30 13 N 2.368580 3.698496 2.203657 0 CHG=1 VAL=4
M  V30 14 O 3.108919 4.452628 3.102048 0 CHG=-1 VAL=1
M  V30 15 C 3.013142 2.893360 1.337733 0
M  V30 16 C 0.772542 -1.171389 -0.121929 0
M  V30 17 C -0.250861 -1.659933 0.651728 0
M  V30 18 N -1.398368 -2.125743 -0.034266 0
M  V30 19 C -2.635672 -2.479407 0.681683 0
M  V30 20 C -3.527139 -1.259573 0.482921 0
M  V30 21 C -3.522534 -0.892594 -0.959107 0
M  V30 22 C -2.960129 -1.939766 -1.890328 0
M  V30 23 C -1.558459 -2.321963 -1.457043 0 CFG=2
M  V30 24 C -1.267167 -3.766883 -1.731741 0
M  V30 25 C -1.373599 -4.132910 -3.175505 0
M  V30 26 O -0.447297 -3.383342 -3.934117 0
M  V30 27 N -0.191373 -1.688577 2.002061 0
M  V30 28 C 0.900763 -1.228063 2.665690 0
M  V30 29 H 0.889222 -1.835939 6.039275 0
M  V30 30 H -0.240258 -2.475075 4.765996 0
M  V30 31 H -0.452055 -0.807426 5.286846 0
M  V30 32 H 3.040170 -0.376344 4.962201 0
M  V30 33 H 3.928848 -0.652214 -0.140594 0
M  V30 34 H 3.868151 1.556727 -0.992944 0
M  V30 35 H 2.171248 1.133131 -1.469143 0
M  V30 36 H 0.294947 1.676995 -0.212008 0
M  V30 37 H -0.806684 3.121208 1.349722 0
M  V30 38 H 0.529206 4.485097 2.971592 0
M  V30 39 H 4.097971 2.792594 1.296429 0
M  V30 40 H 0.861344 -1.091995 -1.171623 0
M  V30 41 H -2.439395 -2.539052 1.781378 0
M  V30 42 H -3.120612 -3.366697 0.276550 0
M  V30 43 H -3.041350 -0.450842 1.103592 0
M  V30 44 H -4.516801 -1.477654 0.927073 0
M  V30 45 H -2.934250 0.067285 -1.076252 0
M  V30 46 H -4.562616 -0.684429 -1.282474 0
M  V30 47 H -2.873685 -1.451324 -2.881596 0
M  V30 48 H -3.641246 -2.807429 -1.902668 0
M  V30 49 H -0.855351 -1.690614 -1.995502 0
M  V30 50 H -1.985782 -4.429783 -1.174218 0
M  V30 51 H -0.267311 -4.043046 -1.360787 0
M  V30 52 H -1.115257 -5.195527 -3.335702 0
M  V30 53 H -2.370027 -3.969866 -3.606217 0
M  V30 54 H -0.827924 -3.187948 -4.829427 0
M  V30 END ATOM
M  V30 BEGIN BOND
M  V30 1 1 1 2
M  V30 2 1 2 3
M  V30 3 2 3 4
M  V30 4 1 4 5
M  V30 5 1 5 6
M  V30 6 1 6 7
M  V30 7 1 7 8
M  V30 8 1 8 9
M  V30 9 2 9 10
M  V30 10 1 10 11
M  V30 11 2 11 12
M  V30 12 1 12 13
M  V30 13 1 13 14
M  V30 14 2 13 15
M  V30 15 2 6 16
M  V30 16 1 16 17
M  V30 17 1 17 18
M  V30 18 1 18 19
M  V30 19 1 19 20
M  V30 20 1 20 21
M  V30 21 1 21 22
M  V30 22 1 22 23
M  V30 23 1 23 24
M  V30 24 1 24 25
M  V30 25 1 25 26
M  V30 26 2 17 27
M  V30 27 1 27 28
M  V30 28 2 28 2
M  V30 29 1 28 5
M  V30 30 1 15 9
M  V30 31 1 23 18
M  V30 32 1 1 29
M  V30 33 1 1 30
M  V30 34 1 1 31
M  V30 35 1 3 32
M  V30 36 1 7 33
M  V30 37 1 8 34
M  V30 38 1 8 35
M  V30 39 1 10 36
M  V30 40 1 11 37
M  V30 41 1 12 38
M  V30 42 1 15 39
M  V30 43 1 16 40
M  V30 44 1 19 41
M  V30 45 1 19 42
M  V30 46 1 20 43
M  V30 47 1 20 44
M  V30 48 1 21 45
M  V30 49 1 21 46
M  V30 50 1 22 47
M  V30 51 1 22 48
M  V30 52 1 23 49 CFG=3
M  V30 53 1 24 50
M  V30 54 1 24 51
M  V30 55 1 25 52
M  V30 56 1 25 53
M  V30 57 1 26 54
M  V30 END BOND
M  V30 END CTAB
M  END
>  <Dataset>  (747) 
ChEMBL_Kinases

>  <Ligand_Instance>  (747) 
nan

>  <PDB_ID>  (747) 
nan

>  <Standardized_SMILES>  (747) 
Cc1cnn2c(NCc3ccc[n+]([O-])c3)cc(N3CCCC[C@@H]3CCO)nc12

>  <Name>  (747) 
nan

>  <Pocket>  (747) 
nan

>  <ATP_Site>  (747) 
nan

>  <Peripheral>  (747) 
nan

>  <Num_H_Atoms_ProtBoundConf>  (747) 
nan

>  <Num_Resolved_Atoms>  (747) 
nan

>  <Num_Not_Resolved_Atoms>  (747) 
nan

$$$$
CHEMBL3797574
     RDKit          3D

  0  0  0  0  0  0  0  0  0  0999 V3000
M  V30 BEGIN CTAB
M  V30 COUNTS 46 49 0 0 0
M  V30 BEGIN ATOM
M  V30 1 C 2.929434 -1.288330 1.169268 0
M  V30 2 N 3.722817 -0.912346 0.015012 0
M  V30 3 C 4.682593 -1.929917 -0.428758 0
M  V30 4 C 3.645765 0.320774 -0.694603 0
M  V30 5 O 4.334964 0.631362 -1.686548 0
M  V30 6 C 2.647651 1.274355 -0.166361 0
M  V30 7 C 2.955984 2.525220 0.326557 0
M  V30 8 C 1.956187 3.354157 0.801797 0
M  V30 9 C 0.626183 2.952088 0.795220 0
M  V30 10 C 0.296318 1.704489 0.306322 0
M  V30 11 C -1.097907 1.270680 0.293545 0
M  V30 12 C -1.943344 1.716466 1.281779 0
M  V30 13 N -3.210923 1.271250 1.196103 0
M  V30 14 C -3.570659 0.449742 0.193374 0
M  V30 15 N -4.921383 0.040100 0.192622 0
M  V30 16 C -2.738830 -0.006728 -0.804164 0
M  V30 17 C -3.196368 -0.897829 -1.864810 0
M  V30 18 N -4.446678 -1.388210 -2.022930 0
M  V30 19 C -4.467146 -2.179663 -3.131160 0
M  V30 20 C -5.421654 -2.943947 -3.802419 0
M  V30 21 C -5.045798 -3.634703 -4.937933 0
M  V30 22 C -3.765153 -3.614885 -5.456868 0
M  V30 23 C -2.806108 -2.865549 -4.808790 0
M  V30 24 C -3.182062 -2.166694 -3.661696 0
M  V30 25 N -2.429186 -1.371947 -2.861564 0
M  V30 26 C -1.430058 0.421110 -0.760409 0
M  V30 27 C 1.307543 0.890563 -0.163896 0
M  V30 28 H 2.023923 -1.826962 0.852396 0
M  V30 29 H 2.590556 -0.370127 1.728853 0
M  V30 30 H 3.560354 -1.837020 1.891704 0
M  V30 31 H 5.087963 -1.674891 -1.428275 0
M  V30 32 H 4.103246 -2.886485 -0.508857 0
M  V30 33 H 5.480428 -1.994935 0.337780 0
M  V30 34 H 4.007877 2.787179 0.307729 0
M  V30 35 H 2.237302 4.335236 1.183635 0
M  V30 36 H -0.121579 3.641685 1.180156 0
M  V30 37 H -1.535345 2.377102 2.037714 0
M  V30 38 H -5.228204 -0.689078 0.895346 0
M  V30 39 H -5.896467 -0.247942 0.183595 0
M  V30 40 H -6.411448 -2.969187 -3.415900 0
M  V30 41 H -5.760982 -4.243485 -5.491963 0
M  V30 42 H -3.455908 -4.147037 -6.339731 0
M  V30 43 H -1.772666 -2.797638 -5.154543 0
M  V30 44 H -1.407325 -1.155862 -2.992546 0
M  V30 45 H -0.717994 0.113073 -1.497783 0
M  V30 46 H 1.075707 -0.093187 -0.552549 0
M  V30 END ATOM
M  V30 BEGIN BOND
M  V30 1 1 1 2
M  V30 2 1 2 3
M  V30 3 1 2 4
M  V30 4 2 4 5
M  V30 5 1 4 6
M  V30 6 2 6 7
M  V30 7 1 7 8
M  V30 8 2 8 9
M  V30 9 1 9 10
M  V30 10 1 10 11
M  V30 11 2 11 12
M  V30 12 1 12 13
M  V30 13 2 13 14
M  V30 14 1 14 15
M  V30 15 1 14 16
M  V30 16 1 16 17
M  V30 17 2 17 18
M  V30 18 1 18 19
M  V30 19 2 19 20
M  V30 20 1 20 21
M  V30 21 2 21 22
M  V30 22 1 22 23
M  V30 23 2 23 24
M  V30 24 1 24 25
M  V30 25 2 16 26
M  V30 26 2 10 27
M  V30 27 1 27 6
M  V30 28 1 26 11
M  V30 29 1 25 17
M  V30 30 1 24 19
M  V30 31 1 1 28
M  V30 32 1 1 29
M  V30 33 1 1 30
M  V30 34 1 3 31
M  V30 35 1 3 32
M  V30 36 1 3 33
M  V30 37 1 7 34
M  V30 38 1 8 35
M  V30 39 1 9 36
M  V30 40 1 12 37
M  V30 41 1 15 38
M  V30 42 1 15 39
M  V30 43 1 20 40
M  V30 44 1 21 41
M  V30 45 1 22 42
M  V30 46 1 23 43
M  V30 47 1 25 44
M  V30 48 1 26 45
M  V30 49 1 27 46
M  V30 END BOND
M  V30 END CTAB
M  END
>  <Dataset>  (748) 
ChEMBL_Kinases

>  <Ligand_Instance>  (748) 
nan

>  <PDB_ID>  (748) 
nan

>  <Standardized_SMILES>  (748) 
CN(C)C(=O)c1cccc(-c2cnc(N)c(-c3nc4ccccc4[nH]3)c2)c1

>  <Name>  (748) 
nan

>  <Pocket>  (748) 
nan

>  <ATP_Site>  (748) 
nan

>  <Peripheral>  (748) 
nan

>  <Num_H_Atoms_ProtBoundConf>  (748) 
nan

>  <Num_Resolved_Atoms>  (748) 
nan

>  <Num_Not_Resolved_Atoms>  (748) 
nan

$$$$
CHEMBL3125721
     RDKit          3D

  0  0  0  0  0  0  0  0  0  0999 V3000
M  V30 BEGIN CTAB
M  V30 COUNTS 66 70 0 0 0
M  V30 BEGIN ATOM
M  V30 1 C 5.981414 -0.145941 5.474839 0
M  V30 2 O 6.164050 -0.273949 4.078026 0
M  V30 3 C 5.128974 -0.123196 3.163160 0
M  V30 4 C 3.839499 0.164286 3.556411 0
M  V30 5 C 2.822726 0.309552 2.616413 0
M  V30 6 C 3.077816 0.169858 1.268171 0
M  V30 7 C 2.094938 0.293973 0.196746 0
M  V30 8 N 0.782832 0.534781 0.299025 0
M  V30 9 C 0.166562 0.587305 -0.890837 0
M  V30 10 C -1.150189 0.830720 -1.232352 0
M  V30 11 N -2.207008 0.995815 -0.324572 0
M  V30 12 C -3.297464 0.655337 0.470278 0
M  V30 13 C -3.405895 -0.510211 1.338777 0
M  V30 14 C -2.513810 -0.775213 2.462968 0
M  V30 15 N -1.138725 -1.011077 2.263465 0
M  V30 16 C -0.971577 -2.149299 1.447611 0
M  V30 17 O -1.749213 -2.942233 0.898494 0
M  V30 18 C 0.202513 -2.864099 0.914576 0
M  V30 19 C -0.218576 -4.095985 0.119899 0
M  V30 20 C 1.082897 -4.860575 -0.039797 0
M  V30 21 C 1.862461 -4.555557 1.218311 0
M  V30 22 C 1.072437 -3.491703 1.968216 0
M  V30 23 C -1.405619 0.838883 -2.611893 0
M  V30 24 C -2.746525 1.116779 -3.167962 0
M  V30 25 N -3.898154 1.394414 -2.646099 0
M  V30 26 C -4.923910 1.590887 -3.441743 0
M  V30 27 C -6.196032 1.900393 -2.801015 0
M  V30 28 N -6.460234 2.019322 -1.421888 0
M  V30 29 O -7.274988 2.114097 -3.370914 0
M  V30 30 C -4.859399 1.520870 -4.824460 0
M  V30 31 S -3.022159 1.106962 -4.935592 0
M  V30 32 C -0.359390 0.606372 -3.517186 0
M  V30 33 N 0.868722 0.382353 -3.040483 0
M  V30 34 C 1.204663 0.358494 -1.761728 0
M  V30 35 N 2.366404 0.180340 -1.119360 0
M  V30 36 C 4.387893 -0.116975 0.946825 0
M  V30 37 C 5.436844 -0.272610 1.827347 0
M  V30 38 H 6.762606 -0.736390 6.021112 0
M  V30 39 H 6.100172 0.910193 5.810534 0
M  V30 40 H 4.996428 -0.547252 5.822971 0
M  V30 41 H 3.587519 0.283123 4.600433 0
M  V30 42 H 1.819575 0.536200 2.914329 0
M  V30 43 H -1.938850 2.036252 -0.272249 0
M  V30 44 H -4.298768 0.690156 -0.107954 0
M  V30 45 H -3.507210 1.559407 1.175435 0
M  V30 46 H -4.461666 -0.455864 1.801770 0
M  V30 47 H -3.549354 -1.484226 0.733874 0
M  V30 48 H -2.915389 -1.693823 3.009361 0
M  V30 49 H -2.630385 0.020578 3.249570 0
M  V30 50 H -0.219105 -0.616880 2.537612 0
M  V30 51 H 0.796031 -2.258323 0.221972 0
M  V30 52 H -0.955196 -4.666669 0.699746 0
M  V30 53 H -0.635450 -3.795889 -0.844549 0
M  V30 54 H 0.839646 -5.947888 -0.134872 0
M  V30 55 H 1.619007 -4.571980 -0.956930 0
M  V30 56 H 1.936970 -5.505534 1.794393 0
M  V30 57 H 2.864814 -4.231563 0.922905 0
M  V30 58 H 0.437407 -4.027629 2.700964 0
M  V30 59 H 1.765363 -2.777863 2.449204 0
M  V30 60 H -6.584991 2.162967 -0.417582 0
M  V30 61 H -7.203354 1.530501 -0.861751 0
M  V30 62 H -5.711948 1.683528 -5.505883 0
M  V30 63 H -0.469659 0.593779 -4.591686 0
M  V30 64 H 3.276904 -0.007668 -1.600317 0
M  V30 65 H 4.656466 -0.240712 -0.114121 0
M  V30 66 H 6.434418 -0.498001 1.477266 0
M  V30 END ATOM
M  V30 BEGIN BOND
M  V30 1 1 1 2
M  V30 2 1 2 3
M  V30 3 2 3 4
M  V30 4 1 4 5
M  V30 5 2 5 6
M  V30 6 1 6 7
M  V30 7 2 7 8
M  V30 8 1 8 9
M  V30 9 2 9 10
M  V30 10 1 10 11
M  V30 11 1 11 12
M  V30 12 1 12 13
M  V30 13 1 13 14
M  V30 14 1 14 15
M  V30 15 1 15 16
M  V30 16 2 16 17
M  V30 17 1 16 18
M  V30 18 1 18 19
M  V30 19 1 19 20
M  V30 20 1 20 21
M  V30 21 1 21 22
M  V30 22 1 10 23
M  V30 23 1 23 24
M  V30 24 2 24 25
M  V30 25 1 25 26
M  V30 26 1 26 27
M  V30 27 1 27 28
M  V30 28 2 27 29
M  V30 29 2 26 30
M  V30 30 1 30 31
M  V30 31 2 23 32
M  V30 32 1 32 33
M  V30 33 2 33 34
M  V30 34 1 34 35
M  V30 35 1 6 36
M  V30 36 2 36 37
M  V30 37 1 37 3
M  V30 38 1 35 7
M  V30 39 1 34 9
M  V30 40 1 22 18
M  V30 41 1 31 24
M  V30 42 1 1 38
M  V30 43 1 1 39
M  V30 44 1 1 40
M  V30 45 1 4 41
M  V30 46 1 5 42
M  V30 47 1 11 43
M  V30 48 1 12 44
M  V30 49 1 12 45
M  V30 50 1 13 46
M  V30 51 1 13 47
M  V30 52 1 14 48
M  V30 53 1 14 49
M  V30 54 1 15 50
M  V30 55 1 18 51
M  V30 56 1 19 52
M  V30 57 1 19 53
M  V30 58 1 20 54
M  V30 59 1 20 55
M  V30 60 1 21 56
M  V30 61 1 21 57
M  V30 62 1 22 58
M  V30 63 1 22 59
M  V30 64 1 28 60
M  V30 65 1 28 61
M  V30 66 1 30 62
M  V30 67 1 32 63
M  V30 68 1 35 64
M  V30 69 1 36 65
M  V30 70 1 37 66
M  V30 END BOND
M  V30 END CTAB
M  END
>  <Dataset>  (749) 
ChEMBL_Kinases

>  <Ligand_Instance>  (749) 
nan

>  <PDB_ID>  (749) 
nan

>  <Standardized_SMILES>  (749) 
COc1ccc(-c2nc3c(NCCCNC(=O)C4CCCC4)c(-c4nc(C(N)=O)cs4)cnc3[nH]2)cc1

>  <Name>  (749) 
nan

>  <Pocket>  (749) 
nan

>  <ATP_Site>  (749) 
nan

>  <Peripheral>  (749) 
nan

>  <Num_H_Atoms_ProtBoundConf>  (749) 
nan

>  <Num_Resolved_Atoms>  (749) 
nan

>  <Num_Not_Resolved_Atoms>  (749) 
nan

$$$$
CHEMBL4247751
     RDKit          3D

  0  0  0  0  0  0  0  0  0  0999 V3000
M  V30 BEGIN CTAB
M  V30 COUNTS 38 41 0 0 0
M  V30 BEGIN ATOM
M  V30 1 C -1.812477 -4.949436 4.078551 0
M  V30 2 C -1.436700 -3.910165 3.082448 0
M  V30 3 N -0.150347 -3.484206 3.014000 0
M  V30 4 C 0.222076 -2.545692 2.124407 0
M  V30 5 C 1.550507 -2.139267 2.089433 0
M  V30 6 C 1.951201 -1.179011 1.185129 0
M  V30 7 C 0.978402 -0.670581 0.350719 0
M  V30 8 C 1.381653 0.346366 -0.613308 0
M  V30 9 C 1.798228 -0.132487 -1.846138 0
M  V30 10 C 2.189257 0.783745 -2.791780 0
M  V30 11 N 2.166021 2.111484 -2.521440 0
M  V30 12 C 1.761821 2.573215 -1.325675 0
M  V30 13 C 1.724462 3.919342 -1.013189 0
M  V30 14 C 1.307474 4.392283 0.219885 0
M  V30 15 C 0.911635 3.464096 1.177039 0
M  V30 16 C 0.925736 2.092125 0.925246 0
M  V30 17 C 1.355730 1.709812 -0.329964 0
M  V30 18 C -0.348340 -1.037785 0.344351 0
M  V30 19 C -1.342586 -0.446638 -0.584755 0
M  V30 20 C -0.718892 -2.007276 1.267554 0
M  V30 21 C -2.047599 -2.432240 1.322229 0
M  V30 22 O -2.927537 -1.969077 0.563978 0
M  V30 23 N -2.343997 -3.378696 2.243110 0
M  V30 24 H -1.043341 -5.012783 4.873455 0
M  V30 25 H -2.803496 -4.675865 4.495848 0
M  V30 26 H -1.930001 -5.957474 3.623709 0
M  V30 27 H 2.309325 -2.535221 2.739614 0
M  V30 28 H 2.962165 -0.826545 1.112454 0
M  V30 29 H 1.818714 -1.182839 -2.065854 0
M  V30 30 H 2.520530 0.445100 -3.765642 0
M  V30 31 H 2.040482 4.610957 -1.785002 0
M  V30 32 H 1.302358 5.459036 0.399410 0
M  V30 33 H 0.583093 3.840400 2.149117 0
M  V30 34 H 0.618076 1.370776 1.669206 0
M  V30 35 H -2.124710 0.140851 -0.049738 0
M  V30 36 H -0.773394 0.265272 -1.249033 0
M  V30 37 H -1.766778 -1.182017 -1.306080 0
M  V30 38 H -3.334031 -3.690693 2.278884 0
M  V30 END ATOM
M  V30 BEGIN BOND
M  V30 1 1 1 2
M  V30 2 2 2 3
M  V30 3 1 3 4
M  V30 4 2 4 5
M  V30 5 1 5 6
M  V30 6 2 6 7
M  V30 7 1 7 8
M  V30 8 2 8 9
M  V30 9 1 9 10
M  V30 10 2 10 11
M  V30 11 1 11 12
M  V30 12 2 12 13
M  V30 13 1 13 14
M  V30 14 2 14 15
M  V30 15 1 15 16
M  V30 16 2 16 17
M  V30 17 1 7 18
M  V30 18 1 18 19
M  V30 19 2 18 20
M  V30 20 1 20 21
M  V30 21 2 21 22
M  V30 22 1 21 23
M  V30 23 1 23 2
M  V30 24 1 20 4
M  V30 25 1 17 8
M  V30 26 1 17 12
M  V30 27 1 1 24
M  V30 28 1 1 25
M  V30 29 1 1 26
M  V30 30 1 5 27
M  V30 31 1 6 28
M  V30 32 1 9 29
M  V30 33 1 10 30
M  V30 34 1 13 31
M  V30 35 1 14 32
M  V30 36 1 15 33
M  V30 37 1 16 34
M  V30 38 1 19 35
M  V30 39 1 19 36
M  V30 40 1 19 37
M  V30 41 1 23 38
M  V30 END BOND
M  V30 END CTAB
M  END
>  <Dataset>  (750) 
ChEMBL_Kinases

>  <Ligand_Instance>  (750) 
nan

>  <PDB_ID>  (750) 
nan

>  <Standardized_SMILES>  (750) 
Cc1nc2ccc(-c3ccnc4ccccc34)c(C)c2c(=O)[nH]1

>  <Name>  (750) 
nan

>  <Pocket>  (750) 
nan

>  <ATP_Site>  (750) 
nan

>  <Peripheral>  (750) 
nan

>  <Num_H_Atoms_ProtBoundConf>  (750) 
nan

>  <Num_Resolved_Atoms>  (750) 
nan

>  <Num_Not_Resolved_Atoms>  (750) 
nan

$$$$
CHEMBL4436748
     RDKit          3D

  0  0  0  0  0  0  0  0  0  0999 V3000
M  V30 BEGIN CTAB
M  V30 COUNTS 67 70 0 0 0
M  V30 BEGIN ATOM
M  V30 1 N 1.783913 -4.640496 4.667794 0
M  V30 2 C 1.419959 -3.528605 5.443338 0
M  V30 3 C 1.855559 -2.224037 5.357652 0
M  V30 4 C 2.827582 -1.696743 4.405148 0
M  V30 5 O 3.316954 -2.512068 3.582030 0
M  V30 6 N 3.196192 -0.337228 4.412759 0
M  V30 7 C 4.135133 0.309289 3.534999 0
M  V30 8 C 3.471582 0.510939 2.220856 0
M  V30 9 C 2.782960 1.712454 2.123750 0
M  V30 10 C 2.115302 2.047601 0.965055 0
M  V30 11 C 2.085192 1.236040 -0.147881 0
M  V30 12 C 1.396225 1.533700 -1.396863 0
M  V30 13 O 1.460498 0.700159 -2.361824 0
M  V30 14 N 0.646393 2.712015 -1.608493 0
M  V30 15 C -0.062465 3.081889 -2.806468 0
M  V30 16 C -1.128712 2.064005 -3.152354 0
M  V30 17 C -1.869589 2.485829 -4.428696 0
M  V30 18 C -2.919876 1.456313 -4.745930 0
M  V30 19 C -3.702878 1.794466 -5.992931 0
M  V30 20 C -2.989211 1.408300 -7.268086 0
M  V30 21 C -2.716343 -0.067945 -7.319616 0
M  V30 22 C -2.971821 -0.735788 -5.981695 0
M  V30 23 C -2.358289 0.052922 -4.845173 0
M  V30 24 C 2.777722 0.050694 -0.020961 0
M  V30 25 C 3.456497 -0.318756 1.120143 0
M  V30 26 C 1.219084 -1.482032 6.329794 0
M  V30 27 N 0.417699 -2.339067 6.980974 0
M  V30 28 N 0.519983 -3.575016 6.467624 0
M  V30 29 C -0.236681 -4.661612 6.992692 0
M  V30 30 C 0.241820 -5.835881 7.537121 0
M  V30 31 C -0.651674 -6.779078 7.997227 0
M  V30 32 C -2.020409 -6.622531 7.947827 0
M  V30 33 C -2.457238 -5.431624 7.394816 0
M  V30 34 C -1.614647 -4.425787 6.906240 0
M  V30 35 H 2.153922 -5.589317 4.897765 0
M  V30 36 H 1.636584 -4.429531 3.634763 0
M  V30 37 H 2.750687 0.288954 5.126843 0
M  V30 38 H 4.549872 1.234196 3.926280 0
M  V30 39 H 5.028492 -0.354051 3.334097 0
M  V30 40 H 2.733710 2.442724 2.942849 0
M  V30 41 H 1.585577 2.988357 0.912571 0
M  V30 42 H 0.607810 3.367658 -0.821445 0
M  V30 43 H -0.587160 4.051743 -2.705489 0
M  V30 44 H 0.632923 3.201087 -3.665283 0
M  V30 45 H -1.848427 1.977344 -2.320660 0
M  V30 46 H -0.611279 1.101617 -3.331715 0
M  V30 47 H -2.402780 3.440399 -4.272285 0
M  V30 48 H -1.125237 2.633069 -5.209857 0
M  V30 49 H -3.648060 1.452708 -3.905677 0
M  V30 50 H -4.626338 1.164438 -5.967081 0
M  V30 51 H -3.990188 2.844606 -5.982096 0
M  V30 52 H -3.646599 1.737221 -8.096118 0
M  V30 53 H -2.046529 1.986213 -7.367735 0
M  V30 54 H -3.412914 -0.522623 -8.048882 0
M  V30 55 H -1.684865 -0.314613 -7.654016 0
M  V30 56 H -2.438966 -1.708827 -6.000648 0
M  V30 57 H -4.035522 -0.940230 -5.827842 0
M  V30 58 H -1.262011 0.105055 -4.984261 0
M  V30 59 H -2.541963 -0.520980 -3.913785 0
M  V30 60 H 2.795603 -0.640586 -0.864651 0
M  V30 61 H 4.010181 -1.236203 1.257797 0
M  V30 62 H 1.300396 -0.415355 6.577417 0
M  V30 63 H 1.310868 -5.927807 7.561399 0
M  V30 64 H -0.252202 -7.707624 8.427252 0
M  V30 65 H -2.725782 -7.357663 8.306656 0
M  V30 66 H -3.542458 -5.254870 7.330679 0
M  V30 67 H -2.082999 -3.539642 6.497064 0
M  V30 END ATOM
M  V30 BEGIN BOND
M  V30 1 1 1 2
M  V30 2 2 2 3
M  V30 3 1 3 4
M  V30 4 2 4 5
M  V30 5 1 4 6
M  V30 6 1 6 7
M  V30 7 1 7 8
M  V30 8 2 8 9
M  V30 9 1 9 10
M  V30 10 2 10 11
M  V30 11 1 11 12
M  V30 12 2 12 13
M  V30 13 1 12 14
M  V30 14 1 14 15
M  V30 15 1 15 16
M  V30 16 1 16 17
M  V30 17 1 17 18
M  V30 18 1 18 19
M  V30 19 1 19 20
M  V30 20 1 20 21
M  V30 21 1 21 22
M  V30 22 1 22 23
M  V30 23 1 11 24
M  V30 24 2 24 25
M  V30 25 1 3 26
M  V30 26 2 26 27
M  V30 27 1 27 28
M  V30 28 1 28 29
M  V30 29 2 29 30
M  V30 30 1 30 31
M  V30 31 2 31 32
M  V30 32 1 32 33
M  V30 33 2 33 34
M  V30 34 1 28 2
M  V30 35 1 34 29
M  V30 36 1 25 8
M  V30 37 1 23 18
M  V30 38 1 1 35
M  V30 39 1 1 36
M  V30 40 1 6 37
M  V30 41 1 7 38
M  V30 42 1 7 39
M  V30 43 1 9 40
M  V30 44 1 10 41
M  V30 45 1 14 42
M  V30 46 1 15 43
M  V30 47 1 15 44
M  V30 48 1 16 45
M  V30 49 1 16 46
M  V30 50 1 17 47
M  V30 51 1 17 48
M  V30 52 1 18 49
M  V30 53 1 19 50
M  V30 54 1 19 51
M  V30 55 1 20 52
M  V30 56 1 20 53
M  V30 57 1 21 54
M  V30 58 1 21 55
M  V30 59 1 22 56
M  V30 60 1 22 57
M  V30 61 1 23 58
M  V30 62 1 23 59
M  V30 63 1 24 60
M  V30 64 1 25 61
M  V30 65 1 26 62
M  V30 66 1 30 63
M  V30 67 1 31 64
M  V30 68 1 32 65
M  V30 69 1 33 66
M  V30 70 1 34 67
M  V30 END BOND
M  V30 END CTAB
M  END
>  <Dataset>  (751) 
ChEMBL_Kinases

>  <Ligand_Instance>  (751) 
nan

>  <PDB_ID>  (751) 
nan

>  <Standardized_SMILES>  (751) 
Nc1c(C(=O)NCc2ccc(C(=O)NCCCC3CCCCC3)cc2)cnn1-c1ccccc1

>  <Name>  (751) 
SR-318

>  <Pocket>  (751) 
nan

>  <ATP_Site>  (751) 
nan

>  <Peripheral>  (751) 
nan

>  <Num_H_Atoms_ProtBoundConf>  (751) 
nan

>  <Num_Resolved_Atoms>  (751) 
nan

>  <Num_Not_Resolved_Atoms>  (751) 
nan

$$$$
CHEMBL4798527
     RDKit          3D

  0  0  0  0  0  0  0  0  0  0999 V3000
M  V30 BEGIN CTAB
M  V30 COUNTS 67 71 0 0 0
M  V30 BEGIN ATOM
M  V30 1 C 1.399676 0.128471 4.976594 0
M  V30 2 C 0.203050 0.598815 4.233913 0
M  V30 3 C -0.715442 1.411283 4.882592 0
M  V30 4 C -1.809744 1.822458 4.151154 0
M  V30 5 C -2.073900 1.501935 2.840496 0
M  V30 6 N -3.185384 1.914831 2.071070 0
M  V30 7 C -4.270701 2.739823 2.410386 0
M  V30 8 O -4.314472 3.216412 3.571193 0
M  V30 9 C -5.372438 3.103114 1.527067 0
M  V30 10 C -6.356947 3.936160 2.015422 0
M  V30 11 C -7.427445 4.304076 1.193494 0
M  V30 12 C -7.550680 3.868958 -0.102019 0
M  V30 13 C -8.710314 4.304969 -0.900464 0
M  V30 14 C -6.558310 3.029307 -0.593258 0
M  V30 15 C -6.695384 2.558454 -1.997065 0
M  V30 16 F -7.876079 1.851650 -2.138461 0
M  V30 17 F -6.563690 3.577644 -2.891040 0
M  V30 18 F -5.686326 1.617186 -2.184973 0
M  V30 19 C -5.518313 2.679538 0.224118 0
M  V30 20 C -1.127558 0.695228 2.254401 0
M  V30 21 C -0.027058 0.255245 2.918096 0
M  V30 22 C 0.922941 -0.584514 2.238284 0
M  V30 23 C 1.735928 -1.275731 1.671974 0
M  V30 24 C 2.732022 -2.091245 0.998256 0
M  V30 25 N 2.908282 -2.297829 -0.319482 0
M  V30 26 N 3.935741 -3.111895 -0.524003 0
M  V30 27 C 4.446937 -3.577214 -1.795646 0 CFG=1
M  V30 28 C 4.861345 -5.013973 -1.776826 0
M  V30 29 C 4.348008 -5.826910 -2.933379 0
M  V30 30 C 4.374845 -5.128531 -4.253782 0 CFG=2
M  V30 31 O 5.649188 -5.199545 -4.859097 0
M  V30 32 C 3.851565 -3.722246 -4.221317 0
M  V30 33 C 3.369660 -3.352675 -2.841607 0
M  V30 34 C 4.491906 -3.485657 0.647462 0
M  V30 35 N 5.522372 -4.274531 0.962054 0
M  V30 36 C 5.834918 -4.450675 2.259085 0
M  V30 37 N 5.134068 -3.850757 3.254061 0
M  V30 38 C 4.082550 -3.046114 2.927883 0
M  V30 39 N 3.355107 -2.423324 3.980724 0
M  V30 40 C 3.731329 -2.840888 1.605060 0
M  V30 41 H 1.328668 -0.949541 5.239899 0
M  V30 42 H 2.317410 0.236422 4.360690 0
M  V30 43 H 1.549566 0.751388 5.878987 0
M  V30 44 H -0.572749 1.701303 5.905777 0
M  V30 45 H -2.497425 2.448621 4.686141 0
M  V30 46 H -3.264278 1.584030 1.084284 0
M  V30 47 H -6.360515 4.336381 3.016587 0
M  V30 48 H -8.193009 4.958155 1.588546 0
M  V30 49 H -8.815902 5.422901 -0.868369 0
M  V30 50 H -8.636101 4.018912 -1.964636 0
M  V30 51 H -9.667377 3.904727 -0.536847 0
M  V30 52 H -4.767410 2.025399 -0.195119 0
M  V30 53 H -1.250543 0.385173 1.210697 0
M  V30 54 H 5.310780 -2.899785 -2.027044 0
M  V30 55 H 5.976165 -5.045902 -1.815653 0
M  V30 56 H 4.512015 -5.534109 -0.852729 0
M  V30 57 H 5.031900 -6.708471 -3.029041 0
M  V30 58 H 3.327609 -6.168165 -2.715913 0
M  V30 59 H 3.696787 -5.698292 -4.940087 0
M  V30 60 H 5.617008 -4.491423 -5.565287 0
M  V30 61 H 3.004570 -3.532490 -4.915841 0
M  V30 62 H 4.667830 -3.049564 -4.547105 0
M  V30 63 H 2.468219 -3.915012 -2.577561 0
M  V30 64 H 3.072247 -2.287964 -2.883336 0
M  V30 65 H 6.665455 -5.081047 2.611371 0
M  V30 66 H 2.458464 -2.857300 4.259902 0
M  V30 67 H 3.980131 -1.615868 4.214043 0
M  V30 END ATOM
M  V30 BEGIN BOND
M  V30 1 1 1 2
M  V30 2 2 2 3
M  V30 3 1 3 4
M  V30 4 2 4 5
M  V30 5 1 5 6
M  V30 6 1 6 7
M  V30 7 2 7 8
M  V30 8 1 7 9
M  V30 9 2 9 10
M  V30 10 1 10 11
M  V30 11 2 11 12
M  V30 12 1 12 13
M  V30 13 1 12 14
M  V30 14 1 14 15
M  V30 15 1 15 16
M  V30 16 1 15 17
M  V30 17 1 15 18
M  V30 18 2 14 19
M  V30 19 1 5 20
M  V30 20 2 20 21
M  V30 21 1 21 22
M  V30 22 3 22 23
M  V30 23 1 23 24
M  V30 24 2 24 25
M  V30 25 1 25 26
M  V30 26 1 26 27
M  V30 27 1 27 28
M  V30 28 1 28 29
M  V30 29 1 29 30
M  V30 30 1 30 31
M  V30 31 1 30 32
M  V30 32 1 32 33
M  V30 33 1 26 34
M  V30 34 2 34 35
M  V30 35 1 35 36
M  V30 36 2 36 37
M  V30 37 1 37 38
M  V30 38 1 38 39
M  V30 39 2 38 40
M  V30 40 1 21 2
M  V30 41 1 40 24
M  V30 42 1 19 9
M  V30 43 1 33 27
M  V30 44 1 40 34
M  V30 45 1 1 41
M  V30 46 1 1 42
M  V30 47 1 1 43
M  V30 48 1 3 44
M  V30 49 1 4 45
M  V30 50 1 6 46
M  V30 51 1 10 47
M  V30 52 1 11 48
M  V30 53 1 13 49
M  V30 54 1 13 50
M  V30 55 1 13 51
M  V30 56 1 19 52
M  V30 57 1 20 53
M  V30 58 1 27 54 CFG=3
M  V30 59 1 28 55
M  V30 60 1 28 56
M  V30 61 1 29 57
M  V30 62 1 29 58
M  V30 63 1 30 59 CFG=3
M  V30 64 1 31 60
M  V30 65 1 32 61
M  V30 66 1 32 62
M  V30 67 1 33 63
M  V30 68 1 33 64
M  V30 69 1 36 65
M  V30 70 1 39 66
M  V30 71 1 39 67
M  V30 END BOND
M  V30 END CTAB
M  END
>  <Dataset>  (752) 
ChEMBL_Kinases

>  <Ligand_Instance>  (752) 
nan

>  <PDB_ID>  (752) 
nan

>  <Standardized_SMILES>  (752) 
Cc1ccc(NC(=O)c2ccc(C)c(C(F)(F)F)c2)cc1C#Cc1nn([C@H]2CC[C@H](O)CC2)c2ncnc(N)c12

>  <Name>  (752) 
nan

>  <Pocket>  (752) 
nan

>  <ATP_Site>  (752) 
nan

>  <Peripheral>  (752) 
nan

>  <Num_H_Atoms_ProtBoundConf>  (752) 
nan

>  <Num_Resolved_Atoms>  (752) 
nan

>  <Num_Not_Resolved_Atoms>  (752) 
nan

$$$$
CHEMBL558642
     RDKit          3D

  0  0  0  0  0  0  0  0  0  0999 V3000
M  V30 BEGIN CTAB
M  V30 COUNTS 51 55 0 0 0
M  V30 BEGIN ATOM
M  V30 1 O 3.257358 -5.644052 1.226114 0
M  V30 2 C 2.209092 -5.000117 0.901384 0
M  V30 3 O 1.442009 -6.112599 1.175067 0
M  V30 4 C 2.147420 -3.603040 0.443346 0
M  V30 5 C 3.387144 -3.014648 0.396053 0
M  V30 6 C 3.425246 -1.705007 -0.018735 0
M  V30 7 C 2.252767 -1.065220 -0.356776 0
M  V30 8 C 2.374569 0.330816 -0.790541 0
M  V30 9 C 3.290503 0.872996 -1.689165 0
M  V30 10 N 3.055840 2.204391 -1.810474 0
M  V30 11 C 2.015668 2.560115 -1.022177 0
M  V30 12 N 1.466729 3.775166 -0.851350 0
M  V30 13 C 0.410097 3.927761 -0.000135 0
M  V30 14 C -0.051153 2.788972 0.659573 0
M  V30 15 C -1.180714 2.842561 1.595524 0
M  V30 16 C -1.247246 1.974512 2.678340 0
M  V30 17 C -2.277961 1.969932 3.595307 0
M  V30 18 C -3.319342 2.888873 3.432260 0
M  V30 19 C -3.266210 3.745978 2.374210 0
M  V30 20 C -2.233585 3.751343 1.454648 0
M  V30 21 C 0.536377 1.537153 0.465116 0
M  V30 22 C 1.602516 1.407748 -0.399765 0
M  V30 23 C 1.038410 -1.714010 -0.287339 0
M  V30 24 C 0.948216 -3.011656 0.117549 0
M  V30 25 C -0.329823 -3.733026 0.202803 0
M  V30 26 C -0.980525 -3.578921 1.568027 0
M  V30 27 C -2.451341 -3.629311 1.215871 0
M  V30 28 C -2.493751 -2.678367 0.013525 0
M  V30 29 C -1.343688 -3.271698 -0.805013 0
M  V30 30 H 1.039564 -6.222657 2.093533 0
M  V30 31 H 4.311190 -3.480745 0.650309 0
M  V30 32 H 4.382074 -1.173385 -0.080058 0
M  V30 33 H 4.027366 0.227616 -2.153557 0
M  V30 34 H 3.648888 2.771032 -2.443959 0
M  V30 35 H -0.130932 4.816821 0.241796 0
M  V30 36 H -0.481032 1.240797 2.866041 0
M  V30 37 H -2.322153 1.292791 4.433165 0
M  V30 38 H -4.145231 2.911382 4.136158 0
M  V30 39 H -4.070941 4.468101 2.234205 0
M  V30 40 H -2.180300 4.437390 0.598317 0
M  V30 41 H 0.159657 0.683427 0.986407 0
M  V30 42 H 0.174668 -1.137825 -0.569291 0
M  V30 43 H -0.160049 -4.834074 0.093019 0
M  V30 44 H -0.805066 -2.542687 1.966208 0
M  V30 45 H -0.686640 -4.350471 2.287300 0
M  V30 46 H -3.073564 -3.247875 2.043494 0
M  V30 47 H -2.684114 -4.659568 0.903620 0
M  V30 48 H -3.418263 -2.798084 -0.572586 0
M  V30 49 H -2.271006 -1.674339 0.370234 0
M  V30 50 H -0.985757 -2.508279 -1.511131 0
M  V30 51 H -1.765275 -4.162723 -1.331814 0
M  V30 END ATOM
M  V30 BEGIN BOND
M  V30 1 2 1 2
M  V30 2 1 2 3
M  V30 3 1 2 4
M  V30 4 2 4 5
M  V30 5 1 5 6
M  V30 6 2 6 7
M  V30 7 1 7 8
M  V30 8 2 8 9
M  V30 9 1 9 10
M  V30 10 1 10 11
M  V30 11 2 11 12
M  V30 12 1 12 13
M  V30 13 2 13 14
M  V30 14 1 14 15
M  V30 15 2 15 16
M  V30 16 1 16 17
M  V30 17 2 17 18
M  V30 18 1 18 19
M  V30 19 2 19 20
M  V30 20 1 14 21
M  V30 21 2 21 22
M  V30 22 1 7 23
M  V30 23 2 23 24
M  V30 24 1 24 25
M  V30 25 1 25 26
M  V30 26 1 26 27
M  V30 27 1 27 28
M  V30 28 1 28 29
M  V30 29 1 24 4
M  V30 30 1 29 25
M  V30 31 1 22 8
M  V30 32 1 22 11
M  V30 33 1 20 15
M  V30 34 1 3 30
M  V30 35 1 5 31
M  V30 36 1 6 32
M  V30 37 1 9 33
M  V30 38 1 10 34
M  V30 39 1 13 35
M  V30 40 1 16 36
M  V30 41 1 17 37
M  V30 42 1 18 38
M  V30 43 1 19 39
M  V30 44 1 20 40
M  V30 45 1 21 41
M  V30 46 1 23 42
M  V30 47 1 25 43
M  V30 48 1 26 44
M  V30 49 1 26 45
M  V30 50 1 27 46
M  V30 51 1 27 47
M  V30 52 1 28 48
M  V30 53 1 28 49
M  V30 54 1 29 50
M  V30 55 1 29 51
M  V30 END BOND
M  V30 END CTAB
M  END
>  <Dataset>  (753) 
ChEMBL_Kinases

>  <Ligand_Instance>  (753) 
nan

>  <PDB_ID>  (753) 
nan

>  <Standardized_SMILES>  (753) 
O=C(O)c1ccc(-c2c[nH]c3ncc(-c4ccccc4)cc23)cc1C1CCCC1

>  <Name>  (753) 
GSK-650394

>  <Pocket>  (753) 
nan

>  <ATP_Site>  (753) 
nan

>  <Peripheral>  (753) 
nan

>  <Num_H_Atoms_ProtBoundConf>  (753) 
nan

>  <Num_Resolved_Atoms>  (753) 
nan

>  <Num_Not_Resolved_Atoms>  (753) 
nan

$$$$
CHEMBL431568
     RDKit          3D

  0  0  0  0  0  0  0  0  0  0999 V3000
M  V30 BEGIN CTAB
M  V30 COUNTS 70 73 0 0 0
M  V30 BEGIN ATOM
M  V30 1 C 0.664241 5.809393 -4.208738 0
M  V30 2 C 0.058208 4.603654 -3.497985 0
M  V30 3 C -1.060191 4.028237 -4.379065 0
M  V30 4 O -0.492036 4.921153 -2.279005 0
M  V30 5 C -0.278460 4.474489 -1.020637 0
M  V30 6 O 0.580589 3.709273 -1.483496 0
M  V30 7 C -0.981872 4.946137 0.181049 0
M  V30 8 C -1.774417 6.040262 -0.069693 0
M  V30 9 C -2.337594 6.611993 1.041774 0
M  V30 10 C -2.136729 6.142812 2.310353 0
M  V30 11 C -1.315992 5.021052 2.476401 0
M  V30 12 O -1.181790 4.630974 3.808251 0
M  V30 13 C -0.709132 4.382885 1.387949 0
M  V30 14 C 0.122399 3.272550 1.723390 0
M  V30 15 O 0.619955 3.420219 2.899693 0
M  V30 16 C 0.619085 2.032699 1.239931 0
M  V30 17 C 1.780298 1.482726 1.721871 0
M  V30 18 O 2.583265 2.133835 2.651318 0
M  V30 19 C 2.214084 0.224818 1.292637 0
M  V30 20 C 1.490234 -0.498732 0.375566 0
M  V30 21 C 1.977318 -1.813205 -0.054459 0
M  V30 22 O 3.072044 -2.203538 0.472128 0
M  V30 23 O 1.254209 -2.526530 -0.968064 0
M  V30 24 C 1.578654 -3.792913 -1.483883 0 CFG=2
M  V30 25 C 1.668142 -3.747615 -3.018243 0
M  V30 26 C 1.383984 -5.178492 -3.455426 0
M  V30 27 C 0.842082 -5.883572 -2.226477 0
M  V30 28 C 0.423660 -4.740899 -1.361567 0 CFG=1
M  V30 29 N -0.009292 -5.060710 -0.061895 0
M  V30 30 C -1.298885 -4.774333 0.467707 0
M  V30 31 O -2.045976 -4.193339 -0.343667 0
M  V30 32 C -1.694738 -5.128130 1.820149 0
M  V30 33 C -0.900124 -5.772505 2.743431 0
M  V30 34 C -1.334014 -6.082407 4.017170 0
M  V30 35 C -2.623332 -5.713366 4.336881 0
M  V30 36 O -3.078220 -6.022767 5.629906 0
M  V30 37 C -3.485886 -5.065776 3.474450 0
M  V30 38 C -2.992570 -4.778335 2.200265 0
M  V30 39 C 0.319960 0.008964 -0.134998 0
M  V30 40 C -0.067623 1.246298 0.315208 0
M  V30 41 O -1.283127 1.629556 -0.285283 0
M  V30 42 H 1.555084 6.158109 -3.649226 0
M  V30 43 H -0.045736 6.659673 -4.240741 0
M  V30 44 H 0.957382 5.494097 -5.218615 0
M  V30 45 H 0.845668 3.836157 -3.507463 0
M  V30 46 H -2.011594 4.575867 -4.255768 0
M  V30 47 H -0.673356 4.057679 -5.420840 0
M  V30 48 H -1.159202 2.947371 -4.124576 0
M  V30 49 H -1.962319 6.446404 -1.044909 0
M  V30 50 H -2.971690 7.471864 0.923739 0
M  V30 51 H -2.609468 6.643831 3.140004 0
M  V30 52 H -1.584589 3.718184 4.025215 0
M  V30 53 H 2.629869 1.705948 3.572837 0
M  V30 54 H 3.138125 -0.169018 1.700854 0
M  V30 55 H 2.515978 -4.213278 -1.084153 0
M  V30 56 H 2.639973 -3.374690 -3.362757 0
M  V30 57 H 0.807736 -3.134437 -3.346089 0
M  V30 58 H 0.646661 -5.225299 -4.295149 0
M  V30 59 H 2.373719 -5.579414 -3.784670 0
M  V30 60 H 0.020944 -6.582373 -2.482933 0
M  V30 61 H 1.657446 -6.487532 -1.823001 0
M  V30 62 H -0.432246 -4.233992 -1.896373 0
M  V30 63 H 0.708123 -5.552177 0.538923 0
M  V30 64 H 0.098199 -6.032651 2.427833 0
M  V30 65 H -0.695596 -6.588800 4.728814 0
M  V30 66 H -4.070155 -6.157632 5.781787 0
M  V30 67 H -4.482235 -4.799175 3.770586 0
M  V30 68 H -3.699485 -4.272288 1.560561 0
M  V30 69 H -0.197600 -0.610304 -0.849494 0
M  V30 70 H -1.361195 1.692456 -1.293171 0
M  V30 END ATOM
M  V30 BEGIN BOND
M  V30 1 1 1 2
M  V30 2 1 2 3
M  V30 3 1 2 4
M  V30 4 1 4 5
M  V30 5 2 5 6
M  V30 6 1 5 7
M  V30 7 2 7 8
M  V30 8 1 8 9
M  V30 9 2 9 10
M  V30 10 1 10 11
M  V30 11 1 11 12
M  V30 12 2 11 13
M  V30 13 1 13 14
M  V30 14 2 14 15
M  V30 15 1 14 16
M  V30 16 2 16 17
M  V30 17 1 17 18
M  V30 18 1 17 19
M  V30 19 2 19 20
M  V30 20 1 20 21
M  V30 21 2 21 22
M  V30 22 1 21 23
M  V30 23 1 23 24
M  V30 24 1 24 25
M  V30 25 1 25 26
M  V30 26 1 26 27
M  V30 27 1 27 28
M  V30 28 1 28 29
M  V30 29 1 29 30
M  V30 30 2 30 31
M  V30 31 1 30 32
M  V30 32 2 32 33
M  V30 33 1 33 34
M  V30 34 2 34 35
M  V30 35 1 35 36
M  V30 36 1 35 37
M  V30 37 2 37 38
M  V30 38 1 20 39
M  V30 39 2 39 40
M  V30 40 1 40 41
M  V30 41 1 13 7
M  V30 42 1 40 16
M  V30 43 1 28 24
M  V30 44 1 38 32
M  V30 45 1 1 42
M  V30 46 1 1 43
M  V30 47 1 1 44
M  V30 48 1 2 45
M  V30 49 1 3 46
M  V30 50 1 3 47
M  V30 51 1 3 48
M  V30 52 1 8 49
M  V30 53 1 9 50
M  V30 54 1 10 51
M  V30 55 1 12 52
M  V30 56 1 18 53
M  V30 57 1 19 54
M  V30 58 1 24 55 CFG=1
M  V30 59 1 25 56
M  V30 60 1 25 57
M  V30 61 1 26 58
M  V30 62 1 26 59
M  V30 63 1 27 60
M  V30 64 1 27 61
M  V30 65 1 28 62 CFG=3
M  V30 66 1 29 63
M  V30 67 1 33 64
M  V30 68 1 34 65
M  V30 69 1 36 66
M  V30 70 1 37 67
M  V30 71 1 38 68
M  V30 72 1 39 69
M  V30 73 1 41 70
M  V30 END BOND
M  V30 END CTAB
M  END
>  <Dataset>  (754) 
ChEMBL_Kinases

>  <Ligand_Instance>  (754) 
nan

>  <PDB_ID>  (754) 
nan

>  <Standardized_SMILES>  (754) 
CC(C)OC(=O)c1cccc(O)c1C(=O)c1c(O)cc(C(=O)O[C@@H]2CCC[C@H]2NC(=O)c2ccc(O)cc2)cc1O

>  <Name>  (754) 
nan

>  <Pocket>  (754) 
nan

>  <ATP_Site>  (754) 
nan

>  <Peripheral>  (754) 
nan

>  <Num_H_Atoms_ProtBoundConf>  (754) 
nan

>  <Num_Resolved_Atoms>  (754) 
nan

>  <Num_Not_Resolved_Atoms>  (754) 
nan

$$$$
CHEMBL3182621
     RDKit          3D

  0  0  0  0  0  0  0  0  0  0999 V3000
M  V30 BEGIN CTAB
M  V30 COUNTS 42 43 0 0 0
M  V30 BEGIN ATOM
M  V30 1 C 2.651347 -4.295755 2.345339 0
M  V30 2 C 1.607274 -3.454143 1.715694 0
M  V30 3 C 1.941211 -2.279409 1.085330 0
M  V30 4 C 1.045792 -1.436201 0.479844 0
M  V30 5 C 1.325674 -0.190958 -0.206315 0
M  V30 6 O 0.474957 0.547100 -0.726150 0
M  V30 7 N 2.697761 0.119956 -0.235732 0
M  V30 8 O 3.578180 1.037374 -0.666119 0
M  V30 9 C 3.020204 2.133314 -1.282012 0
M  V30 10 C 4.036707 2.805882 -2.191142 0
M  V30 11 O 5.150554 3.225781 -1.450849 0
M  V30 12 C -0.295244 -1.839826 0.531968 0
M  V30 13 N -1.302849 -1.005791 -0.054228 0
M  V30 14 C -1.966542 -0.196977 0.924241 0
M  V30 15 C -1.687786 -0.234895 2.268542 0
M  V30 16 C -2.242733 0.479810 3.303483 0
M  V30 17 C -3.237213 1.373056 2.908740 0
M  V30 18 I -4.216091 2.559053 4.325135 0
M  V30 19 C -3.584786 1.476320 1.559941 0
M  V30 20 C -2.973239 0.713941 0.567110 0
M  V30 21 F -3.319442 0.828111 -0.725566 0
M  V30 22 N -0.700061 -2.993990 1.139043 0
M  V30 23 C -2.099814 -3.363950 1.158109 0
M  V30 24 C 0.271656 -3.742864 1.700263 0
M  V30 25 O -0.147067 -4.786914 2.244698 0
M  V30 26 H 2.261059 -4.880842 3.189478 0
M  V30 27 H 3.156285 -4.935606 1.609774 0
M  V30 28 H 3.436523 -3.626468 2.785444 0
M  V30 29 H 2.980794 -1.990024 1.058978 0
M  V30 30 H 3.558667 -0.316735 0.111544 0
M  V30 31 H 2.075858 1.941692 -1.803002 0
M  V30 32 H 2.815102 2.879236 -0.466591 0
M  V30 33 H 4.403617 2.044852 -2.902643 0
M  V30 34 H 3.578359 3.668400 -2.703326 0
M  V30 35 H 5.745488 3.778386 -2.010214 0
M  V30 36 H -1.632099 -0.884660 -1.043880 0
M  V30 37 H -0.906492 -0.930028 2.617533 0
M  V30 38 H -1.943008 0.362767 4.332223 0
M  V30 39 H -4.371416 2.186425 1.259736 0
M  V30 40 H -2.708925 -2.541889 0.793026 0
M  V30 41 H -2.428892 -3.840021 2.097071 0
M  V30 42 H -2.184477 -4.186057 0.387199 0
M  V30 END ATOM
M  V30 BEGIN BOND
M  V30 1 1 1 2
M  V30 2 2 2 3
M  V30 3 1 3 4
M  V30 4 1 4 5
M  V30 5 2 5 6
M  V30 6 1 5 7
M  V30 7 1 7 8
M  V30 8 1 8 9
M  V30 9 1 9 10
M  V30 10 1 10 11
M  V30 11 2 4 12
M  V30 12 1 12 13
M  V30 13 1 13 14
M  V30 14 2 14 15
M  V30 15 1 15 16
M  V30 16 2 16 17
M  V30 17 1 17 18
M  V30 18 1 17 19
M  V30 19 2 19 20
M  V30 20 1 20 21
M  V30 21 1 12 22
M  V30 22 1 22 23
M  V30 23 1 22 24
M  V30 24 2 24 25
M  V30 25 1 24 2
M  V30 26 1 20 14
M  V30 27 1 1 26
M  V30 28 1 1 27
M  V30 29 1 1 28
M  V30 30 1 3 29
M  V30 31 1 7 30
M  V30 32 1 9 31
M  V30 33 1 9 32
M  V30 34 1 10 33
M  V30 35 1 10 34
M  V30 36 1 11 35
M  V30 37 1 13 36
M  V30 38 1 15 37
M  V30 39 1 16 38
M  V30 40 1 19 39
M  V30 41 1 23 40
M  V30 42 1 23 41
M  V30 43 1 23 42
M  V30 END BOND
M  V30 END CTAB
M  END
>  <Dataset>  (755) 
ChEMBL_Kinases

>  <Ligand_Instance>  (755) 
nan

>  <PDB_ID>  (755) 
nan

>  <Standardized_SMILES>  (755) 
Cc1cc(C(=O)NOCCO)c(Nc2ccc(I)cc2F)n(C)c1=O

>  <Name>  (755) 
AZD-8330

>  <Pocket>  (755) 
nan

>  <ATP_Site>  (755) 
nan

>  <Peripheral>  (755) 
nan

>  <Num_H_Atoms_ProtBoundConf>  (755) 
nan

>  <Num_Resolved_Atoms>  (755) 
nan

>  <Num_Not_Resolved_Atoms>  (755) 
nan

$$$$
CHEMBL4764610
     RDKit          3D

  0  0  0  0  0  0  0  0  0  0999 V3000
M  V30 BEGIN CTAB
M  V30 COUNTS 65 69 0 0 0
M  V30 BEGIN ATOM
M  V30 1 C 3.249030 -3.756226 0.412645 0
M  V30 2 O 1.979767 -3.318601 0.003343 0
M  V30 3 C 1.409236 -2.097774 0.330334 0
M  V30 4 C 2.078719 -1.184427 1.117426 0
M  V30 5 C 1.458321 0.010851 1.407014 0
M  V30 6 C 2.196820 0.865151 2.198715 0
M  V30 7 O 3.343103 0.590521 2.628796 0
M  V30 8 C 1.652208 2.082929 2.536971 0
M  V30 9 C 2.111438 3.140285 3.291788 0
M  V30 10 C 3.314191 3.278671 3.955904 0
M  V30 11 C 3.501785 4.469867 4.643116 0
M  V30 12 C 2.538232 5.457302 4.659121 0
M  V30 13 C 2.790517 6.672745 5.390425 0
M  V30 14 N 2.980020 7.671445 5.976880 0
M  V30 15 C 1.358912 5.256617 3.975510 0
M  V30 16 C 1.116506 4.094433 3.275661 0
M  V30 17 N 0.114991 3.597394 2.532142 0
M  V30 18 C 0.404039 2.350627 2.053020 0
M  V30 19 N -0.398804 1.562282 1.262404 0
M  V30 20 C -1.704856 1.897257 0.783453 0
M  V30 21 C -2.884512 1.223239 1.413908 0
M  V30 22 C -1.828812 2.263204 -0.665999 0
M  V30 23 C 0.204784 0.393348 0.977693 0
M  V30 24 C -0.406353 -0.564350 0.197340 0
M  V30 25 F -1.630225 -0.365841 -0.309256 0
M  V30 26 C 0.148003 -1.782658 -0.136418 0
M  V30 27 N -0.514430 -2.748427 -0.946145 0
M  V30 28 C -1.335092 -3.707873 -0.238131 0
M  V30 29 C -1.639524 -4.800197 -1.271076 0 CFG=1
M  V30 30 C -2.219531 -6.027975 -0.646968 0
M  V30 31 N -2.480929 -4.237364 -2.297258 0
M  V30 32 C -2.821005 -5.313917 -3.214683 0
M  V30 33 C -1.744598 -3.230007 -3.034038 0 CFG=1
M  V30 34 C -2.606347 -1.989176 -3.260478 0
M  V30 35 C -0.437595 -2.850191 -2.395428 0
M  V30 36 H 3.227944 -4.294058 1.374780 0
M  V30 37 H 3.667880 -4.499765 -0.327006 0
M  V30 38 H 3.993625 -2.934349 0.475401 0
M  V30 39 H 3.063641 -1.428546 1.483126 0
M  V30 40 H 4.075106 2.503847 3.945741 0
M  V30 41 H 4.429043 4.639428 5.186497 0
M  V30 42 H 0.582169 6.020223 3.972250 0
M  V30 43 H -0.725748 4.176579 2.405184 0
M  V30 44 H -1.805508 2.930535 1.256946 0
M  V30 45 H -3.704320 0.974257 0.704803 0
M  V30 46 H -2.606124 0.347137 2.074568 0
M  V30 47 H -3.449438 1.850438 2.166811 0
M  V30 48 H -0.902248 2.019406 -1.269056 0
M  V30 49 H -1.899346 3.376313 -0.867572 0
M  V30 50 H -2.759110 1.902349 -1.154974 0
M  V30 51 H -2.271880 -3.287232 0.138786 0
M  V30 52 H -0.777917 -4.230356 0.571026 0
M  V30 53 H -0.640231 -5.023619 -1.741871 0
M  V30 54 H -1.667342 -6.252071 0.294037 0
M  V30 55 H -2.033707 -6.888228 -1.343155 0
M  V30 56 H -3.286337 -5.866358 -0.426297 0
M  V30 57 H -1.932548 -5.904773 -3.491049 0
M  V30 58 H -3.201087 -4.804825 -4.143507 0
M  V30 59 H -3.623091 -5.915342 -2.748232 0
M  V30 60 H -1.487700 -3.606076 -4.067767 0
M  V30 61 H -1.993448 -1.092669 -3.090851 0
M  V30 62 H -3.488976 -1.949548 -2.616456 0
M  V30 63 H -2.985338 -1.931716 -4.305786 0
M  V30 64 H 0.392469 -3.512034 -2.661752 0
M  V30 65 H -0.169505 -1.829918 -2.797566 0
M  V30 END ATOM
M  V30 BEGIN BOND
M  V30 1 1 1 2
M  V30 2 1 2 3
M  V30 3 2 3 4
M  V30 4 1 4 5
M  V30 5 1 5 6
M  V30 6 2 6 7
M  V30 7 1 6 8
M  V30 8 1 8 9
M  V30 9 2 9 10
M  V30 10 1 10 11
M  V30 11 2 11 12
M  V30 12 1 12 13
M  V30 13 3 13 14
M  V30 14 1 12 15
M  V30 15 2 15 16
M  V30 16 1 16 17
M  V30 17 1 17 18
M  V30 18 1 18 19
M  V30 19 1 19 20
M  V30 20 1 20 21
M  V30 21 1 20 22
M  V30 22 1 19 23
M  V30 23 1 23 24
M  V30 24 1 24 25
M  V30 25 2 24 26
M  V30 26 1 26 27
M  V30 27 1 27 28
M  V30 28 1 28 29
M  V30 29 1 29 30
M  V30 30 1 29 31
M  V30 31 1 31 32
M  V30 32 1 31 33
M  V30 33 1 33 34
M  V30 34 1 33 35
M  V30 35 1 26 3
M  V30 36 1 35 27
M  V30 37 2 23 5
M  V30 38 2 18 8
M  V30 39 1 16 9
M  V30 40 1 1 36
M  V30 41 1 1 37
M  V30 42 1 1 38
M  V30 43 1 4 39
M  V30 44 1 10 40
M  V30 45 1 11 41
M  V30 46 1 15 42
M  V30 47 1 17 43
M  V30 48 1 20 44
M  V30 49 1 21 45
M  V30 50 1 21 46
M  V30 51 1 21 47
M  V30 52 1 22 48
M  V30 53 1 22 49
M  V30 54 1 22 50
M  V30 55 1 28 51
M  V30 56 1 28 52
M  V30 57 1 29 53 CFG=3
M  V30 58 1 30 54
M  V30 59 1 30 55
M  V30 60 1 30 56
M  V30 61 1 32 57
M  V30 62 1 32 58
M  V30 63 1 32 59
M  V30 64 1 33 60 CFG=3
M  V30 65 1 34 61
M  V30 66 1 34 62
M  V30 67 1 34 63
M  V30 68 1 35 64
M  V30 69 1 35 65
M  V30 END BOND
M  V30 END CTAB
M  END
>  <Dataset>  (756) 
ChEMBL_Kinases

>  <Ligand_Instance>  (756) 
nan

>  <PDB_ID>  (756) 
nan

>  <Standardized_SMILES>  (756) 
COc1cc2c(=O)c3c4ccc(C#N)cc4[nH]c3n(C(C)C)c2c(F)c1N1C[C@@H](C)N(C)[C@@H](C)C1

>  <Name>  (756) 
nan

>  <Pocket>  (756) 
nan

>  <ATP_Site>  (756) 
nan

>  <Peripheral>  (756) 
nan

>  <Num_H_Atoms_ProtBoundConf>  (756) 
nan

>  <Num_Resolved_Atoms>  (756) 
nan

>  <Num_Not_Resolved_Atoms>  (756) 
nan

$$$$
CHEMBL264406
     RDKit          3D

  0  0  0  0  0  0  0  0  0  0999 V3000
M  V30 BEGIN CTAB
M  V30 COUNTS 43 46 0 0 0
M  V30 BEGIN ATOM
M  V30 1 C -2.445441 -2.326565 -0.391455 0
M  V30 2 C -2.703539 -1.179952 0.559238 0
M  V30 3 C -3.477382 -1.680526 1.755057 0
M  V30 4 C -3.460502 -0.126761 -0.224757 0
M  V30 5 N -1.485051 -0.582497 1.035712 0
M  V30 6 N -0.301433 -1.133404 0.939331 0
M  V30 7 C 0.646348 -0.326122 1.478152 0
M  V30 8 C 2.042294 -0.740886 1.474139 0
M  V30 9 C 2.837653 -0.866757 2.590440 0
M  V30 10 C 4.152318 -1.273471 2.546490 0
M  V30 11 C 4.717327 -1.574748 1.325190 0
M  V30 12 C 3.955473 -1.461700 0.181828 0
M  V30 13 C 4.574256 -1.774782 -1.016687 0
M  V30 14 C 3.869972 -1.680991 -2.196838 0
M  V30 15 C 2.551706 -1.274075 -2.164168 0
M  V30 16 C 1.995425 -0.977558 -0.939074 0
M  V30 17 C 2.648184 -1.052442 0.271318 0
M  V30 18 C 0.009404 0.783647 1.931338 0
M  V30 19 C 0.497681 1.902231 2.551130 0
M  V30 20 N 1.905982 2.007861 2.807573 0
M  V30 21 N -0.354448 2.879809 2.903183 0
M  V30 22 C -1.661644 2.709514 2.625284 0
M  V30 23 N -2.152611 1.593285 2.005922 0
M  V30 24 C -1.326094 0.602557 1.644122 0
M  V30 25 H -3.446136 -2.711032 -0.695580 0
M  V30 26 H -1.972859 -1.928551 -1.314186 0
M  V30 27 H -1.900527 -3.152511 0.071775 0
M  V30 28 H -2.755335 -2.291738 2.350316 0
M  V30 29 H -3.840355 -0.794629 2.318071 0
M  V30 30 H -4.339469 -2.306284 1.429431 0
M  V30 31 H -4.499721 -0.067937 0.170230 0
M  V30 32 H -2.971731 0.879884 -0.153992 0
M  V30 33 H -3.468570 -0.354379 -1.327943 0
M  V30 34 H 2.391978 -0.629647 3.559288 0
M  V30 35 H 4.710952 -1.344458 3.490640 0
M  V30 36 H 5.752712 -1.898955 1.256841 0
M  V30 37 H 5.592929 -2.096907 -1.122374 0
M  V30 38 H 4.293601 -1.911757 -3.170565 0
M  V30 39 H 2.004985 -1.201389 -3.076832 0
M  V30 40 H 0.960607 -0.662899 -0.987759 0
M  V30 41 H 2.535164 1.835739 3.639300 0
M  V30 42 H 2.272416 2.342581 1.867157 0
M  V30 43 H -2.381551 3.469821 2.892502 0
M  V30 END ATOM
M  V30 BEGIN BOND
M  V30 1 1 1 2
M  V30 2 1 2 3
M  V30 3 1 2 4
M  V30 4 1 2 5
M  V30 5 1 5 6
M  V30 6 2 6 7
M  V30 7 1 7 8
M  V30 8 2 8 9
M  V30 9 1 9 10
M  V30 10 2 10 11
M  V30 11 1 11 12
M  V30 12 2 12 13
M  V30 13 1 13 14
M  V30 14 2 14 15
M  V30 15 1 15 16
M  V30 16 2 16 17
M  V30 17 1 7 18
M  V30 18 2 18 19
M  V30 19 1 19 20
M  V30 20 1 19 21
M  V30 21 2 21 22
M  V30 22 1 22 23
M  V30 23 2 23 24
M  V30 24 1 24 5
M  V30 25 1 17 8
M  V30 26 1 24 18
M  V30 27 1 17 12
M  V30 28 1 1 25
M  V30 29 1 1 26
M  V30 30 1 1 27
M  V30 31 1 3 28
M  V30 32 1 3 29
M  V30 33 1 3 30
M  V30 34 1 4 31
M  V30 35 1 4 32
M  V30 36 1 4 33
M  V30 37 1 9 34
M  V30 38 1 10 35
M  V30 39 1 11 36
M  V30 40 1 13 37
M  V30 41 1 14 38
M  V30 42 1 15 39
M  V30 43 1 16 40
M  V30 44 1 20 41
M  V30 45 1 20 42
M  V30 46 1 22 43
M  V30 END BOND
M  V30 END CTAB
M  END
>  <Dataset>  (757) 
ChEMBL_Kinases

>  <Ligand_Instance>  (757) 
nan

>  <PDB_ID>  (757) 
nan

>  <Standardized_SMILES>  (757) 
CC(C)(C)n1nc(-c2cccc3ccccc23)c2c(N)ncnc21

>  <Name>  (757) 
nan

>  <Pocket>  (757) 
nan

>  <ATP_Site>  (757) 
nan

>  <Peripheral>  (757) 
nan

>  <Num_H_Atoms_ProtBoundConf>  (757) 
nan

>  <Num_Resolved_Atoms>  (757) 
nan

>  <Num_Not_Resolved_Atoms>  (757) 
nan

$$$$
CHEMBL261720
     RDKit          3D

  0  0  0  0  0  0  0  0  0  0999 V3000
M  V30 BEGIN CTAB
M  V30 COUNTS 41 43 0 0 0
M  V30 BEGIN ATOM
M  V30 1 N -1.427353 -0.313349 5.220739 0
M  V30 2 C -0.371264 -0.589692 4.327723 0
M  V30 3 N 0.929113 -0.522792 4.049523 0
M  V30 4 C 1.262304 -1.059376 2.886139 0
M  V30 5 N 2.537162 -1.132175 2.200748 0
M  V30 6 C 2.524016 -0.039869 1.280891 0
M  V30 7 C 1.669937 1.039378 1.322806 0
M  V30 8 C 1.621240 2.077471 0.411735 0
M  V30 9 C 2.489406 2.066989 -0.645965 0
M  V30 10 S 2.386248 3.388106 -1.785031 0
M  V30 11 N 3.450389 4.644977 -1.315046 0
M  V30 12 O 0.964396 3.910712 -1.740877 0
M  V30 13 O 2.686060 2.834122 -3.150884 0
M  V30 14 C 3.385318 1.012283 -0.760952 0
M  V30 15 C 3.378451 -0.007193 0.201000 0
M  V30 16 N 0.057804 -1.499289 2.406055 0
M  V30 17 N -0.926728 -1.204553 3.289587 0
M  V30 18 C -1.946933 -1.705301 2.417208 0
M  V30 19 S -3.124694 -0.981745 3.370893 0
M  V30 20 N -3.011457 -2.101569 1.694340 0
M  V30 21 C -2.358789 -2.861647 0.654876 0
M  V30 22 C -1.617573 -2.218940 -0.339028 0
M  V30 23 F -1.474934 -0.872354 -0.326185 0
M  V30 24 C -1.020839 -2.979523 -1.335361 0
M  V30 25 C -1.119906 -4.372012 -1.403550 0
M  V30 26 C -1.857985 -4.968552 -0.407061 0
M  V30 27 C -2.456512 -4.226116 0.589889 0
M  V30 28 F -3.149393 -4.923687 1.504450 0
M  V30 29 H -1.962796 0.602404 5.158364 0
M  V30 30 H -1.712801 -1.023010 5.960278 0
M  V30 31 H 3.337930 -1.780075 2.282268 0
M  V30 32 H 0.954671 1.117062 2.139493 0
M  V30 33 H 0.910807 2.884742 0.525260 0
M  V30 34 H 3.048952 5.586980 -1.537004 0
M  V30 35 H 4.374841 4.474080 -1.744402 0
M  V30 36 H 4.057894 1.025455 -1.603066 0
M  V30 37 H 4.104115 -0.778777 0.024900 0
M  V30 38 H -3.973601 -2.187951 1.424924 0
M  V30 39 H -0.463326 -2.427841 -2.070781 0
M  V30 40 H -0.652259 -4.931851 -2.183826 0
M  V30 41 H -1.949073 -6.051572 -0.439988 0
M  V30 END ATOM
M  V30 BEGIN BOND
M  V30 1 1 1 2
M  V30 2 2 2 3
M  V30 3 1 3 4
M  V30 4 1 4 5
M  V30 5 1 5 6
M  V30 6 2 6 7
M  V30 7 1 7 8
M  V30 8 2 8 9
M  V30 9 1 9 10
M  V30 10 1 10 11
M  V30 11 2 10 12
M  V30 12 2 10 13
M  V30 13 1 9 14
M  V30 14 2 14 15
M  V30 15 2 4 16
M  V30 16 1 16 17
M  V30 17 1 17 18
M  V30 18 2 18 19
M  V30 19 1 18 20
M  V30 20 1 20 21
M  V30 21 2 21 22
M  V30 22 1 22 23
M  V30 23 1 22 24
M  V30 24 2 24 25
M  V30 25 1 25 26
M  V30 26 2 26 27
M  V30 27 1 27 28
M  V30 28 1 17 2
M  V30 29 1 27 21
M  V30 30 1 15 6
M  V30 31 1 1 29
M  V30 32 1 1 30
M  V30 33 1 5 31
M  V30 34 1 7 32
M  V30 35 1 8 33
M  V30 36 1 11 34
M  V30 37 1 11 35
M  V30 38 1 14 36
M  V30 39 1 15 37
M  V30 40 1 20 38
M  V30 41 1 24 39
M  V30 42 1 25 40
M  V30 43 1 26 41
M  V30 END BOND
M  V30 END CTAB
M  END
>  <Dataset>  (758) 
ChEMBL_Kinases

>  <Ligand_Instance>  (758) 
nan

>  <PDB_ID>  (758) 
nan

>  <Standardized_SMILES>  (758) 
Nc1nc(Nc2ccc(S(N)(=O)=O)cc2)nn1C(=S)Nc1c(F)cccc1F

>  <Name>  (758) 
nan

>  <Pocket>  (758) 
nan

>  <ATP_Site>  (758) 
nan

>  <Peripheral>  (758) 
nan

>  <Num_H_Atoms_ProtBoundConf>  (758) 
nan

>  <Num_Resolved_Atoms>  (758) 
nan

>  <Num_Not_Resolved_Atoms>  (758) 
nan

$$$$
CHEMBL513147
     RDKit          3D

  0  0  0  0  0  0  0  0  0  0999 V3000
M  V30 BEGIN CTAB
M  V30 COUNTS 53 58 0 0 0
M  V30 BEGIN ATOM
M  V30 1 C -0.695763 -8.282523 0.853528 0
M  V30 2 C -0.526616 -7.086762 1.513925 0
M  V30 3 C 0.389273 -6.185554 1.000640 0
M  V30 4 C 1.127470 -6.433995 -0.128200 0
M  V30 5 C 2.050663 -5.520712 -0.641711 0
M  V30 6 C 2.161899 -4.282252 0.123492 0
M  V30 7 C 3.060584 -4.132084 1.174950 0
M  V30 8 N 2.910543 -2.883967 1.663139 0
M  V30 9 N 1.969872 -2.238655 0.980923 0
M  V30 10 C 1.432314 -1.001804 1.043307 0
M  V30 11 C 0.422540 -0.602925 0.157614 0
M  V30 12 C -0.071781 0.766134 0.336539 0
M  V30 13 C 0.754728 1.776698 0.786929 0
M  V30 14 C 0.257109 3.058358 0.945160 0
M  V30 15 C -1.048444 3.389019 0.671689 0
M  V30 16 N -1.554885 4.701879 0.832403 0
M  V30 17 C -0.828061 5.888342 1.240699 0
M  V30 18 C -1.285666 6.384589 2.592107 0
M  V30 19 N -2.551135 5.798011 2.978804 0
M  V30 20 C -3.476724 5.727827 1.865733 0
M  V30 21 C -2.912805 5.127350 0.622803 0
M  V30 22 C -1.869760 2.382060 0.223550 0
M  V30 23 C -1.383617 1.099961 0.062045 0
M  V30 24 C -0.044271 -1.478109 -0.804232 0
M  V30 25 N 0.519318 -2.724725 -0.843657 0
M  V30 26 C 1.489142 -3.078383 0.022540 0
M  V30 27 C 2.751706 -5.849496 -1.781689 0
M  V30 28 C 2.538677 -7.067628 -2.402229 0
M  V30 29 N 1.639332 -7.944985 -1.892896 0
M  V30 30 C 0.947606 -7.647882 -0.788133 0
M  V30 31 C 0.033100 -8.555355 -0.281230 0
M  V30 32 H -1.430423 -8.950849 1.305066 0
M  V30 33 H -1.079925 -6.822443 2.417478 0
M  V30 34 H 0.523307 -5.232960 1.527840 0
M  V30 35 H 3.799462 -4.809667 1.622152 0
M  V30 36 H 1.838243 -0.345975 1.824732 0
M  V30 37 H 1.785834 1.535731 1.007659 0
M  V30 38 H 0.979303 3.776047 1.301817 0
M  V30 39 H 0.246779 5.636786 1.325903 0
M  V30 40 H -0.923880 6.705424 0.488945 0
M  V30 41 H -1.474849 7.472227 2.501137 0
M  V30 42 H -0.539026 6.179698 3.356728 0
M  V30 43 H -2.327066 4.798401 3.222736 0
M  V30 44 H -3.773300 6.775537 1.660396 0
M  V30 45 H -4.406849 5.224930 2.204460 0
M  V30 46 H -2.913663 5.923123 -0.180434 0
M  V30 47 H -3.606910 4.316117 0.312135 0
M  V30 48 H -2.897993 2.481916 -0.028930 0
M  V30 49 H -1.992676 0.277483 -0.287544 0
M  V30 50 H -0.824233 -1.134264 -1.469770 0
M  V30 51 H 3.450398 -5.107518 -2.133111 0
M  V30 52 H 3.114661 -7.299505 -3.311002 0
M  V30 53 H -0.167480 -9.516656 -0.729329 0
M  V30 END ATOM
M  V30 BEGIN BOND
M  V30 1 2 1 2
M  V30 2 1 2 3
M  V30 3 2 3 4
M  V30 4 1 4 5
M  V30 5 1 5 6
M  V30 6 1 6 7
M  V30 7 2 7 8
M  V30 8 1 8 9
M  V30 9 1 9 10
M  V30 10 2 10 11
M  V30 11 1 11 12
M  V30 12 2 12 13
M  V30 13 1 13 14
M  V30 14 2 14 15
M  V30 15 1 15 16
M  V30 16 1 16 17
M  V30 17 1 17 18
M  V30 18 1 18 19
M  V30 19 1 19 20
M  V30 20 1 20 21
M  V30 21 1 15 22
M  V30 22 2 22 23
M  V30 23 1 11 24
M  V30 24 2 24 25
M  V30 25 1 25 26
M  V30 26 2 5 27
M  V30 27 1 27 28
M  V30 28 2 28 29
M  V30 29 1 29 30
M  V30 30 2 30 31
M  V30 31 1 31 1
M  V30 32 1 30 4
M  V30 33 2 26 6
M  V30 34 1 26 9
M  V30 35 1 23 12
M  V30 36 1 21 16
M  V30 37 1 1 32
M  V30 38 1 2 33
M  V30 39 1 3 34
M  V30 40 1 7 35
M  V30 41 1 10 36
M  V30 42 1 13 37
M  V30 43 1 14 38
M  V30 44 1 17 39
M  V30 45 1 17 40
M  V30 46 1 18 41
M  V30 47 1 18 42
M  V30 48 1 19 43
M  V30 49 1 20 44
M  V30 50 1 20 45
M  V30 51 1 21 46
M  V30 52 1 21 47
M  V30 53 1 22 48
M  V30 54 1 23 49
M  V30 55 1 24 50
M  V30 56 1 27 51
M  V30 57 1 28 52
M  V30 58 1 31 53
M  V30 END BOND
M  V30 END CTAB
M  END
>  <Dataset>  (759) 
ChEMBL_Kinases

>  <Ligand_Instance>  (759) 
nan

>  <PDB_ID>  (759) 
nan

>  <Standardized_SMILES>  (759) 
c1ccc2c(-c3cnn4cc(-c5ccc(N6CCNCC6)cc5)cnc34)ccnc2c1

>  <Name>  (759) 
nan

>  <Pocket>  (759) 
nan

>  <ATP_Site>  (759) 
nan

>  <Peripheral>  (759) 
nan

>  <Num_H_Atoms_ProtBoundConf>  (759) 
nan

>  <Num_Resolved_Atoms>  (759) 
nan

>  <Num_Not_Resolved_Atoms>  (759) 
nan

$$$$
CHEMBL4755256
     RDKit          3D

  0  0  0  0  0  0  0  0  0  0999 V3000
M  V30 BEGIN CTAB
M  V30 COUNTS 52 54 0 0 0
M  V30 BEGIN ATOM
M  V30 1 C 3.011214 -2.478280 3.770053 0
M  V30 2 O 3.197232 -1.834861 2.522581 0
M  V30 3 C 4.266896 -0.957034 2.345073 0
M  V30 4 C 5.144110 -0.717663 3.390701 0
M  V30 5 C 6.235579 0.138783 3.306938 0
M  V30 6 F 7.047403 0.312421 4.393341 0
M  V30 7 C 6.442867 0.781667 2.100553 0
M  V30 8 C 5.588712 0.568025 1.034223 0
M  V30 9 C 4.503694 -0.297390 1.152273 0
M  V30 10 C 3.568746 -0.568437 0.077263 0
M  V30 11 C 2.435624 0.206797 -0.075003 0
M  V30 12 C 1.585564 -0.102583 -1.117975 0
M  V30 13 N 0.423682 0.743946 -1.220259 0
M  V30 14 C -0.635785 0.185380 -0.452172 0
M  V30 15 O -0.293108 -0.904718 0.122102 0
M  V30 16 C -1.987147 0.750023 -0.299290 0 CFG=1
M  V30 17 C -2.710557 0.879112 -1.623252 0
M  V30 18 C -3.013915 -0.450011 -2.262385 0
M  V30 19 C -3.721509 -1.393022 -1.317307 0
M  V30 20 C -4.068526 -0.609740 -0.082770 0 CFG=1
M  V30 21 N -4.906096 -1.318506 0.830996 0
M  V30 22 C -6.204958 -1.029849 1.352097 0
M  V30 23 C -6.812605 -2.005071 2.312655 0
M  V30 24 O -6.954142 -0.056301 1.131650 0
M  V30 25 C -2.787079 -0.162645 0.579801 0
M  V30 26 N 1.822663 -1.118377 -1.975909 0
M  V30 27 C 2.911365 -1.904447 -1.872589 0
M  V30 28 C 3.778456 -1.610081 -0.830826 0
M  V30 29 Cl 5.203408 -2.615743 -0.671421 0
M  V30 30 H 3.054877 -1.756137 4.610159 0
M  V30 31 H 1.984824 -2.910638 3.809670 0
M  V30 32 H 3.723793 -3.298737 3.937919 0
M  V30 33 H 5.000842 -1.206274 4.334270 0
M  V30 34 H 7.289205 1.454984 2.012728 0
M  V30 35 H 5.730076 1.061752 0.074416 0
M  V30 36 H 2.248176 1.019319 0.613103 0
M  V30 37 H 0.214470 1.650419 -1.726836 0
M  V30 38 H -1.965371 1.768838 0.146101 0
M  V30 39 H -1.952999 1.363215 -2.307470 0
M  V30 40 H -3.541838 1.579236 -1.577049 0
M  V30 41 H -2.066903 -0.859915 -2.664743 0
M  V30 42 H -3.627801 -0.210489 -3.165238 0
M  V30 43 H -3.002942 -2.205369 -1.075725 0
M  V30 44 H -4.604899 -1.767037 -1.859292 0
M  V30 45 H -4.607327 0.312109 -0.384435 0
M  V30 46 H -4.433216 -2.191287 1.136869 0
M  V30 47 H -7.636599 -2.508723 1.752606 0
M  V30 48 H -7.282143 -1.476198 3.158998 0
M  V30 49 H -6.076979 -2.710161 2.707721 0
M  V30 50 H -3.040753 0.353634 1.534078 0
M  V30 51 H -2.224144 -1.072251 0.847099 0
M  V30 52 H 3.110204 -2.718228 -2.552403 0
M  V30 END ATOM
M  V30 BEGIN BOND
M  V30 1 1 1 2
M  V30 2 1 2 3
M  V30 3 2 3 4
M  V30 4 1 4 5
M  V30 5 1 5 6
M  V30 6 2 5 7
M  V30 7 1 7 8
M  V30 8 2 8 9
M  V30 9 1 9 10
M  V30 10 2 10 11
M  V30 11 1 11 12
M  V30 12 1 12 13
M  V30 13 1 13 14
M  V30 14 2 14 15
M  V30 15 1 14 16
M  V30 16 1 16 17
M  V30 17 1 17 18
M  V30 18 1 18 19
M  V30 19 1 19 20
M  V30 20 1 20 21
M  V30 21 1 21 22
M  V30 22 1 22 23
M  V30 23 2 22 24
M  V30 24 1 20 25
M  V30 25 2 12 26
M  V30 26 1 26 27
M  V30 27 2 27 28
M  V30 28 1 28 29
M  V30 29 1 9 3
M  V30 30 1 28 10
M  V30 31 1 25 16
M  V30 32 1 1 30
M  V30 33 1 1 31
M  V30 34 1 1 32
M  V30 35 1 4 33
M  V30 36 1 7 34
M  V30 37 1 8 35
M  V30 38 1 11 36
M  V30 39 1 13 37
M  V30 40 1 16 38 CFG=1
M  V30 41 1 17 39
M  V30 42 1 17 40
M  V30 43 1 18 41
M  V30 44 1 18 42
M  V30 45 1 19 43
M  V30 46 1 19 44
M  V30 47 1 20 45 CFG=3
M  V30 48 1 21 46
M  V30 49 1 23 47
M  V30 50 1 23 48
M  V30 51 1 23 49
M  V30 52 1 25 50
M  V30 53 1 25 51
M  V30 54 1 27 52
M  V30 END BOND
M  V30 END CTAB
M  END
>  <Dataset>  (760) 
ChEMBL_Kinases

>  <Ligand_Instance>  (760) 
nan

>  <PDB_ID>  (760) 
nan

>  <Standardized_SMILES>  (760) 
COc1cc(F)ccc1-c1cc(NC(=O)[C@H]2CCC[C@@H](NC(C)=O)C2)ncc1Cl

>  <Name>  (760) 
nan

>  <Pocket>  (760) 
nan

>  <ATP_Site>  (760) 
nan

>  <Peripheral>  (760) 
nan

>  <Num_H_Atoms_ProtBoundConf>  (760) 
nan

>  <Num_Resolved_Atoms>  (760) 
nan

>  <Num_Not_Resolved_Atoms>  (760) 
nan

$$$$
CHEMBL4227082
     RDKit          3D

  0  0  0  0  0  0  0  0  0  0999 V3000
M  V30 BEGIN CTAB
M  V30 COUNTS 44 48 0 0 0
M  V30 BEGIN ATOM
M  V30 1 C 3.221845 -4.876791 1.776524 0
M  V30 2 C 2.909252 -3.443420 1.539219 0
M  V30 3 C 3.562380 -2.600228 0.670721 0
M  V30 4 N 3.293924 -1.328745 0.450666 0
M  V30 5 C 3.835232 -0.403570 -0.349242 0
M  V30 6 C 4.938649 -0.469140 -1.284061 0
M  V30 7 C 5.841679 -1.392379 -1.740428 0
M  V30 8 N 6.678686 -0.868806 -2.652894 0
M  V30 9 N 6.369114 0.401434 -2.834977 0
M  V30 10 C 5.333215 0.652623 -2.024731 0
M  V30 11 C 3.069830 0.735340 -0.089150 0
M  V30 12 N 2.138253 0.437642 0.826201 0
M  V30 13 C 2.258424 -0.845792 1.178688 0
M  V30 14 C 1.535653 -1.600703 2.076285 0
M  V30 15 N 0.462651 -0.973092 2.782941 0
M  V30 16 C -0.899622 -1.062210 2.156763 0
M  V30 17 C -2.064658 -0.508990 2.681384 0
M  V30 18 C -3.131788 -0.772468 1.868369 0
M  V30 19 C -4.540897 -0.316590 2.132607 0
M  V30 20 C -4.776554 0.981891 1.459945 0
M  V30 21 C -4.529558 2.176624 2.087840 0
M  V30 22 C -4.789592 3.322072 1.361623 0
M  V30 23 C -5.268593 3.286254 0.081157 0
M  V30 24 C -5.496291 2.035244 -0.494746 0
M  V30 25 N -5.251747 0.904950 0.190403 0
M  V30 26 N -3.043166 -1.523229 0.638388 0
M  V30 27 S -1.265230 -1.864532 0.682486 0
M  V30 28 N 1.874284 -2.912437 2.249675 0
M  V30 29 H 3.476066 -5.068238 2.828899 0
M  V30 30 H 2.260788 -5.419028 1.545395 0
M  V30 31 H 3.962562 -5.263186 1.063638 0
M  V30 32 H 4.367248 -3.068289 0.137841 0
M  V30 33 H 5.868522 -2.407647 -1.402498 0
M  V30 34 H 6.872605 1.028319 -3.495788 0
M  V30 35 H 4.920579 1.663576 -2.024069 0
M  V30 36 H 3.137014 1.730929 -0.500776 0
M  V30 37 H 0.494796 -0.454714 3.684988 0
M  V30 38 H -2.170819 0.051442 3.585705 0
M  V30 39 H -5.302594 -1.041263 1.841843 0
M  V30 40 H -4.656281 -0.165367 3.238384 0
M  V30 41 H -4.151335 2.220959 3.100070 0
M  V30 42 H -4.595559 4.266180 1.856663 0
M  V30 43 H -5.475395 4.160062 -0.496105 0
M  V30 44 H -5.875688 1.924495 -1.508259 0
M  V30 END ATOM
M  V30 BEGIN BOND
M  V30 1 1 1 2
M  V30 2 2 2 3
M  V30 3 1 3 4
M  V30 4 1 4 5
M  V30 5 1 5 6
M  V30 6 1 6 7
M  V30 7 2 7 8
M  V30 8 1 8 9
M  V30 9 1 9 10
M  V30 10 2 5 11
M  V30 11 1 11 12
M  V30 12 2 12 13
M  V30 13 1 13 14
M  V30 14 1 14 15
M  V30 15 1 15 16
M  V30 16 2 16 17
M  V30 17 1 17 18
M  V30 18 1 18 19
M  V30 19 1 19 20
M  V30 20 2 20 21
M  V30 21 1 21 22
M  V30 22 2 22 23
M  V30 23 1 23 24
M  V30 24 2 24 25
M  V30 25 2 18 26
M  V30 26 1 26 27
M  V30 27 2 14 28
M  V30 28 1 28 2
M  V30 29 1 13 4
M  V30 30 1 27 16
M  V30 31 2 10 6
M  V30 32 1 25 20
M  V30 33 1 1 29
M  V30 34 1 1 30
M  V30 35 1 1 31
M  V30 36 1 3 32
M  V30 37 1 7 33
M  V30 38 1 9 34
M  V30 39 1 10 35
M  V30 40 1 11 36
M  V30 41 1 15 37
M  V30 42 1 17 38
M  V30 43 1 19 39
M  V30 44 1 19 40
M  V30 45 1 21 41
M  V30 46 1 22 42
M  V30 47 1 23 43
M  V30 48 1 24 44
M  V30 END BOND
M  V30 END CTAB
M  END
>  <Dataset>  (761) 
ChEMBL_Kinases

>  <Ligand_Instance>  (761) 
nan

>  <PDB_ID>  (761) 
nan

>  <Standardized_SMILES>  (761) 
Cc1cn2c(-c3cn[nH]c3)cnc2c(Nc2cc(Cc3ccccn3)ns2)n1

>  <Name>  (761) 
nan

>  <Pocket>  (761) 
nan

>  <ATP_Site>  (761) 
nan

>  <Peripheral>  (761) 
nan

>  <Num_H_Atoms_ProtBoundConf>  (761) 
nan

>  <Num_Resolved_Atoms>  (761) 
nan

>  <Num_Not_Resolved_Atoms>  (761) 
nan

$$$$
CHEMBL4798975
     RDKit          3D

  0  0  0  0  0  0  0  0  0  0999 V3000
M  V30 BEGIN CTAB
M  V30 COUNTS 59 63 0 0 0
M  V30 BEGIN ATOM
M  V30 1 N 5.767227 -2.759031 6.313144 0
M  V30 2 S 5.408891 -3.054364 4.639036 0
M  V30 3 O 6.683839 -3.141388 3.854872 0
M  V30 4 O 4.706996 -4.367150 4.558993 0
M  V30 5 C 4.396790 -1.744365 4.046902 0
M  V30 6 C 3.037940 -1.750787 4.085082 0
M  V30 7 C 2.279615 -0.699258 3.608292 0
M  V30 8 C 2.884702 0.416838 3.065774 0
M  V30 9 C 2.219251 1.597958 2.524757 0
M  V30 10 C 2.886556 2.818504 2.640972 0
M  V30 11 N 2.307772 3.922660 2.156640 0
M  V30 12 C 1.101619 3.846693 1.568523 0
M  V30 13 N 0.272131 4.741885 1.016487 0
M  V30 14 N -0.841024 4.176486 0.571923 0
M  V30 15 C -0.806146 2.853846 0.809306 0
M  V30 16 C -1.912768 1.999653 0.452969 0
M  V30 17 O -3.030339 2.637383 0.409788 0
M  V30 18 C -2.124157 0.610935 0.125930 0
M  V30 19 C -3.368146 0.064705 0.351823 0
M  V30 20 F -4.412416 0.764737 0.905110 0
M  V30 21 C -3.583889 -1.272046 0.001135 0
M  V30 22 C -2.611129 -2.063782 -0.558435 0
M  V30 23 C -1.366152 -1.507179 -0.782538 0
M  V30 24 N -0.407780 -2.389354 -1.347277 0
M  V30 25 S -0.695725 -3.796217 -2.278462 0
M  V30 26 O 0.672688 -4.367169 -2.637575 0
M  V30 27 O -1.344687 -4.874884 -1.446369 0
M  V30 28 C -1.531008 -3.527557 -3.788028 0
M  V30 29 C -2.854063 -2.922582 -3.715955 0
M  V30 30 C -4.015881 -3.659031 -3.542819 0
M  V30 31 C -5.255702 -3.043980 -3.496538 0
M  V30 32 C -5.401572 -1.661152 -3.620623 0
M  V30 33 C -4.245072 -0.944131 -3.791372 0
M  V30 34 C -3.019094 -1.536267 -3.838719 0
M  V30 35 C -1.161577 -0.192125 -0.435627 0
M  V30 36 F 0.075828 0.221835 -0.749800 0
M  V30 37 C 0.408989 2.665588 1.431519 0
M  V30 38 C 0.981943 1.512391 1.922681 0
M  V30 39 C 4.283820 0.383839 3.045179 0
M  V30 40 C 5.057260 -0.655550 3.515828 0
M  V30 41 H 6.777226 -2.601431 6.417276 0
M  V30 42 H 5.192067 -1.982442 6.659536 0
M  V30 43 H 2.534828 -2.616048 4.506727 0
M  V30 44 H 1.203348 -0.682470 3.628245 0
M  V30 45 H 3.849217 2.969757 3.094030 0
M  V30 46 H 0.411744 5.770938 0.911563 0
M  V30 47 H -4.565214 -1.684461 0.185496 0
M  V30 48 H -2.867742 -3.075338 -0.793368 0
M  V30 49 H 0.574050 -2.054162 -1.108843 0
M  V30 50 H -0.884289 -2.818005 -4.386573 0
M  V30 51 H -1.509960 -4.480693 -4.359309 0
M  V30 52 H -3.923433 -4.738196 -3.444008 0
M  V30 53 H -6.172933 -3.605187 -3.361790 0
M  V30 54 H -6.334184 -1.148944 -3.590742 0
M  V30 55 H -4.336623 0.148591 -3.891551 0
M  V30 56 H -2.128376 -0.950049 -3.973554 0
M  V30 57 H 0.453433 0.585103 1.835666 0
M  V30 58 H 4.811648 1.231929 2.631146 0
M  V30 59 H 6.138533 -0.590421 3.457073 0
M  V30 END ATOM
M  V30 BEGIN BOND
M  V30 1 1 1 2
M  V30 2 2 2 3
M  V30 3 2 2 4
M  V30 4 1 2 5
M  V30 5 2 5 6
M  V30 6 1 6 7
M  V30 7 2 7 8
M  V30 8 1 8 9
M  V30 9 2 9 10
M  V30 10 1 10 11
M  V30 11 2 11 12
M  V30 12 1 12 13
M  V30 13 1 13 14
M  V30 14 2 14 15
M  V30 15 1 15 16
M  V30 16 2 16 17
M  V30 17 1 16 18
M  V30 18 2 18 19
M  V30 19 1 19 20
M  V30 20 1 19 21
M  V30 21 2 21 22
M  V30 22 1 22 23
M  V30 23 1 23 24
M  V30 24 1 24 25
M  V30 25 2 25 26
M  V30 26 2 25 27
M  V30 27 1 25 28
M  V30 28 1 28 29
M  V30 29 2 29 30
M  V30 30 1 30 31
M  V30 31 2 31 32
M  V30 32 1 32 33
M  V30 33 2 33 34
M  V30 34 2 23 35
M  V30 35 1 35 36
M  V30 36 1 15 37
M  V30 37 2 37 38
M  V30 38 1 8 39
M  V30 39 2 39 40
M  V30 40 1 40 5
M  V30 41 1 38 9
M  V30 42 1 37 12
M  V30 43 1 35 18
M  V30 44 1 34 29
M  V30 45 1 1 41
M  V30 46 1 1 42
M  V30 47 1 6 43
M  V30 48 1 7 44
M  V30 49 1 10 45
M  V30 50 1 13 46
M  V30 51 1 21 47
M  V30 52 1 22 48
M  V30 53 1 24 49
M  V30 54 1 28 50
M  V30 55 1 28 51
M  V30 56 1 30 52
M  V30 57 1 31 53
M  V30 58 1 32 54
M  V30 59 1 33 55
M  V30 60 1 34 56
M  V30 61 1 38 57
M  V30 62 1 39 58
M  V30 63 1 40 59
M  V30 END BOND
M  V30 END CTAB
M  END
>  <Dataset>  (762) 
ChEMBL_Kinases

>  <Ligand_Instance>  (762) 
nan

>  <PDB_ID>  (762) 
nan

>  <Standardized_SMILES>  (762) 
NS(=O)(=O)c1ccc(-c2cnc3[nH]nc(C(=O)c4c(F)ccc(NS(=O)(=O)Cc5ccccc5)c4F)c3c2)cc1

>  <Name>  (762) 
nan

>  <Pocket>  (762) 
nan

>  <ATP_Site>  (762) 
nan

>  <Peripheral>  (762) 
nan

>  <Num_H_Atoms_ProtBoundConf>  (762) 
nan

>  <Num_Resolved_Atoms>  (762) 
nan

>  <Num_Not_Resolved_Atoms>  (762) 
nan

$$$$
CHEMBL3670422
     RDKit          3D

  0  0  0  0  0  0  0  0  0  0999 V3000
M  V30 BEGIN CTAB
M  V30 COUNTS 51 54 0 0 0
M  V30 BEGIN ATOM
M  V30 1 N 2.632106 -2.565952 6.217321 0
M  V30 2 C 2.993529 -3.464519 5.175180 0
M  V30 3 O 3.213711 -4.667277 5.472095 0
M  V30 4 C 3.118825 -3.049471 3.780875 0
M  V30 5 C 3.473243 -4.000455 2.858387 0
M  V30 6 C 3.591695 -3.607192 1.538991 0
M  V30 7 C 3.350050 -2.288670 1.215123 0
M  V30 8 C 2.994050 -1.308088 2.105714 0
M  V30 9 C 2.764134 -0.004628 1.727730 0
M  V30 10 N 2.887286 0.405209 0.379243 0
M  V30 11 C 2.667065 1.743707 -0.122802 0
M  V30 12 C 1.280463 2.237061 0.074860 0
M  V30 13 C 0.739168 2.998078 1.084068 0
M  V30 14 C -0.597051 3.334092 1.076272 0
M  V30 15 C -1.472714 2.945671 0.084348 0
M  V30 16 C -0.944109 2.181883 -0.935475 0
M  V30 17 N -1.836903 1.774698 -1.965340 0
M  V30 18 C -2.541119 0.549845 -1.845828 0
M  V30 19 O -2.312892 -0.115712 -0.788915 0
M  V30 20 N -3.462941 0.002222 -2.778021 0
M  V30 21 C -4.028174 -1.260818 -2.393445 0
M  V30 22 C -5.197812 -1.233342 -1.657067 0
M  V30 23 C -5.804261 -2.424541 -1.248121 0
M  V30 24 C -5.174215 -3.610350 -1.618422 0
M  V30 25 C -4.005231 -3.626874 -2.354636 0
M  V30 26 C -3.419737 -2.426721 -2.750579 0
M  V30 27 Cl -1.950858 -2.384057 -3.677083 0
M  V30 28 C 0.384649 1.848628 -0.925882 0
M  V30 29 N 2.422594 0.871330 2.673898 0
M  V30 30 C 2.317738 0.452135 3.942833 0
M  V30 31 N 2.538522 -0.831896 4.351845 0
M  V30 32 C 2.888526 -1.746944 3.406938 0
M  V30 33 H 1.605874 -2.490529 6.382685 0
M  V30 34 H 3.213005 -1.955444 6.860744 0
M  V30 35 H 3.653238 -5.020169 3.153017 0
M  V30 36 H 3.871377 -4.362227 0.817503 0
M  V30 37 H 3.468059 -2.085343 0.168220 0
M  V30 38 H 3.155524 -0.248286 -0.386966 0
M  V30 39 H 2.904476 1.841081 -1.200126 0
M  V30 40 H 3.340475 2.425305 0.455633 0
M  V30 41 H 1.441368 3.294736 1.838047 0
M  V30 42 H -0.915024 3.940982 1.928783 0
M  V30 43 H -2.490147 3.272600 0.193692 0
M  V30 44 H -2.035186 2.317553 -2.847131 0
M  V30 45 H -3.618301 0.594852 -3.641416 0
M  V30 46 H -5.665565 -0.290697 -1.383552 0
M  V30 47 H -6.718791 -2.453842 -0.671209 0
M  V30 48 H -5.649518 -4.541741 -1.297962 0
M  V30 49 H -3.546184 -4.570548 -2.622641 0
M  V30 50 H 0.687720 1.248901 -1.773008 0
M  V30 51 H 2.035967 1.229058 4.646243 0
M  V30 END ATOM
M  V30 BEGIN BOND
M  V30 1 1 1 2
M  V30 2 2 2 3
M  V30 3 1 2 4
M  V30 4 2 4 5
M  V30 5 1 5 6
M  V30 6 2 6 7
M  V30 7 1 7 8
M  V30 8 2 8 9
M  V30 9 1 9 10
M  V30 10 1 10 11
M  V30 11 1 11 12
M  V30 12 2 12 13
M  V30 13 1 13 14
M  V30 14 2 14 15
M  V30 15 1 15 16
M  V30 16 1 16 17
M  V30 17 1 17 18
M  V30 18 2 18 19
M  V30 19 1 18 20
M  V30 20 1 20 21
M  V30 21 2 21 22
M  V30 22 1 22 23
M  V30 23 2 23 24
M  V30 24 1 24 25
M  V30 25 2 25 26
M  V30 26 1 26 27
M  V30 27 2 16 28
M  V30 28 1 9 29
M  V30 29 2 29 30
M  V30 30 1 30 31
M  V30 31 2 31 32
M  V30 32 1 32 4
M  V30 33 1 32 8
M  V30 34 1 28 12
M  V30 35 1 26 21
M  V30 36 1 1 33
M  V30 37 1 1 34
M  V30 38 1 5 35
M  V30 39 1 6 36
M  V30 40 1 7 37
M  V30 41 1 10 38
M  V30 42 1 11 39
M  V30 43 1 11 40
M  V30 44 1 13 41
M  V30 45 1 14 42
M  V30 46 1 15 43
M  V30 47 1 17 44
M  V30 48 1 20 45
M  V30 49 1 22 46
M  V30 50 1 23 47
M  V30 51 1 24 48
M  V30 52 1 25 49
M  V30 53 1 28 50
M  V30 54 1 30 51
M  V30 END BOND
M  V30 END CTAB
M  END
>  <Dataset>  (763) 
ChEMBL_Kinases

>  <Ligand_Instance>  (763) 
nan

>  <PDB_ID>  (763) 
nan

>  <Standardized_SMILES>  (763) 
NC(=O)c1cccc2c(NCc3cccc(NC(=O)Nc4ccccc4Cl)c3)ncnc12

>  <Name>  (763) 
nan

>  <Pocket>  (763) 
nan

>  <ATP_Site>  (763) 
nan

>  <Peripheral>  (763) 
nan

>  <Num_H_Atoms_ProtBoundConf>  (763) 
nan

>  <Num_Resolved_Atoms>  (763) 
nan

>  <Num_Not_Resolved_Atoms>  (763) 
nan

$$$$
CHEMBL4294912
     RDKit          3D

  0  0  0  0  0  0  0  0  0  0999 V3000
M  V30 BEGIN CTAB
M  V30 COUNTS 38 43 0 0 0
M  V30 BEGIN ATOM
M  V30 1 O 4.040614 -0.188194 1.267337 0
M  V30 2 C 2.947602 -0.712422 1.516837 0
M  V30 3 N 3.014013 -1.745454 2.474190 0
M  V30 4 C 1.664375 -2.284937 2.683850 0
M  V30 5 C 0.855220 -1.440795 1.743162 0
M  V30 6 C 1.604529 -0.517421 1.057046 0
M  V30 7 C 1.013043 0.307841 0.179273 0
M  V30 8 C 1.540376 1.289034 -0.606208 0
M  V30 9 C 2.734925 1.878022 -0.893512 0
M  V30 10 C 2.937841 2.903502 -1.787474 0
M  V30 11 O 4.183540 3.461917 -2.036126 0
M  V30 12 C 1.825380 3.402341 -2.476422 0
M  V30 13 C 0.593749 2.836840 -2.218346 0
M  V30 14 C 0.477585 1.813445 -1.308089 0
M  V30 15 N -0.667824 1.161947 -0.953367 0
M  V30 16 C -0.343253 0.232839 -0.036745 0
M  V30 17 C -1.105527 -0.692094 0.648076 0
M  V30 18 N -2.440527 -0.938165 0.592770 0
M  V30 19 C -2.733557 -1.944663 1.450522 0
M  V30 20 C -3.915357 -2.576111 1.779313 0
M  V30 21 C -3.825468 -3.593730 2.727551 0
M  V30 22 C -2.645721 -3.981098 3.328802 0
M  V30 23 C -1.477482 -3.319720 2.969830 0
M  V30 24 C -1.538073 -2.314422 2.038991 0
M  V30 25 C -0.503320 -1.543284 1.551781 0
M  V30 26 H 3.762425 -2.195577 3.042214 0
M  V30 27 H 1.420762 -2.087143 3.733733 0
M  V30 28 H 1.637183 -3.342161 2.377942 0
M  V30 29 H 3.620174 1.554882 -0.412683 0
M  V30 30 H 4.636742 3.223024 -2.921275 0
M  V30 31 H 1.925323 4.204489 -3.188026 0
M  V30 32 H -0.265373 3.217797 -2.746492 0
M  V30 33 H -1.633160 1.321005 -1.301136 0
M  V30 34 H -3.117547 -0.421783 -0.020855 0
M  V30 35 H -4.843922 -2.283671 1.317449 0
M  V30 36 H -4.734599 -4.112035 3.010212 0
M  V30 37 H -2.624337 -4.776554 4.059767 0
M  V30 38 H -0.545636 -3.618625 3.438290 0
M  V30 END ATOM
M  V30 BEGIN BOND
M  V30 1 2 1 2
M  V30 2 1 2 3
M  V30 3 1 3 4
M  V30 4 1 4 5
M  V30 5 2 5 6
M  V30 6 1 6 7
M  V30 7 1 7 8
M  V30 8 2 8 9
M  V30 9 1 9 10
M  V30 10 1 10 11
M  V30 11 2 10 12
M  V30 12 1 12 13
M  V30 13 2 13 14
M  V30 14 1 14 15
M  V30 15 1 15 16
M  V30 16 1 16 17
M  V30 17 1 17 18
M  V30 18 1 18 19
M  V30 19 2 19 20
M  V30 20 1 20 21
M  V30 21 2 21 22
M  V30 22 1 22 23
M  V30 23 2 23 24
M  V30 24 1 24 25
M  V30 25 1 6 2
M  V30 26 2 16 7
M  V30 27 2 25 17
M  V30 28 1 25 5
M  V30 29 1 14 8
M  V30 30 1 24 19
M  V30 31 1 3 26
M  V30 32 1 4 27
M  V30 33 1 4 28
M  V30 34 1 9 29
M  V30 35 1 11 30
M  V30 36 1 12 31
M  V30 37 1 13 32
M  V30 38 1 15 33
M  V30 39 1 18 34
M  V30 40 1 20 35
M  V30 41 1 21 36
M  V30 42 1 22 37
M  V30 43 1 23 38
M  V30 END BOND
M  V30 END CTAB
M  END
>  <Dataset>  (764) 
ChEMBL_Kinases

>  <Ligand_Instance>  (764) 
nan

>  <PDB_ID>  (764) 
nan

>  <Standardized_SMILES>  (764) 
O=C1NCc2c1c1c3cc(O)ccc3[nH]c1c1[nH]c3ccccc3c21

>  <Name>  (764) 
nan

>  <Pocket>  (764) 
nan

>  <ATP_Site>  (764) 
nan

>  <Peripheral>  (764) 
nan

>  <Num_H_Atoms_ProtBoundConf>  (764) 
nan

>  <Num_Resolved_Atoms>  (764) 
nan

>  <Num_Not_Resolved_Atoms>  (764) 
nan

$$$$
CHEMBL5082336
     RDKit          3D

  0  0  0  0  0  0  0  0  0  0999 V3000
M  V30 BEGIN CTAB
M  V30 COUNTS 41 44 0 0 0
M  V30 BEGIN ATOM
M  V30 1 N -0.012448 1.141333 -2.069117 0
M  V30 2 C 1.097258 1.159057 -2.369756 0
M  V30 3 C 2.486840 1.197373 -2.726415 0
M  V30 4 C 2.847273 0.491815 -3.851800 0
M  V30 5 C 4.168657 0.538086 -4.238127 0
M  V30 6 C 5.096205 1.262365 -3.526832 0
M  V30 7 Cl 6.756344 1.318590 -4.016184 0
M  V30 8 C 4.636858 1.928610 -2.422454 0
M  V30 9 C 3.321400 1.952624 -1.937254 0
M  V30 10 S 2.907784 2.812775 -0.508416 0
M  V30 11 O 4.081987 3.692077 -0.147121 0
M  V30 12 O 1.788305 3.792142 -0.849308 0
M  V30 13 N 2.461719 1.852859 0.834601 0
M  V30 14 C 1.528833 0.905743 1.296751 0
M  V30 15 C 0.800346 1.159947 2.449723 0
M  V30 16 C -0.168358 0.346454 2.991002 0
M  V30 17 C -0.380753 -0.807639 2.269862 0
M  V30 18 C -1.402643 -1.730894 2.781948 0
M  V30 19 N -1.653514 -2.877472 2.114764 0
M  V30 20 C -2.563327 -3.788858 2.493650 0
M  V30 21 C -3.295574 -3.538592 3.646533 0
M  V30 22 C -4.284225 -4.236580 4.310257 0
M  V30 23 N -4.788060 -5.494742 3.870647 0
M  V30 24 N -4.610855 -3.470056 5.388987 0
M  V30 25 N -3.871088 -2.369856 5.390478 0
M  V30 26 C -3.039942 -2.366823 4.329338 0
M  V30 27 N -2.111174 -1.486159 3.899711 0
M  V30 28 C 0.268328 -1.185906 1.113190 0
M  V30 29 C 1.214095 -0.282508 0.678958 0
M  V30 30 H 2.126292 -0.075845 -4.411382 0
M  V30 31 H 4.509559 0.003463 -5.114005 0
M  V30 32 H 5.403691 2.498377 -1.875659 0
M  V30 33 H 3.116635 1.971369 1.673369 0
M  V30 34 H 1.026118 2.102790 2.972389 0
M  V30 35 H -0.704213 0.590182 3.887514 0
M  V30 36 H -2.734605 -4.698583 1.928746 0
M  V30 37 H -5.145359 -5.524864 2.875798 0
M  V30 38 H -5.153944 -5.574344 2.890526 0
M  V30 39 H -3.971044 -1.640773 6.146833 0
M  V30 40 H 0.050123 -2.109300 0.598381 0
M  V30 41 H 1.749309 -0.554287 -0.215048 0
M  V30 END ATOM
M  V30 BEGIN BOND
M  V30 1 3 1 2
M  V30 2 1 2 3
M  V30 3 2 3 4
M  V30 4 1 4 5
M  V30 5 2 5 6
M  V30 6 1 6 7
M  V30 7 1 6 8
M  V30 8 2 8 9
M  V30 9 1 9 10
M  V30 10 2 10 11
M  V30 11 2 10 12
M  V30 12 1 10 13
M  V30 13 1 13 14
M  V30 14 2 14 15
M  V30 15 1 15 16
M  V30 16 2 16 17
M  V30 17 1 17 18
M  V30 18 2 18 19
M  V30 19 1 19 20
M  V30 20 2 20 21
M  V30 21 1 21 22
M  V30 22 1 22 23
M  V30 23 2 22 24
M  V30 24 1 24 25
M  V30 25 1 25 26
M  V30 26 2 26 27
M  V30 27 1 17 28
M  V30 28 2 28 29
M  V30 29 1 9 3
M  V30 30 1 29 14
M  V30 31 1 27 18
M  V30 32 1 26 21
M  V30 33 1 4 30
M  V30 34 1 5 31
M  V30 35 1 8 32
M  V30 36 1 13 33
M  V30 37 1 15 34
M  V30 38 1 16 35
M  V30 39 1 20 36
M  V30 40 1 23 37
M  V30 41 1 23 38
M  V30 42 1 25 39
M  V30 43 1 28 40
M  V30 44 1 29 41
M  V30 END BOND
M  V30 END CTAB
M  END
>  <Dataset>  (765) 
ChEMBL_Kinases

>  <Ligand_Instance>  (765) 
nan

>  <PDB_ID>  (765) 
nan

>  <Standardized_SMILES>  (765) 
N#Cc1ccc(Cl)cc1S(=O)(=O)Nc1ccc(-c2ncc3c(N)n[nH]c3n2)cc1

>  <Name>  (765) 
nan

>  <Pocket>  (765) 
nan

>  <ATP_Site>  (765) 
nan

>  <Peripheral>  (765) 
nan

>  <Num_H_Atoms_ProtBoundConf>  (765) 
nan

>  <Num_Resolved_Atoms>  (765) 
nan

>  <Num_Not_Resolved_Atoms>  (765) 
nan

$$$$
CHEMBL5073598
     RDKit          3D

  0  0  0  0  0  0  0  0  0  0999 V3000
M  V30 BEGIN CTAB
M  V30 COUNTS 42 45 0 0 0
M  V30 BEGIN ATOM
M  V30 1 C -3.415413 -3.048533 -2.848268 0
M  V30 2 C -3.023376 -1.963976 -1.903647 0
M  V30 3 N -1.840075 -1.928336 -1.315630 0
M  V30 4 C -1.412884 -0.992977 -0.458229 0
M  V30 5 N -0.120388 -1.186225 0.081372 0
M  V30 6 C 0.710901 -2.293507 -0.316731 0
M  V30 7 C 1.151768 -2.222118 -1.744655 0
M  V30 8 C 2.089962 -1.182535 -1.834548 0
M  V30 9 F 2.544044 -0.350968 -0.853485 0
M  V30 10 C 2.711598 -0.863784 -3.048583 0
M  V30 11 C 2.390227 -1.593453 -4.183677 0
M  V30 12 C 1.469184 -2.609133 -4.076806 0
M  V30 13 C 0.858316 -2.924914 -2.888731 0
M  V30 14 F -0.037211 -3.910387 -2.656087 0
M  V30 15 C -2.275717 0.028531 -0.156057 0
M  V30 16 C -2.147625 1.115429 0.671356 0
M  V30 17 C -1.041999 1.537776 1.503238 0
M  V30 18 C -1.383011 2.499086 2.443074 0
M  V30 19 C -0.610097 3.108513 3.407900 0
M  V30 20 N 0.684186 2.703866 3.441679 0
M  V30 21 C 1.105187 1.774833 2.567422 0
M  V30 22 N 2.393496 1.194284 2.401436 0
M  V30 23 N 0.218510 1.322727 1.734772 0
M  V30 24 C -3.388118 1.761973 0.542601 0
M  V30 25 N -4.142010 1.068251 -0.305120 0
M  V30 26 C -3.507741 -0.005886 -0.764967 0
M  V30 27 N -3.876992 -0.973154 -1.616715 0
M  V30 28 H -4.281426 -2.742169 -3.447562 0
M  V30 29 H -3.778480 -3.921272 -2.234470 0
M  V30 30 H -2.552905 -3.332779 -3.461993 0
M  V30 31 H 0.546591 -0.792495 0.738322 0
M  V30 32 H 1.567698 -2.455342 0.322392 0
M  V30 33 H 0.109058 -3.266746 -0.223381 0
M  V30 34 H 3.433813 -0.094710 -3.213622 0
M  V30 35 H 2.819845 -1.415290 -5.156516 0
M  V30 36 H 1.149994 -3.235819 -4.898229 0
M  V30 37 H -2.406111 2.912810 2.528868 0
M  V30 38 H -0.929674 3.851906 4.115797 0
M  V30 39 H 3.407972 1.431749 2.348250 0
M  V30 40 H 3.422671 1.288360 2.330876 0
M  V30 41 H -3.705394 2.654366 1.023130 0
M  V30 42 H -5.106998 1.331430 -0.576155 0
M  V30 END ATOM
M  V30 BEGIN BOND
M  V30 1 1 1 2
M  V30 2 2 2 3
M  V30 3 1 3 4
M  V30 4 1 4 5
M  V30 5 1 5 6
M  V30 6 1 6 7
M  V30 7 2 7 8
M  V30 8 1 8 9
M  V30 9 1 8 10
M  V30 10 2 10 11
M  V30 11 1 11 12
M  V30 12 2 12 13
M  V30 13 1 13 14
M  V30 14 2 4 15
M  V30 15 1 15 16
M  V30 16 1 16 17
M  V30 17 2 17 18
M  V30 18 1 18 19
M  V30 19 2 19 20
M  V30 20 1 20 21
M  V30 21 1 21 22
M  V30 22 2 21 23
M  V30 23 2 16 24
M  V30 24 1 24 25
M  V30 25 1 25 26
M  V30 26 2 26 27
M  V30 27 1 27 2
M  V30 28 1 13 7
M  V30 29 1 26 15
M  V30 30 1 23 17
M  V30 31 1 1 28
M  V30 32 1 1 29
M  V30 33 1 1 30
M  V30 34 1 5 31
M  V30 35 1 6 32
M  V30 36 1 6 33
M  V30 37 1 10 34
M  V30 38 1 11 35
M  V30 39 1 12 36
M  V30 40 1 18 37
M  V30 41 1 19 38
M  V30 42 1 22 39
M  V30 43 1 22 40
M  V30 44 1 24 41
M  V30 45 1 25 42
M  V30 END BOND
M  V30 END CTAB
M  END
>  <Dataset>  (766) 
ChEMBL_Kinases

>  <Ligand_Instance>  (766) 
nan

>  <PDB_ID>  (766) 
nan

>  <Standardized_SMILES>  (766) 
Cc1nc(NCc2c(F)cccc2F)c2c(-c3ccnc(N)n3)c[nH]c2n1

>  <Name>  (766) 
nan

>  <Pocket>  (766) 
nan

>  <ATP_Site>  (766) 
nan

>  <Peripheral>  (766) 
nan

>  <Num_H_Atoms_ProtBoundConf>  (766) 
nan

>  <Num_Resolved_Atoms>  (766) 
nan

>  <Num_Not_Resolved_Atoms>  (766) 
nan

$$$$
CHEMBL258805
     RDKit          3D

  0  0  0  0  0  0  0  0  0  0999 V3000
M  V30 BEGIN CTAB
M  V30 COUNTS 29 31 0 0 0
M  V30 BEGIN ATOM
M  V30 1 C -1.867903 -3.945567 3.303118 0
M  V30 2 O -0.483388 -4.026757 3.136838 0
M  V30 3 C 0.255714 -3.131913 2.400502 0
M  V30 4 C 1.589302 -3.460257 2.413598 0
M  V30 5 C 2.549155 -2.698751 1.736172 0
M  V30 6 C 2.103556 -1.587577 1.041802 0
M  V30 7 C 0.759885 -1.264341 1.033195 0
M  V30 8 C -0.187631 -2.027493 1.709943 0
M  V30 9 C 0.497722 -0.062386 0.255209 0
M  V30 10 C -0.601762 0.592260 -0.073568 0
M  V30 11 C -0.632250 1.811164 -0.875426 0
M  V30 12 C -1.298936 2.235885 -2.028873 0
M  V30 13 N -0.925322 3.529248 -2.247177 0
M  V30 14 C -0.080107 3.873098 -1.283933 0
M  V30 15 N 0.129061 2.841914 -0.412882 0
M  V30 16 C 1.843102 0.310984 -0.211322 0
M  V30 17 O 2.217234 1.266794 -0.923799 0
M  V30 18 N 2.813361 -0.617375 0.268784 0
M  V30 19 H -2.434197 -4.091602 2.372268 0
M  V30 20 H -2.238336 -4.685317 4.056361 0
M  V30 21 H -2.172779 -2.941110 3.707646 0
M  V30 22 H 2.061684 -4.306748 2.922867 0
M  V30 23 H 3.607498 -2.919896 1.720839 0
M  V30 24 H -1.247559 -1.827800 1.740871 0
M  V30 25 H -1.524014 0.166474 0.294156 0
M  V30 26 H -1.960128 1.510858 -2.522843 0
M  V30 27 H 0.295724 4.909093 -1.356756 0
M  V30 28 H 0.798270 3.126898 0.356445 0
M  V30 29 H 3.855940 -0.632178 0.114660 0
M  V30 END ATOM
M  V30 BEGIN BOND
M  V30 1 1 1 2
M  V30 2 1 2 3
M  V30 3 2 3 4
M  V30 4 1 4 5
M  V30 5 2 5 6
M  V30 6 1 6 7
M  V30 7 2 7 8
M  V30 8 1 7 9
M  V30 9 2 9 10
M  V30 10 1 10 11
M  V30 11 2 11 12
M  V30 12 1 12 13
M  V30 13 2 13 14
M  V30 14 1 14 15
M  V30 15 1 9 16
M  V30 16 2 16 17
M  V30 17 1 16 18
M  V30 18 1 8 3
M  V30 19 1 15 11
M  V30 20 1 18 6
M  V30 21 1 1 19
M  V30 22 1 1 20
M  V30 23 1 1 21
M  V30 24 1 4 22
M  V30 25 1 5 23
M  V30 26 1 8 24
M  V30 27 1 10 25
M  V30 28 1 12 26
M  V30 29 1 14 27
M  V30 30 1 15 28
M  V30 31 1 18 29
M  V30 END BOND
M  V30 END CTAB
M  END
>  <Dataset>  (767) 
ChEMBL_Kinases

>  <Ligand_Instance>  (767) 
nan

>  <PDB_ID>  (767) 
nan

>  <Standardized_SMILES>  (767) 
COc1ccc2c(c1)/C(=C/c1cnc[nH]1)C(=O)N2

>  <Name>  (767) 
SU-9516

>  <Pocket>  (767) 
nan

>  <ATP_Site>  (767) 
nan

>  <Peripheral>  (767) 
nan

>  <Num_H_Atoms_ProtBoundConf>  (767) 
nan

>  <Num_Resolved_Atoms>  (767) 
nan

>  <Num_Not_Resolved_Atoms>  (767) 
nan

$$$$
CHEMBL5082933
     RDKit          3D

  0  0  0  0  0  0  0  0  0  0999 V3000
M  V30 BEGIN CTAB
M  V30 COUNTS 51 52 0 0 0
M  V30 BEGIN ATOM
M  V30 1 C 4.016219 -1.842099 4.166629 0
M  V30 2 C 4.581546 -0.604152 3.474167 0
M  V30 3 C 6.099490 -0.556890 3.714878 0
M  V30 4 C 4.264925 -0.657337 2.025276 0
M  V30 5 C 2.782980 -0.699796 1.727212 0 CFG=2
M  V30 6 C 2.136898 0.514394 2.268661 0
M  V30 7 N 2.245872 -1.902748 2.340635 0
M  V30 8 C 2.585810 -0.911767 0.229096 0
M  V30 9 O 1.341138 -1.101662 -0.232845 0
M  V30 10 C 0.142911 -0.571233 -0.371862 0
M  V30 11 C -0.444796 0.629770 -0.052776 0
M  V30 12 C -1.740067 1.036887 -0.272860 0
M  V30 13 C -2.528441 0.095401 -0.898026 0
M  V30 14 C -3.912705 0.428427 -1.174955 0
M  V30 15 C -4.306317 1.740908 -1.457560 0
M  V30 16 C -5.662299 1.957836 -1.710336 0
M  V30 17 N -6.556673 0.962110 -1.686337 0
M  V30 18 C -6.180028 -0.296235 -1.415508 0
M  V30 19 C -7.235092 -1.340625 -1.408477 0
M  V30 20 F -7.838290 -1.375709 -2.646228 0
M  V30 21 F -8.208860 -0.982150 -0.480996 0
M  V30 22 C -4.851383 -0.584052 -1.155262 0
M  V30 23 C -2.063903 -1.144877 -1.270989 0
M  V30 24 C -0.726744 -1.476823 -1.006965 0
M  V30 25 C -0.316981 -2.842632 -1.449184 0
M  V30 26 F 0.712056 -2.699692 -2.363802 0
M  V30 27 F 0.214991 -3.491935 -0.351049 0
M  V30 28 F -1.350099 -3.529373 -2.002188 0
M  V30 29 H 4.660085 -2.072029 5.060419 0
M  V30 30 H 3.005422 -1.691487 4.561688 0
M  V30 31 H 4.096717 -2.743700 3.534097 0
M  V30 32 H 4.195273 0.259790 4.032899 0
M  V30 33 H 6.341711 -1.048071 4.680294 0
M  V30 34 H 6.643836 -0.997335 2.870203 0
M  V30 35 H 6.425376 0.498404 3.799346 0
M  V30 36 H 4.638054 0.264814 1.489407 0
M  V30 37 H 4.754466 -1.543675 1.539897 0
M  V30 38 H 2.502189 0.885450 3.239434 0
M  V30 39 H 1.039792 0.355068 2.423943 0
M  V30 40 H 2.300627 1.385196 1.565972 0
M  V30 41 H 2.378819 -2.738552 1.763894 0
M  V30 42 H 1.292302 -1.781911 2.734372 0
M  V30 43 H 3.182497 -1.860579 0.010377 0
M  V30 44 H 3.173259 -0.104664 -0.296832 0
M  V30 45 H 0.205921 1.337157 0.416786 0
M  V30 46 H -2.056479 2.020505 0.038511 0
M  V30 47 H -3.558747 2.528346 -1.469721 0
M  V30 48 H -5.991575 2.961089 -1.930978 0
M  V30 49 H -6.814421 -2.340584 -1.174149 0
M  V30 50 H -4.616623 -1.625453 -0.943497 0
M  V30 51 H -2.752953 -1.828432 -1.760051 0
M  V30 END ATOM
M  V30 BEGIN BOND
M  V30 1 1 1 2
M  V30 2 1 2 3
M  V30 3 1 2 4
M  V30 4 1 4 5
M  V30 5 1 5 6
M  V30 6 1 5 7 CFG=1
M  V30 7 1 5 8
M  V30 8 1 8 9
M  V30 9 1 9 10
M  V30 10 2 10 11
M  V30 11 1 11 12
M  V30 12 2 12 13
M  V30 13 1 13 14
M  V30 14 2 14 15
M  V30 15 1 15 16
M  V30 16 2 16 17
M  V30 17 1 17 18
M  V30 18 1 18 19
M  V30 19 1 19 20
M  V30 20 1 19 21
M  V30 21 2 18 22
M  V30 22 1 13 23
M  V30 23 2 23 24
M  V30 24 1 24 25
M  V30 25 1 25 26
M  V30 26 1 25 27
M  V30 27 1 25 28
M  V30 28 1 24 10
M  V30 29 1 22 14
M  V30 30 1 1 29
M  V30 31 1 1 30
M  V30 32 1 1 31
M  V30 33 1 2 32
M  V30 34 1 3 33
M  V30 35 1 3 34
M  V30 36 1 3 35
M  V30 37 1 4 36
M  V30 38 1 4 37
M  V30 39 1 6 38
M  V30 40 1 6 39
M  V30 41 1 6 40
M  V30 42 1 7 41
M  V30 43 1 7 42
M  V30 44 1 8 43
M  V30 45 1 8 44
M  V30 46 1 11 45
M  V30 47 1 12 46
M  V30 48 1 15 47
M  V30 49 1 16 48
M  V30 50 1 19 49
M  V30 51 1 22 50
M  V30 52 1 23 51
M  V30 END BOND
M  V30 END CTAB
M  END
>  <Dataset>  (768) 
ChEMBL_Kinases

>  <Ligand_Instance>  (768) 
nan

>  <PDB_ID>  (768) 
nan

>  <Standardized_SMILES>  (768) 
CC(C)C[C@](C)(N)COc1ccc(-c2ccnc(C(F)F)c2)cc1C(F)(F)F

>  <Name>  (768) 
nan

>  <Pocket>  (768) 
nan

>  <ATP_Site>  (768) 
nan

>  <Peripheral>  (768) 
nan

>  <Num_H_Atoms_ProtBoundConf>  (768) 
nan

>  <Num_Resolved_Atoms>  (768) 
nan

>  <Num_Not_Resolved_Atoms>  (768) 
nan

$$$$
CHEMBL4294760
     RDKit          3D

  0  0  0  0  0  0  0  0  0  0999 V3000
M  V30 BEGIN CTAB
M  V30 COUNTS 59 62 0 0 0
M  V30 BEGIN ATOM
M  V30 1 C 2.786461 -4.367901 4.894804 0
M  V30 2 S 2.901274 -4.363470 3.096458 0
M  V30 3 C 2.944993 -2.721055 2.421164 0
M  V30 4 N 1.702721 -2.234167 2.145106 0
M  V30 5 C 1.502840 -1.016196 1.609111 0
M  V30 6 C 2.628214 -0.253686 1.340003 0
M  V30 7 C 3.896300 -0.738301 1.619169 0
M  V30 8 N 4.031016 -1.964201 2.154997 0
M  V30 9 C 5.198560 -0.063007 1.439818 0
M  V30 10 C 5.169300 1.191338 0.648676 0
M  V30 11 C 3.828023 1.731481 0.416924 0
M  V30 12 C 3.693532 2.956387 -0.173617 0
M  V30 13 N 2.487768 3.459649 -0.451539 0
M  V30 14 C 1.338338 2.817615 -0.180078 0
M  V30 15 N 0.002827 3.282352 -0.505997 0
M  V30 16 C -1.027489 2.367502 -0.070567 0
M  V30 17 C -2.028816 1.990285 -0.936388 0
M  V30 18 C -2.971665 1.092161 -0.439637 0
M  V30 19 C -2.896433 0.606722 0.875934 0
M  V30 20 C -3.985276 -0.329730 1.094272 0
M  V30 21 O -5.082898 -0.051453 1.621987 0
M  V30 22 N -3.892736 -1.700500 0.710441 0
M  V30 23 C -5.138601 -2.387836 1.044052 0
M  V30 24 C -2.875214 -2.540331 0.107342 0
M  V30 25 C -2.980889 -2.503583 -1.401671 0
M  V30 26 N -2.007860 -3.311498 -2.051347 0
M  V30 27 C -2.131929 -3.183691 -3.483249 0
M  V30 28 C -0.658198 -3.043377 -1.656203 0
M  V30 29 C -1.871627 1.028797 1.681779 0
M  V30 30 C -0.915596 1.917537 1.226713 0
M  V30 31 N 1.511347 1.623234 0.399557 0
M  V30 32 C 2.680588 1.056569 0.707973 0
M  V30 33 H 1.791321 -3.902413 5.138784 0
M  V30 34 H 2.825745 -5.396916 5.310475 0
M  V30 35 H 3.584578 -3.767964 5.388090 0
M  V30 36 H 0.578345 -0.566274 1.365738 0
M  V30 37 H 5.538360 0.196692 2.490132 0
M  V30 38 H 5.965122 -0.769065 1.057782 0
M  V30 39 H 5.814387 1.959381 1.160071 0
M  V30 40 H 5.660764 0.947200 -0.355392 0
M  V30 41 H 4.495539 3.612589 -0.469341 0
M  V30 42 H -0.067568 4.197501 -1.000919 0
M  V30 43 H -2.031550 2.396786 -1.924868 0
M  V30 44 H -3.717737 0.852974 -1.210261 0
M  V30 45 H -5.249645 -3.352239 0.547646 0
M  V30 46 H -6.016929 -1.774402 0.701550 0
M  V30 47 H -5.195654 -2.533612 2.123519 0
M  V30 48 H -2.886500 -3.550509 0.537255 0
M  V30 49 H -1.893187 -2.078843 0.417070 0
M  V30 50 H -4.010391 -2.853364 -1.692288 0
M  V30 51 H -2.859882 -1.460182 -1.728922 0
M  V30 52 H -2.975631 -3.787858 -3.852892 0
M  V30 53 H -2.331494 -2.143448 -3.800097 0
M  V30 54 H -1.220151 -3.504450 -4.014109 0
M  V30 55 H 0.065875 -3.514628 -2.367063 0
M  V30 56 H -0.469756 -1.952085 -1.718645 0
M  V30 57 H -0.430066 -3.359808 -0.606718 0
M  V30 58 H -1.963293 0.558825 2.654979 0
M  V30 59 H -0.170610 2.183526 1.951982 0
M  V30 END ATOM
M  V30 BEGIN BOND
M  V30 1 1 1 2
M  V30 2 1 2 3
M  V30 3 2 3 4
M  V30 4 1 4 5
M  V30 5 2 5 6
M  V30 6 1 6 7
M  V30 7 2 7 8
M  V30 8 1 7 9
M  V30 9 1 9 10
M  V30 10 1 10 11
M  V30 11 2 11 12
M  V30 12 1 12 13
M  V30 13 2 13 14
M  V30 14 1 14 15
M  V30 15 1 15 16
M  V30 16 2 16 17
M  V30 17 1 17 18
M  V30 18 2 18 19
M  V30 19 1 19 20
M  V30 20 2 20 21
M  V30 21 1 20 22
M  V30 22 1 22 23
M  V30 23 1 22 24
M  V30 24 1 24 25
M  V30 25 1 25 26
M  V30 26 1 26 27
M  V30 27 1 26 28
M  V30 28 1 19 29
M  V30 29 2 29 30
M  V30 30 1 14 31
M  V30 31 2 31 32
M  V30 32 1 8 3
M  V30 33 1 32 11
M  V30 34 1 32 6
M  V30 35 1 30 16
M  V30 36 1 1 33
M  V30 37 1 1 34
M  V30 38 1 1 35
M  V30 39 1 5 36
M  V30 40 1 9 37
M  V30 41 1 9 38
M  V30 42 1 10 39
M  V30 43 1 10 40
M  V30 44 1 12 41
M  V30 45 1 15 42
M  V30 46 1 17 43
M  V30 47 1 18 44
M  V30 48 1 23 45
M  V30 49 1 23 46
M  V30 50 1 23 47
M  V30 51 1 24 48
M  V30 52 1 24 49
M  V30 53 1 25 50
M  V30 54 1 25 51
M  V30 55 1 27 52
M  V30 56 1 27 53
M  V30 57 1 27 54
M  V30 58 1 28 55
M  V30 59 1 28 56
M  V30 60 1 28 57
M  V30 61 1 29 58
M  V30 62 1 30 59
M  V30 END BOND
M  V30 END CTAB
M  END
>  <Dataset>  (769) 
ChEMBL_Kinases

>  <Ligand_Instance>  (769) 
nan

>  <PDB_ID>  (769) 
nan

>  <Standardized_SMILES>  (769) 
CSc1ncc2c(n1)CCc1cnc(Nc3ccc(C(=O)N(C)CCN(C)C)cc3)nc1-2

>  <Name>  (769) 
nan

>  <Pocket>  (769) 
nan

>  <ATP_Site>  (769) 
nan

>  <Peripheral>  (769) 
nan

>  <Num_H_Atoms_ProtBoundConf>  (769) 
nan

>  <Num_Resolved_Atoms>  (769) 
nan

>  <Num_Not_Resolved_Atoms>  (769) 
nan

$$$$
CHEMBL514499
     RDKit          3D

  0  0  0  0  0  0  0  0  0  0999 V3000
M  V30 BEGIN CTAB
M  V30 COUNTS 51 54 0 0 0
M  V30 BEGIN ATOM
M  V30 1 C -0.865738 -5.114819 6.305000 0
M  V30 2 O -1.218357 -4.784202 4.982962 0
M  V30 3 C -0.400870 -3.963570 4.224694 0
M  V30 4 C 0.792103 -3.387708 4.615224 0
M  V30 5 C 1.505578 -2.581975 3.738443 0
M  V30 6 N 2.660505 -1.928674 3.887436 0
M  V30 7 C 2.948854 -1.279122 2.753445 0
M  V30 8 N 1.957804 -1.515591 1.845058 0
M  V30 9 C 1.768351 -1.071179 0.487717 0
M  V30 10 C 1.627558 0.120693 -0.054570 0
M  V30 11 C 1.460476 0.261181 -1.392839 0
M  V30 12 O 1.294996 1.358560 -2.203732 0
M  V30 13 C 1.241340 2.698120 -1.900633 0
M  V30 14 C 0.161286 3.138309 -1.005788 0
M  V30 15 C 0.309836 3.480726 0.320363 0
M  V30 16 C -0.678627 3.899682 1.179108 0
M  V30 17 C -1.964011 3.995530 0.683140 0
M  V30 18 C -2.152667 3.661134 -0.641619 0
M  V30 19 C -1.142044 3.234344 -1.513618 0
M  V30 20 C -1.464396 2.905586 -2.911731 0
M  V30 21 F -0.816426 3.660403 -3.846792 0
M  V30 22 F -2.817279 3.099923 -3.113218 0
M  V30 23 F -1.233925 1.578733 -3.215711 0
M  V30 24 C 1.447976 -0.924262 -2.145945 0
M  V30 25 C 1.298885 -1.223921 -3.569046 0
M  V30 26 N 1.336530 -2.573624 -3.974361 0
M  V30 27 O 1.146105 -0.300052 -4.367701 0
M  V30 28 S 1.679086 -2.185851 -0.877211 0
M  V30 29 C 1.073128 -2.319290 2.461478 0
M  V30 30 C -0.115627 -2.884958 2.052505 0
M  V30 31 C -0.809257 -3.682290 2.938898 0
M  V30 32 O -1.997835 -4.216706 2.454981 0
M  V30 33 C -2.464569 -3.962700 1.147555 0
M  V30 34 H -1.755546 -5.429223 6.892924 0
M  V30 35 H -0.421301 -4.223774 6.778977 0
M  V30 36 H -0.125248 -5.940500 6.357536 0
M  V30 37 H 1.122600 -3.598521 5.612786 0
M  V30 38 H 3.798969 -0.642566 2.488519 0
M  V30 39 H 1.654719 0.968363 0.614206 0
M  V30 40 H 1.214556 3.249119 -2.889130 0
M  V30 41 H 2.208401 3.086574 -1.450833 0
M  V30 42 H 1.337758 3.396177 0.689688 0
M  V30 43 H -0.460340 4.147973 2.214019 0
M  V30 44 H -2.794224 4.311603 1.275519 0
M  V30 45 H -3.173760 3.733684 -1.050603 0
M  V30 46 H 1.348488 -3.570880 -4.234165 0
M  V30 47 H 1.036964 -3.405716 -3.417768 0
M  V30 48 H -0.482724 -2.695393 1.048279 0
M  V30 49 H -3.359129 -4.599117 0.977474 0
M  V30 50 H -2.778764 -2.888499 1.094158 0
M  V30 51 H -1.692486 -4.218440 0.379581 0
M  V30 END ATOM
M  V30 BEGIN BOND
M  V30 1 1 1 2
M  V30 2 1 2 3
M  V30 3 2 3 4
M  V30 4 1 4 5
M  V30 5 1 5 6
M  V30 6 2 6 7
M  V30 7 1 7 8
M  V30 8 1 8 9
M  V30 9 2 9 10
M  V30 10 1 10 11
M  V30 11 1 11 12
M  V30 12 1 12 13
M  V30 13 1 13 14
M  V30 14 2 14 15
M  V30 15 1 15 16
M  V30 16 2 16 17
M  V30 17 1 17 18
M  V30 18 2 18 19
M  V30 19 1 19 20
M  V30 20 1 20 21
M  V30 21 1 20 22
M  V30 22 1 20 23
M  V30 23 2 11 24
M  V30 24 1 24 25
M  V30 25 1 25 26
M  V30 26 2 25 27
M  V30 27 1 24 28
M  V30 28 1 8 29
M  V30 29 1 29 30
M  V30 30 2 30 31
M  V30 31 1 31 32
M  V30 32 1 32 33
M  V30 33 1 31 3
M  V30 34 2 29 5
M  V30 35 1 28 9
M  V30 36 1 19 14
M  V30 37 1 1 34
M  V30 38 1 1 35
M  V30 39 1 1 36
M  V30 40 1 4 37
M  V30 41 1 7 38
M  V30 42 1 10 39
M  V30 43 1 13 40
M  V30 44 1 13 41
M  V30 45 1 15 42
M  V30 46 1 16 43
M  V30 47 1 17 44
M  V30 48 1 18 45
M  V30 49 1 26 46
M  V30 50 1 26 47
M  V30 51 1 30 48
M  V30 52 1 33 49
M  V30 53 1 33 50
M  V30 54 1 33 51
M  V30 END BOND
M  V30 END CTAB
M  END
>  <Dataset>  (770) 
ChEMBL_Kinases

>  <Ligand_Instance>  (770) 
nan

>  <PDB_ID>  (770) 
nan

>  <Standardized_SMILES>  (770) 
COc1cc2ncn(-c3cc(OCc4ccccc4C(F)(F)F)c(C(N)=O)s3)c2cc1OC

>  <Name>  (770) 
GW843682X

>  <Pocket>  (770) 
nan

>  <ATP_Site>  (770) 
nan

>  <Peripheral>  (770) 
nan

>  <Num_H_Atoms_ProtBoundConf>  (770) 
nan

>  <Num_Resolved_Atoms>  (770) 
nan

>  <Num_Not_Resolved_Atoms>  (770) 
nan

$$$$
CHEMBL4245242
     RDKit          3D

  0  0  0  0  0  0  0  0  0  0999 V3000
M  V30 BEGIN CTAB
M  V30 COUNTS 63 67 0 0 0
M  V30 BEGIN ATOM
M  V30 1 O -0.004569 -1.307408 2.744954 0
M  V30 2 C -0.415857 -1.500776 1.554538 0
M  V30 3 C 0.210369 -1.632869 0.209419 0
M  V30 4 C 1.663814 -1.462084 0.202909 0
M  V30 5 C 2.673728 -2.384394 0.419700 0
M  V30 6 C 4.020336 -2.104797 0.380264 0
M  V30 7 C 4.412445 -0.809517 0.105025 0
M  V30 8 C 3.494222 0.220274 -0.133420 0
M  V30 9 O 3.841878 1.445811 -0.394148 0
M  V30 10 C 3.974002 2.675153 -0.661638 0
M  V30 11 C 3.485787 3.242633 -2.018583 0
M  V30 12 C 2.040888 2.961552 -2.143251 0
M  V30 13 C 1.424071 3.493096 -3.418216 0
M  V30 14 C -0.049576 3.099187 -3.365580 0
M  V30 15 C -0.193175 1.591714 -3.271179 0
M  V30 16 N 0.680898 0.895211 -4.157892 0
M  V30 17 C 1.337351 1.680214 -5.150756 0
M  V30 18 C 2.021111 2.919579 -4.652136 0
M  V30 19 C 2.205835 -0.203770 -0.061725 0
M  V30 20 N -1.808870 -1.632837 1.365391 0
M  V30 21 C -2.738878 -1.546987 2.518948 0
M  V30 22 N -3.180980 -2.416118 3.211716 0
M  V30 23 C -4.012375 -2.217445 4.234271 0
M  V30 24 C -4.526194 -3.333811 5.036396 0
M  V30 25 C -5.357962 -3.277488 6.143125 0
M  V30 26 N -5.607150 -4.523649 6.583177 0
M  V30 27 C -4.983654 -5.445704 5.827474 0
M  V30 28 N -4.899254 -6.785828 5.820557 0
M  V30 29 C -4.183142 -7.467822 4.914014 0
M  V30 30 C -3.502901 -6.726557 3.941071 0
M  V30 31 C -3.564273 -5.343636 3.912969 0
M  V30 32 C -4.322232 -4.690461 4.879554 0
M  V30 33 C -4.380425 -0.886299 4.495842 0
M  V30 34 S -3.405547 -0.006200 3.125993 0
M  V30 35 H -0.051533 -2.581137 -0.251487 0
M  V30 36 H -0.207480 -0.848298 -0.492135 0
M  V30 37 H 2.305649 -3.395645 0.633116 0
M  V30 38 H 4.713580 -2.910703 0.567914 0
M  V30 39 H 5.477247 -0.614103 0.077226 0
M  V30 40 H 3.449884 3.333861 0.142077 0
M  V30 41 H 5.048358 3.065151 -0.525682 0
M  V30 42 H 3.637818 4.351777 -1.912653 0
M  V30 43 H 4.125969 2.798273 -2.775903 0
M  V30 44 H 1.505125 3.341309 -1.257753 0
M  V30 45 H 1.933630 1.833624 -2.109520 0
M  V30 46 H 1.450448 4.599359 -3.371430 0
M  V30 47 H -0.425493 3.551630 -2.411861 0
M  V30 48 H -0.569127 3.441371 -4.257585 0
M  V30 49 H -1.243937 1.353548 -3.548929 0
M  V30 50 H -0.052818 1.299405 -2.203129 0
M  V30 51 H 1.243552 0.144375 -3.734763 0
M  V30 52 H 0.604922 1.931769 -5.961249 0
M  V30 53 H 2.085644 1.027248 -5.645512 0
M  V30 54 H 1.903088 3.697606 -5.460943 0
M  V30 55 H 3.135087 2.800345 -4.587032 0
M  V30 56 H 1.444270 0.583241 -0.227521 0
M  V30 57 H -2.434582 -1.790539 0.549725 0
M  V30 58 H -5.741838 -2.359671 6.579879 0
M  V30 59 H -6.195839 -4.822773 7.397967 0
M  V30 60 H -4.108448 -8.559462 4.899892 0
M  V30 61 H -2.939291 -7.285299 3.232421 0
M  V30 62 H -3.010710 -4.859196 3.128446 0
M  V30 63 H -5.088359 -0.577603 5.347935 0
M  V30 END ATOM
M  V30 BEGIN BOND
M  V30 1 2 1 2
M  V30 2 1 2 3
M  V30 3 1 3 4
M  V30 4 2 4 5
M  V30 5 1 5 6
M  V30 6 2 6 7
M  V30 7 1 7 8
M  V30 8 1 8 9
M  V30 9 1 9 10
M  V30 10 1 10 11
M  V30 11 1 11 12
M  V30 12 1 12 13
M  V30 13 1 13 14
M  V30 14 1 14 15
M  V30 15 1 15 16
M  V30 16 1 16 17
M  V30 17 1 17 18
M  V30 18 2 8 19
M  V30 19 1 2 20
M  V30 20 1 20 21
M  V30 21 2 21 22
M  V30 22 1 22 23
M  V30 23 1 23 24
M  V30 24 2 24 25
M  V30 25 1 25 26
M  V30 26 1 26 27
M  V30 27 2 27 28
M  V30 28 1 28 29
M  V30 29 2 29 30
M  V30 30 1 30 31
M  V30 31 2 31 32
M  V30 32 2 23 33
M  V30 33 1 33 34
M  V30 34 1 19 4
M  V30 35 1 34 21
M  V30 36 1 18 13
M  V30 37 1 32 24
M  V30 38 1 32 27
M  V30 39 1 3 35
M  V30 40 1 3 36
M  V30 41 1 5 37
M  V30 42 1 6 38
M  V30 43 1 7 39
M  V30 44 1 10 40
M  V30 45 1 10 41
M  V30 46 1 11 42
M  V30 47 1 11 43
M  V30 48 1 12 44
M  V30 49 1 12 45
M  V30 50 1 13 46
M  V30 51 1 14 47
M  V30 52 1 14 48
M  V30 53 1 15 49
M  V30 54 1 15 50
M  V30 55 1 16 51
M  V30 56 1 17 52
M  V30 57 1 17 53
M  V30 58 1 18 54
M  V30 59 1 18 55
M  V30 60 1 19 56
M  V30 61 1 20 57
M  V30 62 1 25 58
M  V30 63 1 26 59
M  V30 64 1 29 60
M  V30 65 1 30 61
M  V30 66 1 31 62
M  V30 67 1 33 63
M  V30 END BOND
M  V30 END CTAB
M  END
>  <Dataset>  (771) 
ChEMBL_Kinases

>  <Ligand_Instance>  (771) 
nan

>  <PDB_ID>  (771) 
nan

>  <Standardized_SMILES>  (771) 
O=C(Cc1cccc(OCCCC2CCNCC2)c1)Nc1nc(-c2c[nH]c3ncccc23)cs1

>  <Name>  (771) 
nan

>  <Pocket>  (771) 
nan

>  <ATP_Site>  (771) 
nan

>  <Peripheral>  (771) 
nan

>  <Num_H_Atoms_ProtBoundConf>  (771) 
nan

>  <Num_Resolved_Atoms>  (771) 
nan

>  <Num_Not_Resolved_Atoms>  (771) 
nan

$$$$
CHEMBL526901
     RDKit          3D

  0  0  0  0  0  0  0  0  0  0999 V3000
M  V30 BEGIN CTAB
M  V30 COUNTS 36 38 0 0 0
M  V30 BEGIN ATOM
M  V30 1 C 1.858713 -2.010414 3.137564 0
M  V30 2 C 2.404415 -1.402058 1.871765 0
M  V30 3 O 3.597183 -1.337763 1.412532 0
M  V30 4 C 1.305997 -0.814808 1.118533 0
M  V30 5 C 0.529607 -1.423286 0.166022 0
M  V30 6 C 0.566911 -2.776701 -0.359713 0
M  V30 7 C -0.323722 -3.193426 -1.325072 0
M  V30 8 C -0.343469 -4.461943 -1.868477 0
M  V30 9 N 0.570142 -5.377972 -1.435216 0
M  V30 10 C 1.457559 -5.008020 -0.492114 0
M  V30 11 C 1.452346 -3.746529 0.026175 0
M  V30 12 N -0.340227 -0.485242 -0.231332 0
M  V30 13 C -0.137320 0.667449 0.428360 0
M  V30 14 C -0.959096 1.830840 0.167474 0
M  V30 15 C -0.861232 3.056231 0.769265 0
M  V30 16 C -1.657919 4.139284 0.496246 0
M  V30 17 N -2.626617 4.052518 -0.422978 0
M  V30 18 C -2.798399 2.890460 -1.065535 0
M  V30 19 C -1.979137 1.825496 -0.764378 0
M  V30 20 C 0.907788 0.514440 1.308490 0
M  V30 21 C 1.491628 1.502131 2.242738 0
M  V30 22 H 1.317822 -2.948795 2.945987 0
M  V30 23 H 2.679593 -2.253168 3.860477 0
M  V30 24 H 1.217363 -1.277532 3.668954 0
M  V30 25 H -1.085642 -2.545866 -1.734866 0
M  V30 26 H -1.046935 -4.771673 -2.622741 0
M  V30 27 H 2.157996 -5.767326 -0.183489 0
M  V30 28 H 2.190886 -3.566013 0.756947 0
M  V30 29 H -1.068127 -0.668540 -0.964247 0
M  V30 30 H -0.128578 3.243914 1.516260 0
M  V30 31 H -1.540365 5.086541 0.999707 0
M  V30 32 H -3.573577 2.850591 -1.788510 0
M  V30 33 H -2.212582 0.942554 -1.346581 0
M  V30 34 H 0.831091 1.805687 3.062292 0
M  V30 35 H 1.994680 2.330242 1.698288 0
M  V30 36 H 2.364889 0.971826 2.746155 0
M  V30 END ATOM
M  V30 BEGIN BOND
M  V30 1 1 1 2
M  V30 2 2 2 3
M  V30 3 1 2 4
M  V30 4 2 4 5
M  V30 5 1 5 6
M  V30 6 2 6 7
M  V30 7 1 7 8
M  V30 8 2 8 9
M  V30 9 1 9 10
M  V30 10 2 10 11
M  V30 11 1 5 12
M  V30 12 1 12 13
M  V30 13 1 13 14
M  V30 14 2 14 15
M  V30 15 1 15 16
M  V30 16 2 16 17
M  V30 17 1 17 18
M  V30 18 2 18 19
M  V30 19 2 13 20
M  V30 20 1 20 21
M  V30 21 1 20 4
M  V30 22 1 11 6
M  V30 23 1 19 14
M  V30 24 1 1 22
M  V30 25 1 1 23
M  V30 26 1 1 24
M  V30 27 1 7 25
M  V30 28 1 8 26
M  V30 29 1 10 27
M  V30 30 1 11 28
M  V30 31 1 12 29
M  V30 32 1 15 30
M  V30 33 1 16 31
M  V30 34 1 18 32
M  V30 35 1 19 33
M  V30 36 1 21 34
M  V30 37 1 21 35
M  V30 38 1 21 36
M  V30 END BOND
M  V30 END CTAB
M  END
>  <Dataset>  (772) 
ChEMBL_Kinases

>  <Ligand_Instance>  (772) 
nan

>  <PDB_ID>  (772) 
nan

>  <Standardized_SMILES>  (772) 
CC(=O)c1c(-c2ccncc2)[nH]c(-c2ccncc2)c1C

>  <Name>  (772) 
nan

>  <Pocket>  (772) 
nan

>  <ATP_Site>  (772) 
nan

>  <Peripheral>  (772) 
nan

>  <Num_H_Atoms_ProtBoundConf>  (772) 
nan

>  <Num_Resolved_Atoms>  (772) 
nan

>  <Num_Not_Resolved_Atoms>  (772) 
nan

$$$$
CHEMBL3393607
     RDKit          3D

  0  0  0  0  0  0  0  0  0  0999 V3000
M  V30 BEGIN CTAB
M  V30 COUNTS 64 67 0 0 0
M  V30 BEGIN ATOM
M  V30 1 C 6.196106 -0.235268 6.680730 0
M  V30 2 N 7.226039 -1.044339 6.107416 0
M  V30 3 C 8.483749 -0.387600 5.937338 0
M  V30 4 C 6.837901 -1.773161 4.938487 0
M  V30 5 C 6.585887 -0.833646 3.803552 0
M  V30 6 C 5.401629 -0.775162 3.224826 0
M  V30 7 C 5.213159 0.159416 2.122389 0
M  V30 8 O 6.201227 0.856850 1.788935 0
M  V30 9 N 4.006413 0.331722 1.410669 0
M  V30 10 C 3.683642 1.188651 0.333144 0
M  V30 11 C 4.530474 2.095997 -0.253785 0
M  V30 12 C 4.236723 2.935658 -1.304188 0
M  V30 13 C 2.933752 2.836744 -1.810314 0
M  V30 14 C 2.037529 1.922805 -1.239803 0
M  V30 15 C 0.712220 1.895853 -1.837041 0
M  V30 16 O 0.477373 2.705350 -2.755650 0
M  V30 17 N -0.322751 1.013226 -1.444837 0
M  V30 18 C -1.643144 0.885474 -1.939467 0
M  V30 19 C -2.464768 -0.083600 -1.415421 0
M  V30 20 C -3.740463 -0.266877 -1.835003 0
M  V30 21 C -4.324906 0.492474 -2.814399 0
M  V30 22 N -5.647696 0.335944 -3.295977 0
M  V30 23 C -6.577273 -0.682157 -2.956200 0
M  V30 24 N -7.795657 -0.618096 -3.507548 0
M  V30 25 C -8.764399 -1.513286 -3.280848 0
M  V30 26 C -8.530709 -2.574811 -2.437968 0
M  V30 27 C -7.299251 -2.647139 -1.875671 0
M  V30 28 C -6.996619 -3.744676 -0.984740 0
M  V30 29 C -7.896621 -4.734930 -0.662711 0
M  V30 30 C -7.539733 -5.745754 0.187081 0
M  V30 31 C -6.302434 -5.863980 0.775076 0
M  V30 32 N -5.396242 -4.893204 0.469138 0
M  V30 33 C -5.771552 -3.899748 -0.376072 0
M  V30 34 N -6.370858 -1.721687 -2.139965 0
M  V30 35 C -3.511144 1.466185 -3.346046 0
M  V30 36 C -2.217152 1.654681 -2.922954 0
M  V30 37 C 2.431631 1.129313 -0.192201 0
M  V30 38 H 5.278686 -0.831850 6.811882 0
M  V30 39 H 6.524298 0.048791 7.701927 0
M  V30 40 H 5.915718 0.651264 6.077238 0
M  V30 41 H 8.852340 0.046517 6.904134 0
M  V30 42 H 9.230177 -1.193301 5.692882 0
M  V30 43 H 8.529240 0.345353 5.125008 0
M  V30 44 H 7.720944 -2.432828 4.690108 0
M  V30 45 H 5.946330 -2.385429 5.101160 0
M  V30 46 H 7.431002 -0.213576 3.494755 0
M  V30 47 H 4.569872 -1.414935 3.562112 0
M  V30 48 H 3.271575 -0.313028 1.798602 0
M  V30 49 H 5.539675 2.201870 0.107065 0
M  V30 50 H 4.950847 3.630131 -1.721838 0
M  V30 51 H 2.707578 3.511963 -2.650666 0
M  V30 52 H -0.026851 0.383431 -0.678047 0
M  V30 53 H -2.062412 -0.734704 -0.621640 0
M  V30 54 H -4.298671 -1.052939 -1.355774 0
M  V30 55 H -5.964545 1.063804 -3.982312 0
M  V30 56 H -9.726548 -1.380882 -3.773514 0
M  V30 57 H -9.355608 -3.243600 -2.310495 0
M  V30 58 H -8.885560 -4.744918 -1.059435 0
M  V30 59 H -8.228817 -6.552834 0.467257 0
M  V30 60 H -5.986857 -6.647441 1.449283 0
M  V30 61 H -4.973388 -3.188584 -0.545851 0
M  V30 62 H -3.898737 2.125324 -4.140754 0
M  V30 63 H -1.660275 2.438278 -3.395239 0
M  V30 64 H 1.728369 0.431525 0.235892 0
M  V30 END ATOM
M  V30 BEGIN BOND
M  V30 1 1 1 2
M  V30 2 1 2 3
M  V30 3 1 2 4
M  V30 4 1 4 5
M  V30 5 2 5 6
M  V30 6 1 6 7
M  V30 7 2 7 8
M  V30 8 1 7 9
M  V30 9 1 9 10
M  V30 10 2 10 11
M  V30 11 1 11 12
M  V30 12 2 12 13
M  V30 13 1 13 14
M  V30 14 1 14 15
M  V30 15 2 15 16
M  V30 16 1 15 17
M  V30 17 1 17 18
M  V30 18 2 18 19
M  V30 19 1 19 20
M  V30 20 2 20 21
M  V30 21 1 21 22
M  V30 22 1 22 23
M  V30 23 2 23 24
M  V30 24 1 24 25
M  V30 25 2 25 26
M  V30 26 1 26 27
M  V30 27 1 27 28
M  V30 28 2 28 29
M  V30 29 1 29 30
M  V30 30 2 30 31
M  V30 31 1 31 32
M  V30 32 2 32 33
M  V30 33 2 27 34
M  V30 34 1 21 35
M  V30 35 2 35 36
M  V30 36 2 14 37
M  V30 37 1 37 10
M  V30 38 1 36 18
M  V30 39 1 34 23
M  V30 40 1 33 28
M  V30 41 1 1 38
M  V30 42 1 1 39
M  V30 43 1 1 40
M  V30 44 1 3 41
M  V30 45 1 3 42
M  V30 46 1 3 43
M  V30 47 1 4 44
M  V30 48 1 4 45
M  V30 49 1 5 46
M  V30 50 1 6 47
M  V30 51 1 9 48
M  V30 52 1 11 49
M  V30 53 1 12 50
M  V30 54 1 13 51
M  V30 55 1 17 52
M  V30 56 1 19 53
M  V30 57 1 20 54
M  V30 58 1 22 55
M  V30 59 1 25 56
M  V30 60 1 26 57
M  V30 61 1 29 58
M  V30 62 1 30 59
M  V30 63 1 31 60
M  V30 64 1 33 61
M  V30 65 1 35 62
M  V30 66 1 36 63
M  V30 67 1 37 64
M  V30 END BOND
M  V30 END CTAB
M  END
>  <Dataset>  (773) 
ChEMBL_Kinases

>  <Ligand_Instance>  (773) 
nan

>  <PDB_ID>  (773) 
nan

>  <Standardized_SMILES>  (773) 
CN(C)C/C=C/C(=O)Nc1cccc(C(=O)Nc2ccc(Nc3nccc(-c4cccnc4)n3)cc2)c1

>  <Name>  (773) 
nan

>  <Pocket>  (773) 
nan

>  <ATP_Site>  (773) 
nan

>  <Peripheral>  (773) 
nan

>  <Num_H_Atoms_ProtBoundConf>  (773) 
nan

>  <Num_Resolved_Atoms>  (773) 
nan

>  <Num_Not_Resolved_Atoms>  (773) 
nan

$$$$
CHEMBL4757567
     RDKit          3D

  0  0  0  0  0  0  0  0  0  0999 V3000
M  V30 BEGIN CTAB
M  V30 COUNTS 53 56 0 0 0
M  V30 BEGIN ATOM
M  V30 1 C 4.277299 -2.143337 2.969167 0
M  V30 2 N 4.889119 -2.374634 1.709854 0
M  V30 3 C 6.214254 -1.876352 1.532395 0
M  V30 4 C 6.227275 -0.463579 0.987801 0
M  V30 5 C 4.835242 0.145175 1.057094 0
M  V30 6 C 4.896747 1.513888 0.436580 0
M  V30 7 N 3.603768 2.136029 0.515031 0
M  V30 8 C 2.407864 1.829649 -0.167276 0
M  V30 9 N 2.413930 1.610524 -1.424727 0
M  V30 10 C 1.211866 1.318160 -2.014577 0
M  V30 11 O 1.085334 1.079739 -3.267290 0
M  V30 12 C 0.049731 1.289404 -1.128965 0
M  V30 13 C -1.225214 1.036829 -1.330028 0
M  V30 14 C -2.226265 1.068528 -0.269753 0
M  V30 15 C -2.274113 2.007222 0.765551 0
M  V30 16 S -3.793339 1.419542 1.738743 0
M  V30 17 C -4.035444 0.031284 0.534541 0
M  V30 18 C -5.163024 -0.949485 0.691515 0
M  V30 19 C -5.236942 -1.933522 -0.276451 0
M  V30 20 C -6.286715 -2.837821 -0.115057 0
M  V30 21 C -7.197312 -2.784096 0.916505 0
M  V30 22 O -8.160534 -3.752441 0.917106 0
M  V30 23 C -9.429890 -3.634968 0.267366 0
M  V30 24 F -10.179209 -2.594880 0.738898 0
M  V30 25 F -9.169028 -3.377873 -1.079462 0
M  V30 26 F -10.078063 -4.850798 0.343690 0
M  V30 27 C -7.022187 -1.759945 1.818943 0
M  V30 28 C -6.033358 -0.803198 1.778600 0
M  V30 29 N -3.176436 0.151856 -0.237470 0
M  V30 30 S 0.748645 1.700726 0.492362 0
M  V30 31 C 3.839515 -0.706745 0.330678 0
M  V30 32 C 4.107105 -2.159483 0.548779 0
M  V30 33 H 4.013985 -3.112315 3.493578 0
M  V30 34 H 3.312096 -1.603886 2.914382 0
M  V30 35 H 4.975049 -1.651527 3.694976 0
M  V30 36 H 6.736976 -2.517056 0.793574 0
M  V30 37 H 6.782985 -1.981806 2.486298 0
M  V30 38 H 6.604980 -0.375900 -0.042423 0
M  V30 39 H 6.876090 0.139397 1.644261 0
M  V30 40 H 4.527432 0.280371 2.109724 0
M  V30 41 H 5.677018 2.085320 0.984700 0
M  V30 42 H 5.261401 1.459779 -0.629063 0
M  V30 43 H 3.539006 2.945105 1.197793 0
M  V30 44 H -1.425057 0.807815 -2.368416 0
M  V30 45 H -1.476561 2.856036 0.816443 0
M  V30 46 H -4.518943 -1.960571 -1.073258 0
M  V30 47 H -6.312210 -3.606027 -0.904818 0
M  V30 48 H -7.763654 -1.742224 2.630902 0
M  V30 49 H -5.933451 -0.025399 2.498588 0
M  V30 50 H 2.797919 -0.464299 0.620012 0
M  V30 51 H 3.892695 -0.557094 -0.781037 0
M  V30 52 H 4.716448 -2.545693 -0.322012 0
M  V30 53 H 3.181244 -2.779405 0.523258 0
M  V30 END ATOM
M  V30 BEGIN BOND
M  V30 1 1 1 2
M  V30 2 1 2 3
M  V30 3 1 3 4
M  V30 4 1 4 5
M  V30 5 1 5 6
M  V30 6 1 6 7
M  V30 7 1 7 8
M  V30 8 2 8 9
M  V30 9 1 9 10
M  V30 10 2 10 11
M  V30 11 1 10 12
M  V30 12 2 12 13
M  V30 13 1 13 14
M  V30 14 2 14 15
M  V30 15 1 15 16
M  V30 16 1 16 17
M  V30 17 1 17 18
M  V30 18 2 18 19
M  V30 19 1 19 20
M  V30 20 2 20 21
M  V30 21 1 21 22
M  V30 22 1 22 23
M  V30 23 1 23 24
M  V30 24 1 23 25
M  V30 25 1 23 26
M  V30 26 1 21 27
M  V30 27 2 27 28
M  V30 28 2 17 29
M  V30 29 1 12 30
M  V30 30 1 5 31
M  V30 31 1 31 32
M  V30 32 1 32 2
M  V30 33 1 30 8
M  V30 34 1 29 14
M  V30 35 1 28 18
M  V30 36 1 1 33
M  V30 37 1 1 34
M  V30 38 1 1 35
M  V30 39 1 3 36
M  V30 40 1 3 37
M  V30 41 1 4 38
M  V30 42 1 4 39
M  V30 43 1 5 40
M  V30 44 1 6 41
M  V30 45 1 6 42
M  V30 46 1 7 43
M  V30 47 1 13 44
M  V30 48 1 15 45
M  V30 49 1 19 46
M  V30 50 1 20 47
M  V30 51 1 27 48
M  V30 52 1 28 49
M  V30 53 1 31 50
M  V30 54 1 31 51
M  V30 55 1 32 52
M  V30 56 1 32 53
M  V30 END BOND
M  V30 END CTAB
M  END
>  <Dataset>  (774) 
ChEMBL_Kinases

>  <Ligand_Instance>  (774) 
nan

>  <PDB_ID>  (774) 
nan

>  <Standardized_SMILES>  (774) 
CN1CCC(CNC2=NC(=O)/C(=C/c3csc(-c4ccc(OC(F)(F)F)cc4)n3)S2)CC1

>  <Name>  (774) 
nan

>  <Pocket>  (774) 
nan

>  <ATP_Site>  (774) 
nan

>  <Peripheral>  (774) 
nan

>  <Num_H_Atoms_ProtBoundConf>  (774) 
nan

>  <Num_Resolved_Atoms>  (774) 
nan

>  <Num_Not_Resolved_Atoms>  (774) 
nan

$$$$
CHEMBL4287662
     RDKit          3D

  0  0  0  0  0  0  0  0  0  0999 V3000
M  V30 BEGIN CTAB
M  V30 COUNTS 63 69 0 0 0
M  V30 BEGIN ATOM
M  V30 1 C 5.732313 -2.369327 2.646840 0
M  V30 2 C 4.704452 -1.348793 2.308485 0
M  V30 3 O 4.557025 -0.366516 3.079286 0
M  V30 4 N 3.930552 -1.517251 1.135450 0
M  V30 5 C 2.879847 -0.703577 0.564418 0 CFG=2
M  V30 6 C 1.570736 -1.455243 0.460673 0
M  V30 7 C 0.814253 -0.899294 -0.698315 0 CFG=2
M  V30 8 N -0.595965 -1.220327 -0.687579 0
M  V30 9 C -1.279686 -2.121830 -1.453765 0
M  V30 10 C -0.727495 -2.956294 -2.434297 0
M  V30 11 C -1.512336 -3.837007 -3.152973 0
M  V30 12 C -2.888763 -3.886650 -2.885214 0
M  V30 13 O -3.700505 -4.764896 -3.595216 0
M  V30 14 C -3.349783 -3.026453 -1.899090 0
M  V30 15 C -2.619327 -2.154414 -1.176741 0
M  V30 16 C -2.788759 -1.231476 -0.189656 0
M  V30 17 C -3.917311 -0.840976 0.475575 0
M  V30 18 C -3.878192 0.120938 1.457821 0
M  V30 19 C -2.667391 0.706654 1.779803 0
M  V30 20 C -2.327440 1.679698 2.709668 0
M  V30 21 C -3.068579 2.389456 3.616052 0
M  V30 22 C -2.509378 3.326031 4.457617 0
M  V30 23 C -1.150385 3.508394 4.333148 0
M  V30 24 C -0.425971 2.793122 3.424895 0
M  V30 25 C -0.980682 1.854738 2.580459 0
M  V30 26 N -0.560920 1.016645 1.615199 0
M  V30 27 C -1.542019 0.285705 1.083716 0
M  V30 28 C -1.568776 -0.679963 0.093863 0
M  V30 29 C -5.222573 0.404204 2.062445 0
M  V30 30 N -6.123494 -0.502963 1.336640 0
M  V30 31 C -5.309748 -1.209801 0.419072 0
M  V30 32 O -5.950650 -2.018274 -0.265186 0
M  V30 33 O 1.423073 -1.291626 -1.903982 0
M  V30 34 C 2.787258 -1.142305 -1.865373 0 CFG=1
M  V30 35 C 3.243327 -0.582014 -3.202913 0
M  V30 36 C 3.268623 -0.191142 -0.817922 0 CFG=2
M  V30 37 O 4.677732 -0.167402 -0.926736 0
M  V30 38 H 5.286517 -3.000198 3.464527 0
M  V30 39 H 5.974734 -3.020944 1.781468 0
M  V30 40 H 6.639253 -1.913721 3.098370 0
M  V30 41 H 4.025916 -2.331143 0.462007 0
M  V30 42 H 2.688914 0.190804 1.191641 0
M  V30 43 H 1.016016 -1.296954 1.395892 0
M  V30 44 H 1.729042 -2.554350 0.398452 0
M  V30 45 H 0.975910 0.221313 -0.698060 0
M  V30 46 H 0.294580 -3.043902 -2.755281 0
M  V30 47 H -1.145380 -4.517749 -3.933780 0
M  V30 48 H -4.105453 -5.602681 -3.199382 0
M  V30 49 H -4.399766 -3.130782 -1.762358 0
M  V30 50 H -4.138966 2.236140 3.704098 0
M  V30 51 H -3.106235 3.877680 5.166904 0
M  V30 52 H -0.640223 4.225175 4.958153 0
M  V30 53 H 0.657523 2.957353 3.345111 0
M  V30 54 H 0.456260 1.034379 1.403921 0
M  V30 55 H -5.249968 0.169867 3.141237 0
M  V30 56 H -5.547591 1.441054 1.897108 0
M  V30 57 H -7.128214 -0.472041 1.601939 0
M  V30 58 H 3.290324 -2.127659 -1.782411 0
M  V30 59 H 3.219817 0.546733 -3.174997 0
M  V30 60 H 2.584684 -0.861209 -4.034853 0
M  V30 61 H 4.286578 -0.835720 -3.451628 0
M  V30 62 H 2.900038 0.822499 -1.007458 0
M  V30 63 H 4.857167 0.453719 -1.676493 0
M  V30 END ATOM
M  V30 BEGIN BOND
M  V30 1 1 1 2
M  V30 2 2 2 3
M  V30 3 1 2 4
M  V30 4 1 4 5
M  V30 5 1 5 6
M  V30 6 1 6 7
M  V30 7 1 7 8
M  V30 8 1 8 9
M  V30 9 2 9 10
M  V30 10 1 10 11
M  V30 11 2 11 12
M  V30 12 1 12 13
M  V30 13 1 12 14
M  V30 14 2 14 15
M  V30 15 1 15 16
M  V30 16 2 16 17
M  V30 17 1 17 18
M  V30 18 2 18 19
M  V30 19 1 19 20
M  V30 20 2 20 21
M  V30 21 1 21 22
M  V30 22 2 22 23
M  V30 23 1 23 24
M  V30 24 2 24 25
M  V30 25 1 25 26
M  V30 26 1 26 27
M  V30 27 2 27 28
M  V30 28 1 18 29
M  V30 29 1 29 30
M  V30 30 1 30 31
M  V30 31 2 31 32
M  V30 32 1 7 33
M  V30 33 1 33 34
M  V30 34 1 34 35
M  V30 35 1 34 36
M  V30 36 1 36 37
M  V30 37 1 36 5
M  V30 38 1 28 8
M  V30 39 1 15 9
M  V30 40 1 28 16
M  V30 41 1 31 17
M  V30 42 1 27 19
M  V30 43 1 25 20
M  V30 44 1 1 38
M  V30 45 1 1 39
M  V30 46 1 1 40
M  V30 47 1 4 41
M  V30 48 1 5 42 CFG=1
M  V30 49 1 6 43
M  V30 50 1 6 44
M  V30 51 1 7 45 CFG=1
M  V30 52 1 10 46
M  V30 53 1 11 47
M  V30 54 1 13 48
M  V30 55 1 14 49
M  V30 56 1 21 50
M  V30 57 1 22 51
M  V30 58 1 23 52
M  V30 59 1 24 53
M  V30 60 1 26 54
M  V30 61 1 29 55
M  V30 62 1 29 56
M  V30 63 1 30 57
M  V30 64 1 34 58 CFG=1
M  V30 65 1 35 59
M  V30 66 1 35 60
M  V30 67 1 35 61
M  V30 68 1 36 62 CFG=3
M  V30 69 1 37 63
M  V30 END BOND
M  V30 END CTAB
M  END
>  <Dataset>  (775) 
ChEMBL_Kinases

>  <Ligand_Instance>  (775) 
nan

>  <PDB_ID>  (775) 
nan

>  <Standardized_SMILES>  (775) 
CC(=O)N[C@@H]1C[C@H](n2c3ccc(O)cc3c3c4c(c5c6ccccc6[nH]c5c32)CNC4=O)O[C@@H](C)[C@@H]1O

>  <Name>  (775) 
nan

>  <Pocket>  (775) 
nan

>  <ATP_Site>  (775) 
nan

>  <Peripheral>  (775) 
nan

>  <Num_H_Atoms_ProtBoundConf>  (775) 
nan

>  <Num_Resolved_Atoms>  (775) 
nan

>  <Num_Not_Resolved_Atoms>  (775) 
nan

$$$$
CHEMBL368895
     RDKit          3D

  0  0  0  0  0  0  0  0  0  0999 V3000
M  V30 BEGIN CTAB
M  V30 COUNTS 70 76 0 0 0
M  V30 BEGIN ATOM
M  V30 1 C 1.879867 -6.647291 2.434215 0
M  V30 2 N 1.727473 -5.236189 2.155644 0
M  V30 3 C 0.865367 -4.592694 3.076193 0
M  V30 4 C 1.517708 -4.938617 0.783205 0
M  V30 5 C 1.375326 -3.459846 0.513192 0
M  V30 6 C 2.615463 -2.711147 0.931580 0
M  V30 7 N 2.472286 -1.272237 0.661654 0
M  V30 8 N 2.837422 -0.669236 -0.457031 0
M  V30 9 C 2.568053 0.658101 -0.394989 0
M  V30 10 C 2.811938 1.740648 -1.348499 0
M  V30 11 C 1.797187 2.527573 -1.755992 0
M  V30 12 C 0.401015 2.428248 -1.347292 0
M  V30 13 C -0.147407 1.138724 -1.296215 0
M  V30 14 N -1.448354 1.217272 -0.899167 0
M  V30 15 C -2.313381 0.103389 -0.747721 0
M  V30 16 C -2.443790 -0.561668 -1.968771 0
M  V30 17 C -3.241762 -1.701383 -2.107179 0
M  V30 18 C -3.910062 -2.167016 -0.998245 0
M  V30 19 C -4.704085 -3.288069 -1.109125 0
M  V30 20 C -5.372028 -3.748432 0.006017 0
M  V30 21 C -5.227926 -3.075740 1.202365 0
M  V30 22 C -4.431330 -1.948765 1.318669 0
M  V30 23 C -3.771118 -1.500531 0.198291 0
M  V30 24 C -2.990115 -0.379118 0.348167 0
M  V30 25 C -1.701471 2.519441 -0.707703 0
M  V30 26 C -2.838910 3.198223 -0.302662 0
M  V30 27 C -2.792056 4.591123 -0.189734 0
M  V30 28 C -1.642723 5.324005 -0.469540 0
M  V30 29 C -0.486000 4.649879 -0.880172 0
M  V30 30 C -0.591340 3.279139 -0.973686 0
M  V30 31 C 2.291650 3.511104 -2.691377 0
M  V30 32 O 1.765541 4.444928 -3.340518 0
M  V30 33 N 3.701080 3.310768 -2.864254 0
M  V30 34 C 4.024082 2.196832 -2.018274 0
M  V30 35 O 5.143263 1.646273 -1.831032 0
M  V30 36 C 2.003318 0.816855 0.869787 0
M  V30 37 C 1.511387 1.882804 1.602133 0
M  V30 38 C 0.997038 1.798730 2.875502 0
M  V30 39 C 0.960531 0.559667 3.489304 0
M  V30 40 C 1.437557 -0.539945 2.809703 0
M  V30 41 C 1.942130 -0.390829 1.533072 0
M  V30 42 H 2.783837 -7.049549 1.988522 0
M  V30 43 H 0.952150 -7.193854 2.142029 0
M  V30 44 H 1.945088 -6.742976 3.549373 0
M  V30 45 H 0.022597 -4.041735 2.658414 0
M  V30 46 H 0.524023 -5.343801 3.836317 0
M  V30 47 H 1.469664 -3.866302 3.693023 0
M  V30 48 H 0.554183 -5.424647 0.451623 0
M  V30 49 H 2.276441 -5.327662 0.102134 0
M  V30 50 H 0.456557 -3.035692 0.941925 0
M  V30 51 H 1.285582 -3.301632 -0.585796 0
M  V30 52 H 2.825714 -2.930113 1.985948 0
M  V30 53 H 3.487590 -3.064980 0.338354 0
M  V30 54 H 0.317526 0.163688 -1.521355 0
M  V30 55 H -1.970244 -0.299664 -2.922540 0
M  V30 56 H -3.370350 -2.241669 -3.022508 0
M  V30 57 H -4.808433 -3.814627 -2.070447 0
M  V30 58 H -5.980282 -4.632238 -0.141038 0
M  V30 59 H -5.783878 -3.498617 2.033654 0
M  V30 60 H -4.340302 -1.443907 2.272289 0
M  V30 61 H -2.818673 0.206257 1.233575 0
M  V30 62 H -3.716763 2.624566 -0.090219 0
M  V30 63 H -3.725922 5.041487 0.132746 0
M  V30 64 H -1.665338 6.406931 -0.364306 0
M  V30 65 H 0.416776 5.189145 -1.099790 0
M  V30 66 H 4.445837 3.788224 -3.439720 0
M  V30 67 H 1.520133 2.874059 1.196165 0
M  V30 68 H 0.624920 2.639357 3.413003 0
M  V30 69 H 0.562071 0.467101 4.487484 0
M  V30 70 H 1.398445 -1.496444 3.310131 0
M  V30 END ATOM
M  V30 BEGIN BOND
M  V30 1 1 1 2
M  V30 2 1 2 3
M  V30 3 1 2 4
M  V30 4 1 4 5
M  V30 5 1 5 6
M  V30 6 1 6 7
M  V30 7 1 7 8
M  V30 8 2 8 9
M  V30 9 1 9 10
M  V30 10 2 10 11
M  V30 11 1 11 12
M  V30 12 2 12 13
M  V30 13 1 13 14
M  V30 14 1 14 15
M  V30 15 2 15 16
M  V30 16 1 16 17
M  V30 17 2 17 18
M  V30 18 1 18 19
M  V30 19 2 19 20
M  V30 20 1 20 21
M  V30 21 2 21 22
M  V30 22 1 22 23
M  V30 23 2 23 24
M  V30 24 1 14 25
M  V30 25 2 25 26
M  V30 26 1 26 27
M  V30 27 2 27 28
M  V30 28 1 28 29
M  V30 29 2 29 30
M  V30 30 1 11 31
M  V30 31 2 31 32
M  V30 32 1 31 33
M  V30 33 1 33 34
M  V30 34 2 34 35
M  V30 35 1 9 36
M  V30 36 2 36 37
M  V30 37 1 37 38
M  V30 38 2 38 39
M  V30 39 1 39 40
M  V30 40 2 40 41
M  V30 41 1 41 7
M  V30 42 1 34 10
M  V30 43 1 41 36
M  V30 44 1 30 12
M  V30 45 1 24 15
M  V30 46 1 30 25
M  V30 47 1 23 18
M  V30 48 1 1 42
M  V30 49 1 1 43
M  V30 50 1 1 44
M  V30 51 1 3 45
M  V30 52 1 3 46
M  V30 53 1 3 47
M  V30 54 1 4 48
M  V30 55 1 4 49
M  V30 56 1 5 50
M  V30 57 1 5 51
M  V30 58 1 6 52
M  V30 59 1 6 53
M  V30 60 1 13 54
M  V30 61 1 16 55
M  V30 62 1 17 56
M  V30 63 1 19 57
M  V30 64 1 20 58
M  V30 65 1 21 59
M  V30 66 1 22 60
M  V30 67 1 24 61
M  V30 68 1 26 62
M  V30 69 1 27 63
M  V30 70 1 28 64
M  V30 71 1 29 65
M  V30 72 1 33 66
M  V30 73 1 37 67
M  V30 74 1 38 68
M  V30 75 1 39 69
M  V30 76 1 40 70
M  V30 END BOND
M  V30 END CTAB
M  END
>  <Dataset>  (776) 
ChEMBL_Kinases

>  <Ligand_Instance>  (776) 
nan

>  <PDB_ID>  (776) 
nan

>  <Standardized_SMILES>  (776) 
CN(C)CCCn1nc(C2=C(c3cn(-c4ccc5ccccc5c4)c4ccccc34)C(=O)NC2=O)c2ccccc21

>  <Name>  (776) 
nan

>  <Pocket>  (776) 
nan

>  <ATP_Site>  (776) 
nan

>  <Peripheral>  (776) 
nan

>  <Num_H_Atoms_ProtBoundConf>  (776) 
nan

>  <Num_Resolved_Atoms>  (776) 
nan

>  <Num_Not_Resolved_Atoms>  (776) 
nan

$$$$
CHEMBL373834
     RDKit          3D

  0  0  0  0  0  0  0  0  0  0999 V3000
M  V30 BEGIN CTAB
M  V30 COUNTS 32 35 0 0 0
M  V30 BEGIN ATOM
M  V30 1 O -1.473523 0.813338 2.849267 0
M  V30 2 N -1.820055 0.260696 1.772991 0
M  V30 3 C -1.205991 -0.944637 1.410893 0
M  V30 4 C -0.007552 -1.055017 0.774324 0
M  V30 5 C 1.038014 -0.213086 0.262179 0
M  V30 6 C 2.314186 -0.648012 -0.042506 0
M  V30 7 O 2.907300 -1.909870 0.078155 0
M  V30 8 N 3.074494 0.342827 -0.532909 0
M  V30 9 C 2.350945 1.472273 -0.579726 0
M  V30 10 C 2.645711 2.749313 -1.005806 0
M  V30 11 Br 4.389237 3.157421 -1.664219 0
M  V30 12 C 1.683775 3.735464 -0.958182 0
M  V30 13 C 0.436595 3.399990 -0.476414 0
M  V30 14 C 0.198357 2.111086 -0.064596 0
M  V30 15 C 1.116306 1.105498 -0.091225 0
M  V30 16 N 0.131859 -2.400957 0.707537 0
M  V30 17 C -0.885113 -3.080440 1.250253 0
M  V30 18 C -1.222035 -4.409208 1.434085 0
M  V30 19 C -2.398597 -4.764916 2.058867 0
M  V30 20 C -3.302293 -3.839020 2.533932 0
M  V30 21 C -2.959175 -2.519149 2.346807 0
M  V30 22 C -1.785666 -2.153685 1.723575 0
M  V30 23 H 3.747021 -1.992100 0.643612 0
M  V30 24 H 4.070627 0.323502 -0.848046 0
M  V30 25 H 1.908676 4.737626 -1.290109 0
M  V30 26 H -0.319369 4.192625 -0.444436 0
M  V30 27 H -0.796138 1.950231 0.268267 0
M  V30 28 H 0.897148 -2.999486 0.300699 0
M  V30 29 H -0.545804 -5.167740 1.078384 0
M  V30 30 H -2.635135 -5.808390 2.188392 0
M  V30 31 H -4.232639 -4.048346 3.027708 0
M  V30 32 H -3.623278 -1.742130 2.695620 0
M  V30 END ATOM
M  V30 BEGIN BOND
M  V30 1 2 1 2
M  V30 2 1 2 3
M  V30 3 2 3 4
M  V30 4 1 4 5
M  V30 5 2 5 6
M  V30 6 1 6 7
M  V30 7 1 6 8
M  V30 8 1 8 9
M  V30 9 2 9 10
M  V30 10 1 10 11
M  V30 11 1 10 12
M  V30 12 2 12 13
M  V30 13 1 13 14
M  V30 14 2 14 15
M  V30 15 1 4 16
M  V30 16 1 16 17
M  V30 17 2 17 18
M  V30 18 1 18 19
M  V30 19 2 19 20
M  V30 20 1 20 21
M  V30 21 2 21 22
M  V30 22 1 22 3
M  V30 23 1 15 5
M  V30 24 1 22 17
M  V30 25 1 15 9
M  V30 26 1 7 23
M  V30 27 1 8 24
M  V30 28 1 12 25
M  V30 29 1 13 26
M  V30 30 1 14 27
M  V30 31 1 16 28
M  V30 32 1 18 29
M  V30 33 1 19 30
M  V30 34 1 20 31
M  V30 35 1 21 32
M  V30 END BOND
M  V30 END CTAB
M  END
>  <Dataset>  (777) 
ChEMBL_Kinases

>  <Ligand_Instance>  (777) 
nan

>  <PDB_ID>  (777) 
nan

>  <Standardized_SMILES>  (777) 
O=Nc1c(-c2c(O)[nH]c3c(Br)cccc23)[nH]c2ccccc12

>  <Name>  (777) 
nan

>  <Pocket>  (777) 
nan

>  <ATP_Site>  (777) 
nan

>  <Peripheral>  (777) 
nan

>  <Num_H_Atoms_ProtBoundConf>  (777) 
nan

>  <Num_Resolved_Atoms>  (777) 
nan

>  <Num_Not_Resolved_Atoms>  (777) 
nan

$$$$
CHEMBL3091673
     RDKit          3D

  0  0  0  0  0  0  0  0  0  0999 V3000
M  V30 BEGIN CTAB
M  V30 COUNTS 59 63 0 0 0
M  V30 BEGIN ATOM
M  V30 1 C 6.104446 -2.855681 3.083272 0
M  V30 2 O 6.306044 -1.482470 2.853650 0
M  V30 3 C 5.305261 -0.640791 2.411322 0
M  V30 4 C 4.058294 -1.169025 2.187851 0
M  V30 5 C 3.077684 -0.319291 1.750553 0
M  V30 6 C 3.226414 1.036496 1.509889 0
M  V30 7 C 4.495371 1.552666 1.742254 0
M  V30 8 C 5.527889 0.715370 2.190496 0
M  V30 9 O 6.834166 1.092965 2.461064 0
M  V30 10 C 7.266263 2.422392 2.297470 0
M  V30 11 C 2.370608 2.152582 1.053367 0
M  V30 12 N 1.047068 1.592303 0.771961 0
M  V30 13 C 0.401263 2.378665 -0.284917 0
M  V30 14 C -1.003726 2.050332 -0.467606 0
M  V30 15 O -1.678952 2.602886 -1.403592 0
M  V30 16 N -1.705882 1.132290 0.351228 0
M  V30 17 C -3.014078 0.583746 0.461202 0
M  V30 18 C -4.123717 1.090945 1.153746 0
M  V30 19 C -5.301323 0.373299 1.130389 0
M  V30 20 C -5.355608 -0.812551 0.434253 0
M  V30 21 C -4.300048 -1.347590 -0.255816 0
M  V30 22 C -3.094343 -0.628080 -0.242452 0
M  V30 23 C -4.710977 -2.603004 -0.858901 0
M  V30 24 C -3.998208 -3.404757 -1.622674 0
M  V30 25 C -4.394541 -4.657391 -2.222533 0
M  V30 26 C -5.013870 -5.791539 -1.694908 0
M  V30 27 N -5.212759 -6.731745 -2.637352 0
M  V30 28 C -4.720393 -6.218032 -3.799776 0
M  V30 29 N -4.240905 -4.991235 -3.534733 0
M  V30 30 C -6.104180 -2.849545 -0.516666 0
M  V30 31 O -6.825739 -3.821708 -0.844534 0
M  V30 32 N -6.462751 -1.716254 0.284475 0
M  V30 33 C 1.239472 0.221418 0.263743 0
M  V30 34 C 1.632247 -0.642141 1.416738 0
M  V30 35 H 5.654898 -3.033922 4.069269 0
M  V30 36 H 5.421163 -3.319570 2.325135 0
M  V30 37 H 7.088194 -3.375399 3.085021 0
M  V30 38 H 3.741882 -2.170416 2.309712 0
M  V30 39 H 4.885082 2.557395 1.639820 0
M  V30 40 H 6.858307 2.906080 1.379584 0
M  V30 41 H 8.383587 2.360227 2.178448 0
M  V30 42 H 7.069411 3.031834 3.203318 0
M  V30 43 H 2.231848 2.888546 1.879821 0
M  V30 44 H 2.811882 2.624721 0.152813 0
M  V30 45 H 0.574613 3.432039 -0.046651 0
M  V30 46 H 0.978794 2.164501 -1.223202 0
M  V30 47 H -1.250348 0.643289 1.181477 0
M  V30 48 H -3.899804 2.029142 1.638882 0
M  V30 49 H -6.118172 0.817889 1.682481 0
M  V30 50 H -2.309147 -1.094983 -0.800309 0
M  V30 51 H -2.967397 -3.082621 -1.834298 0
M  V30 52 H -5.301385 -5.958151 -0.675501 0
M  V30 53 H -4.741369 -6.748216 -4.734415 0
M  V30 54 H -3.799996 -4.349032 -4.230334 0
M  V30 55 H -7.416712 -1.591067 0.695541 0
M  V30 56 H 0.361003 -0.063190 -0.304045 0
M  V30 57 H 2.124272 0.231538 -0.444093 0
M  V30 58 H 1.072935 -0.500778 2.344789 0
M  V30 59 H 1.584841 -1.730318 1.113822 0
M  V30 END ATOM
M  V30 BEGIN BOND
M  V30 1 1 1 2
M  V30 2 1 2 3
M  V30 3 2 3 4
M  V30 4 1 4 5
M  V30 5 2 5 6
M  V30 6 1 6 7
M  V30 7 2 7 8
M  V30 8 1 8 9
M  V30 9 1 9 10
M  V30 10 1 6 11
M  V30 11 1 11 12
M  V30 12 1 12 13
M  V30 13 1 13 14
M  V30 14 2 14 15
M  V30 15 1 14 16
M  V30 16 1 16 17
M  V30 17 2 17 18
M  V30 18 1 18 19
M  V30 19 2 19 20
M  V30 20 1 20 21
M  V30 21 2 21 22
M  V30 22 1 21 23
M  V30 23 2 23 24
M  V30 24 1 24 25
M  V30 25 2 25 26
M  V30 26 1 26 27
M  V30 27 2 27 28
M  V30 28 1 28 29
M  V30 29 1 23 30
M  V30 30 2 30 31
M  V30 31 1 30 32
M  V30 32 1 12 33
M  V30 33 1 33 34
M  V30 34 1 8 3
M  V30 35 1 22 17
M  V30 36 1 29 25
M  V30 37 1 34 5
M  V30 38 1 32 20
M  V30 39 1 1 35
M  V30 40 1 1 36
M  V30 41 1 1 37
M  V30 42 1 4 38
M  V30 43 1 7 39
M  V30 44 1 10 40
M  V30 45 1 10 41
M  V30 46 1 10 42
M  V30 47 1 11 43
M  V30 48 1 11 44
M  V30 49 1 13 45
M  V30 50 1 13 46
M  V30 51 1 16 47
M  V30 52 1 18 48
M  V30 53 1 19 49
M  V30 54 1 22 50
M  V30 55 1 24 51
M  V30 56 1 26 52
M  V30 57 1 28 53
M  V30 58 1 29 54
M  V30 59 1 32 55
M  V30 60 1 33 56
M  V30 61 1 33 57
M  V30 62 1 34 58
M  V30 63 1 34 59
M  V30 END BOND
M  V30 END CTAB
M  END
>  <Dataset>  (778) 
ChEMBL_Kinases

>  <Ligand_Instance>  (778) 
nan

>  <PDB_ID>  (778) 
nan

>  <Standardized_SMILES>  (778) 
COc1cc2c(cc1OC)CN(CC(=O)Nc1ccc3c(c1)/C(=C/c1cnc[nH]1)C(=O)N3)CC2

>  <Name>  (778) 
nan

>  <Pocket>  (778) 
nan

>  <ATP_Site>  (778) 
nan

>  <Peripheral>  (778) 
nan

>  <Num_H_Atoms_ProtBoundConf>  (778) 
nan

>  <Num_Resolved_Atoms>  (778) 
nan

>  <Num_Not_Resolved_Atoms>  (778) 
nan

$$$$
CHEMBL4277459
     RDKit          3D

  0  0  0  0  0  0  0  0  0  0999 V3000
M  V30 BEGIN CTAB
M  V30 COUNTS 60 67 0 0 0
M  V30 BEGIN ATOM
M  V30 1 C -1.820354 -4.088149 4.171283 0
M  V30 2 C -1.401095 -3.198543 3.051955 0
M  V30 3 O -0.231139 -2.728091 2.954207 0
M  V30 4 N -2.355537 -2.851504 2.032629 0
M  V30 5 C -1.968716 -1.991943 0.941568 0 CFG=1
M  V30 6 C -2.112310 -2.699543 -0.407346 0
M  V30 7 C -1.551664 -1.720390 -1.408491 0 CFG=1
M  V30 8 O -1.987177 -0.470116 -1.343578 0
M  V30 9 C -2.215644 0.163172 -0.132559 0 CFG=1
M  V30 10 C -3.192209 1.288771 -0.527434 0
M  V30 11 C -2.876647 -0.792818 0.797521 0 CFG=2
M  V30 12 O -3.144853 -0.307012 2.053091 0
M  V30 13 N -0.957093 0.697539 0.356708 0
M  V30 14 C -0.722824 1.753460 1.149514 0
M  V30 15 C -1.581669 2.622893 1.756239 0
M  V30 16 C -1.161006 3.654401 2.543860 0
M  V30 17 C 0.200961 3.844950 2.750229 0
M  V30 18 C 1.097133 2.983602 2.151819 0
M  V30 19 C 0.619347 1.957250 1.365296 0
M  V30 20 C 1.295800 0.976208 0.674354 0
M  V30 21 C 2.617533 0.646097 0.496876 0
M  V30 22 C 2.943612 -0.436012 -0.282848 0
M  V30 23 C 1.983429 -1.183603 -0.879194 0
M  V30 24 C 2.064288 -2.278577 -1.668464 0
M  V30 25 C 3.005167 -3.096249 -2.217699 0
M  V30 26 C 2.733235 -4.182741 -3.016594 0
M  V30 27 C 1.401224 -4.496632 -3.304297 0
M  V30 28 C 0.420857 -3.677882 -2.756076 0
M  V30 29 C 0.765265 -2.603869 -1.962925 0
M  V30 30 N -0.079075 -1.736820 -1.373626 0
M  V30 31 C 0.665025 -0.842951 -0.694026 0
M  V30 32 C 0.298081 0.237989 0.080854 0
M  V30 33 C 4.381696 -0.490793 -0.254917 0
M  V30 34 O 5.237114 -1.229187 -0.756922 0
M  V30 35 N 4.878900 0.566153 0.545257 0
M  V30 36 C 3.785499 1.353292 1.076638 0
M  V30 37 H -1.782020 -5.148803 3.894158 0
M  V30 38 H -2.783203 -3.761712 4.607706 0
M  V30 39 H -1.065774 -3.915511 4.990686 0
M  V30 40 H -3.336905 -3.197289 2.041174 0
M  V30 41 H -0.917682 -1.676446 1.014851 0
M  V30 42 H -1.546566 -3.628591 -0.444116 0
M  V30 43 H -3.197845 -2.788427 -0.600564 0
M  V30 44 H -1.807665 -2.127684 -2.410229 0
M  V30 45 H -2.691130 2.234566 -0.728246 0
M  V30 46 H -3.705802 1.053431 -1.512384 0
M  V30 47 H -4.063318 1.333672 0.167688 0
M  V30 48 H -3.834306 -1.098191 0.315006 0
M  V30 49 H -4.086399 -0.487376 2.307319 0
M  V30 50 H -2.623955 2.496895 1.621696 0
M  V30 51 H -1.895044 4.319521 3.004081 0
M  V30 52 H 0.547985 4.672358 3.382339 0
M  V30 53 H 2.158741 3.120910 2.304132 0
M  V30 54 H 4.025222 -2.932778 -2.053081 0
M  V30 55 H 3.482528 -4.827338 -3.449215 0
M  V30 56 H 1.167734 -5.343616 -3.928062 0
M  V30 57 H -0.605229 -3.917644 -2.976220 0
M  V30 58 H 5.816750 0.886153 0.822240 0
M  V30 59 H 3.769869 1.350979 2.184538 0
M  V30 60 H 3.895539 2.395603 0.746470 0
M  V30 END ATOM
M  V30 BEGIN BOND
M  V30 1 1 1 2
M  V30 2 2 2 3
M  V30 3 1 2 4
M  V30 4 1 4 5
M  V30 5 1 5 6
M  V30 6 1 6 7
M  V30 7 1 7 8
M  V30 8 1 8 9
M  V30 9 1 9 10 CFG=3
M  V30 10 1 9 11
M  V30 11 1 11 12
M  V30 12 1 9 13
M  V30 13 1 13 14
M  V30 14 2 14 15
M  V30 15 1 15 16
M  V30 16 2 16 17
M  V30 17 1 17 18
M  V30 18 2 18 19
M  V30 19 1 19 20
M  V30 20 2 20 21
M  V30 21 1 21 22
M  V30 22 2 22 23
M  V30 23 1 23 24
M  V30 24 2 24 25
M  V30 25 1 25 26
M  V30 26 2 26 27
M  V30 27 1 27 28
M  V30 28 2 28 29
M  V30 29 1 29 30
M  V30 30 1 30 31
M  V30 31 2 31 32
M  V30 32 1 22 33
M  V30 33 2 33 34
M  V30 34 1 33 35
M  V30 35 1 35 36
M  V30 36 1 11 5
M  V30 37 1 32 13
M  V30 38 1 30 7
M  V30 39 1 19 14
M  V30 40 1 32 20
M  V30 41 1 36 21
M  V30 42 1 31 23
M  V30 43 1 29 24
M  V30 44 1 1 37
M  V30 45 1 1 38
M  V30 46 1 1 39
M  V30 47 1 4 40
M  V30 48 1 5 41 CFG=1
M  V30 49 1 6 42
M  V30 50 1 6 43
M  V30 51 1 7 44 CFG=3
M  V30 52 1 10 45
M  V30 53 1 10 46
M  V30 54 1 10 47
M  V30 55 1 11 48 CFG=3
M  V30 56 1 12 49
M  V30 57 1 15 50
M  V30 58 1 16 51
M  V30 59 1 17 52
M  V30 60 1 18 53
M  V30 61 1 25 54
M  V30 62 1 26 55
M  V30 63 1 27 56
M  V30 64 1 28 57
M  V30 65 1 35 58
M  V30 66 1 36 59
M  V30 67 1 36 60
M  V30 END BOND
M  V30 END CTAB
M  END
>  <Dataset>  (779) 
ChEMBL_Kinases

>  <Ligand_Instance>  (779) 
nan

>  <PDB_ID>  (779) 
nan

>  <Standardized_SMILES>  (779) 
CC(=O)N[C@H]1C[C@H]2O[C@@](C)([C@@H]1O)n1c3ccccc3c3c4c(c5c6ccccc6n2c5c31)C(=O)NC4

>  <Name>  (779) 
nan

>  <Pocket>  (779) 
nan

>  <ATP_Site>  (779) 
nan

>  <Peripheral>  (779) 
nan

>  <Num_H_Atoms_ProtBoundConf>  (779) 
nan

>  <Num_Resolved_Atoms>  (779) 
nan

>  <Num_Not_Resolved_Atoms>  (779) 
nan

$$$$
CHEMBL4446357
     RDKit          3D

  0  0  0  0  0  0  0  0  0  0999 V3000
M  V30 BEGIN CTAB
M  V30 COUNTS 59 62 0 0 0
M  V30 BEGIN ATOM
M  V30 1 C 2.905547 2.230420 3.461499 0
M  V30 2 C 3.647921 1.485652 2.405081 0 CFG=1
M  V30 3 O 4.868226 2.146879 2.217774 0
M  V30 4 C 3.982894 0.089281 2.918652 0
M  V30 5 C 3.064319 -0.817633 2.075676 0
M  V30 6 C 3.112011 -0.066421 0.800111 0
M  V30 7 C 2.937696 1.338398 1.092663 0 CFG=1
M  V30 8 N 1.664434 1.953267 0.990140 0
M  V30 9 C 1.679626 3.318163 1.085660 0
M  V30 10 O 2.674729 4.053494 1.251103 0
M  V30 11 C 0.508200 4.041186 0.999310 0
M  V30 12 C 0.439389 5.538032 1.093361 0
M  V30 13 F -0.037441 6.076310 -0.093221 0
M  V30 14 F -0.334516 5.959841 2.137179 0
M  V30 15 C -0.726219 3.452428 0.815211 0
M  V30 16 C -0.746430 2.072901 0.717648 0
M  V30 17 C -1.892499 1.325746 0.528249 0
M  V30 18 N -1.833587 -0.026283 0.437239 0
M  V30 19 C -0.660191 -0.677556 0.528579 0
M  V30 20 N -0.573827 -2.078835 0.435556 0
M  V30 21 C -1.758058 -2.898850 0.231467 0
M  V30 22 C -2.474749 -2.579892 -1.023139 0
M  V30 23 C -3.289964 -3.732776 -1.492323 0
M  V30 24 N -2.505639 -4.889765 -1.835890 0
M  V30 25 S -3.406279 -6.308089 -2.034219 0
M  V30 26 C -4.558175 -6.062169 -3.379328 0
M  V30 27 O -2.482807 -7.412975 -2.465300 0
M  V30 28 O -4.108066 -6.782398 -0.794492 0
M  V30 29 C -1.309836 -5.009866 -1.048029 0
M  V30 30 C -1.407186 -4.341536 0.285234 0
M  V30 31 N 0.405567 0.086649 0.709944 0
M  V30 32 C 0.452713 1.402834 0.810984 0
M  V30 33 H 1.822351 2.325215 3.322537 0
M  V30 34 H 3.412991 3.203170 3.736398 0
M  V30 35 H 3.006871 1.644648 4.404868 0
M  V30 36 H 5.631623 1.549129 2.088874 0
M  V30 37 H 5.041084 -0.163402 2.709944 0
M  V30 38 H 3.775110 -0.024595 3.992091 0
M  V30 39 H 3.558028 -1.824518 1.994466 0
M  V30 40 H 2.138526 -0.867116 2.627441 0
M  V30 41 H 4.192859 -0.206623 0.458864 0
M  V30 42 H 2.570111 -0.512368 -0.042462 0
M  V30 43 H 3.576981 1.907984 0.327644 0
M  V30 44 H 1.471481 5.964389 1.241362 0
M  V30 45 H -1.649931 3.989607 0.745225 0
M  V30 46 H -2.841900 1.863934 0.455338 0
M  V30 47 H 0.360706 -2.537034 0.515189 0
M  V30 48 H -2.435521 -2.632758 1.086424 0
M  V30 49 H -3.153039 -1.703198 -0.863589 0
M  V30 50 H -1.702264 -2.341695 -1.799796 0
M  V30 51 H -3.969271 -4.037019 -0.657799 0
M  V30 52 H -3.947761 -3.490182 -2.351226 0
M  V30 53 H -5.547049 -6.490095 -3.160312 0
M  V30 54 H -4.169601 -6.485596 -4.334341 0
M  V30 55 H -4.699048 -4.968529 -3.577301 0
M  V30 56 H -0.458453 -4.622514 -1.639704 0
M  V30 57 H -1.123084 -6.090124 -0.882157 0
M  V30 58 H -0.380301 -4.429750 0.746587 0
M  V30 59 H -2.050434 -4.922335 1.002604 0
M  V30 END ATOM
M  V30 BEGIN BOND
M  V30 1 1 1 2
M  V30 2 1 2 3 CFG=3
M  V30 3 1 2 4
M  V30 4 1 4 5
M  V30 5 1 5 6
M  V30 6 1 6 7
M  V30 7 1 7 8
M  V30 8 1 8 9
M  V30 9 2 9 10
M  V30 10 1 9 11
M  V30 11 1 11 12
M  V30 12 1 12 13
M  V30 13 1 12 14
M  V30 14 2 11 15
M  V30 15 1 15 16
M  V30 16 2 16 17
M  V30 17 1 17 18
M  V30 18 2 18 19
M  V30 19 1 19 20
M  V30 20 1 20 21
M  V30 21 1 21 22
M  V30 22 1 22 23
M  V30 23 1 23 24
M  V30 24 1 24 25
M  V30 25 1 25 26
M  V30 26 2 25 27
M  V30 27 2 25 28
M  V30 28 1 24 29
M  V30 29 1 29 30
M  V30 30 1 19 31
M  V30 31 2 31 32
M  V30 32 1 7 2
M  V30 33 1 32 8
M  V30 34 1 32 16
M  V30 35 1 30 21
M  V30 36 1 1 33
M  V30 37 1 1 34
M  V30 38 1 1 35
M  V30 39 1 3 36
M  V30 40 1 4 37
M  V30 41 1 4 38
M  V30 42 1 5 39
M  V30 43 1 5 40
M  V30 44 1 6 41
M  V30 45 1 6 42
M  V30 46 1 7 43 CFG=3
M  V30 47 1 12 44
M  V30 48 1 15 45
M  V30 49 1 17 46
M  V30 50 1 20 47
M  V30 51 1 21 48
M  V30 52 1 22 49
M  V30 53 1 22 50
M  V30 54 1 23 51
M  V30 55 1 23 52
M  V30 56 1 26 53
M  V30 57 1 26 54
M  V30 58 1 26 55
M  V30 59 1 29 56
M  V30 60 1 29 57
M  V30 61 1 30 58
M  V30 62 1 30 59
M  V30 END BOND
M  V30 END CTAB
M  END
>  <Dataset>  (780) 
ChEMBL_Kinases

>  <Ligand_Instance>  (780) 
nan

>  <PDB_ID>  (780) 
nan

>  <Standardized_SMILES>  (780) 
C[C@@]1(O)CCC[C@H]1n1c(=O)c(C(F)F)cc2cnc(NC3CCN(S(C)(=O)=O)CC3)nc21

>  <Name>  (780) 
EBVACICLIB

>  <Pocket>  (780) 
nan

>  <ATP_Site>  (780) 
nan

>  <Peripheral>  (780) 
nan

>  <Num_H_Atoms_ProtBoundConf>  (780) 
nan

>  <Num_Resolved_Atoms>  (780) 
nan

>  <Num_Not_Resolved_Atoms>  (780) 
nan

$$$$
CHEMBL5081774
     RDKit          3D

  0  0  0  0  0  0  0  0  0  0999 V3000
M  V30 BEGIN CTAB
M  V30 COUNTS 44 48 0 0 0
M  V30 BEGIN ATOM
M  V30 1 H 5.022028 0.222691 -2.338009 0 MASS=2
M  V30 2 C 4.256960 1.020817 -2.231036 0
M  V30 3 H 3.724855 1.091702 -3.200761 0 MASS=2
M  V30 4 H 4.720099 1.982628 -1.936774 0 MASS=2
M  V30 5 C 3.224801 0.553976 -1.195778 0
M  V30 6 C 4.004508 0.098840 0.044849 0
M  V30 7 H 3.348134 -0.504673 0.703271 0 MASS=2
M  V30 8 H 4.929084 -0.431328 -0.203434 0 MASS=2
M  V30 9 H 4.252413 1.013884 0.637416 0 MASS=2
M  V30 10 C 2.384075 1.726734 -0.762198 0
M  V30 11 N 1.327104 1.230427 0.101779 0
M  V30 12 N 0.761404 1.526583 1.267879 0
M  V30 13 C -0.223288 0.655463 1.564063 0
M  V30 14 C -1.049347 0.683782 2.768846 0
M  V30 15 C -0.328805 0.543651 3.956698 0
M  V30 16 C -1.014975 0.555848 5.174248 0
M  V30 17 C -2.383531 0.705684 5.170658 0
M  V30 18 F -3.133048 0.728302 6.315063 0
M  V30 19 C -3.069206 0.842167 3.978046 0
M  V30 20 N -2.386608 0.827422 2.818709 0
M  V30 21 C -0.259380 -0.243543 0.490222 0
M  V30 22 C -1.184142 -1.371059 0.376288 0
M  V30 23 C -2.539308 -1.153209 0.278379 0
M  V30 24 C -3.420040 -2.230035 0.171169 0
M  V30 25 N -2.950165 -3.484493 0.163102 0
M  V30 26 C -1.631054 -3.724807 0.257634 0
M  V30 27 N -0.890970 -4.843142 0.275284 0
M  V30 28 N 0.407488 -4.600853 0.384954 0
M  V30 29 C 0.537527 -3.244761 0.443729 0
M  V30 30 C -0.726662 -2.677966 0.365637 0
M  V30 31 C 0.716090 0.141381 -0.400712 0
M  V30 32 C 1.161628 -0.403528 -1.710546 0
M  V30 33 O 2.530382 -0.476233 -1.768549 0
M  V30 34 H 3.027906 2.436399 -0.217476 0
M  V30 35 H 1.897917 2.187592 -1.647381 0
M  V30 36 H 0.758139 0.422932 3.976945 0
M  V30 37 H -0.553359 0.456504 6.130207 0
M  V30 38 H -4.146575 0.963711 3.899965 0
M  V30 39 H -2.981863 -0.169297 0.277732 0
M  V30 40 H -4.487858 -2.057610 0.093898 0
M  V30 41 H -1.287359 -5.792018 0.211184 0
M  V30 42 H 1.472097 -2.697026 0.535499 0
M  V30 43 H 0.767659 -1.436621 -1.807438 0
M  V30 44 H 0.813131 0.252266 -2.535673 0
M  V30 END ATOM
M  V30 BEGIN BOND
M  V30 1 1 1 2
M  V30 2 1 2 3
M  V30 3 1 2 4
M  V30 4 1 2 5
M  V30 5 1 5 6
M  V30 6 1 6 7
M  V30 7 1 6 8
M  V30 8 1 6 9
M  V30 9 1 5 10
M  V30 10 1 10 11
M  V30 11 1 11 12
M  V30 12 2 12 13
M  V30 13 1 13 14
M  V30 14 2 14 15
M  V30 15 1 15 16
M  V30 16 2 16 17
M  V30 17 1 17 18
M  V30 18 1 17 19
M  V30 19 2 19 20
M  V30 20 1 13 21
M  V30 21 1 21 22
M  V30 22 2 22 23
M  V30 23 1 23 24
M  V30 24 2 24 25
M  V30 25 1 25 26
M  V30 26 1 26 27
M  V30 27 1 27 28
M  V30 28 2 28 29
M  V30 29 1 29 30
M  V30 30 2 21 31
M  V30 31 1 31 32
M  V30 32 1 32 33
M  V30 33 1 33 5
M  V30 34 1 31 11
M  V30 35 1 20 14
M  V30 36 1 30 22
M  V30 37 2 30 26
M  V30 38 1 10 34
M  V30 39 1 10 35
M  V30 40 1 15 36
M  V30 41 1 16 37
M  V30 42 1 19 38
M  V30 43 1 23 39
M  V30 44 1 24 40
M  V30 45 1 27 41
M  V30 46 1 29 42
M  V30 47 1 32 43
M  V30 48 1 32 44
M  V30 END BOND
M  V30 END CTAB
M  END
>  <Dataset>  (781) 
ChEMBL_Kinases

>  <Ligand_Instance>  (781) 
nan

>  <PDB_ID>  (781) 
nan

>  <Standardized_SMILES>  (781) 
[2H]C([2H])([2H])C1(C([2H])([2H])[2H])Cn2nc(-c3ccc(F)cn3)c(-c3ccnc4[nH]ncc34)c2CO1

>  <Name>  (781) 
nan

>  <Pocket>  (781) 
nan

>  <ATP_Site>  (781) 
nan

>  <Peripheral>  (781) 
nan

>  <Num_H_Atoms_ProtBoundConf>  (781) 
nan

>  <Num_Resolved_Atoms>  (781) 
nan

>  <Num_Not_Resolved_Atoms>  (781) 
nan

$$$$
CHEMBL1899640
     RDKit          3D

  0  0  0  0  0  0  0  0  0  0999 V3000
M  V30 BEGIN CTAB
M  V30 COUNTS 35 38 0 0 0
M  V30 BEGIN ATOM
M  V30 1 Cl 0.185529 -2.455139 7.003559 0
M  V30 2 C 0.837794 -2.490183 5.385735 0
M  V30 3 C 1.910782 -3.297040 5.077021 0
M  V30 4 C 2.430323 -3.330684 3.806380 0
M  V30 5 C 1.922178 -2.572304 2.771010 0
M  V30 6 N 2.475238 -2.623943 1.467971 0
M  V30 7 C 2.096931 -1.930329 0.291878 0
M  V30 8 N 2.784097 -2.149020 -0.842314 0
M  V30 9 C 2.496076 -1.537819 -1.998920 0
M  V30 10 C 1.453369 -0.644951 -2.040215 0
M  V30 11 C 0.726804 -0.391824 -0.909791 0
M  V30 12 C -0.383818 0.549066 -0.921865 0
M  V30 13 C -1.149150 0.842466 0.184996 0
M  V30 14 C -2.206992 1.728312 0.205893 0
M  V30 15 C -2.541846 2.381380 -0.958301 0
M  V30 16 C -1.815613 2.133416 -2.104283 0
M  V30 17 C -0.758952 1.227085 -2.057674 0
M  V30 18 O -2.374966 2.925077 -3.108833 0
M  V30 19 C -3.696506 3.300005 -2.715201 0
M  V30 20 O -3.524013 3.316156 -1.291714 0
M  V30 21 N 1.089911 -1.050816 0.197947 0
M  V30 22 C 0.852357 -1.786076 3.136105 0
M  V30 23 C 0.288059 -1.709589 4.390783 0
M  V30 24 H 2.363621 -3.921216 5.837476 0
M  V30 25 H 3.287589 -3.994833 3.621025 0
M  V30 26 H 3.300572 -3.291542 1.378058 0
M  V30 27 H 3.108278 -1.774549 -2.877828 0
M  V30 28 H 1.275386 -0.193658 -2.986159 0
M  V30 29 H -0.938720 0.364698 1.128262 0
M  V30 30 H -2.799383 1.957061 1.057510 0
M  V30 31 H -0.259438 1.104455 -2.996342 0
M  V30 32 H -4.027774 4.247858 -3.129209 0
M  V30 33 H -4.341545 2.432273 -3.019317 0
M  V30 34 H 0.374772 -1.153708 2.415525 0
M  V30 35 H -0.546787 -1.081537 4.630120 0
M  V30 END ATOM
M  V30 BEGIN BOND
M  V30 1 1 1 2
M  V30 2 2 2 3
M  V30 3 1 3 4
M  V30 4 2 4 5
M  V30 5 1 5 6
M  V30 6 1 6 7
M  V30 7 2 7 8
M  V30 8 1 8 9
M  V30 9 2 9 10
M  V30 10 1 10 11
M  V30 11 1 11 12
M  V30 12 2 12 13
M  V30 13 1 13 14
M  V30 14 2 14 15
M  V30 15 1 15 16
M  V30 16 2 16 17
M  V30 17 1 16 18
M  V30 18 1 18 19
M  V30 19 1 19 20
M  V30 20 2 11 21
M  V30 21 1 5 22
M  V30 22 2 22 23
M  V30 23 1 23 2
M  V30 24 1 21 7
M  V30 25 1 17 12
M  V30 26 1 20 15
M  V30 27 1 3 24
M  V30 28 1 4 25
M  V30 29 1 6 26
M  V30 30 1 9 27
M  V30 31 1 10 28
M  V30 32 1 13 29
M  V30 33 1 14 30
M  V30 34 1 17 31
M  V30 35 1 19 32
M  V30 36 1 19 33
M  V30 37 1 22 34
M  V30 38 1 23 35
M  V30 END BOND
M  V30 END CTAB
M  END
>  <Dataset>  (782) 
ChEMBL_Kinases

>  <Ligand_Instance>  (782) 
nan

>  <PDB_ID>  (782) 
nan

>  <Standardized_SMILES>  (782) 
Clc1ccc(Nc2nccc(-c3ccc4c(c3)OCO4)n2)cc1

>  <Name>  (782) 
nan

>  <Pocket>  (782) 
nan

>  <ATP_Site>  (782) 
nan

>  <Peripheral>  (782) 
nan

>  <Num_H_Atoms_ProtBoundConf>  (782) 
nan

>  <Num_Resolved_Atoms>  (782) 
nan

>  <Num_Not_Resolved_Atoms>  (782) 
nan

$$$$
CHEMBL3728772
     RDKit          3D

  0  0  0  0  0  0  0  0  0  0999 V3000
M  V30 BEGIN CTAB
M  V30 COUNTS 37 38 0 0 0
M  V30 BEGIN ATOM
M  V30 1 C -1.341075 -0.914849 3.195452 0
M  V30 2 O -0.679757 -2.074145 3.628802 0
M  V30 3 C 0.658686 -2.324571 3.363053 0
M  V30 4 C 1.155899 -3.510043 3.859934 0
M  V30 5 C 2.491770 -3.805048 3.619355 0
M  V30 6 C 3.287472 -2.934419 2.905549 0
M  V30 7 C 2.804718 -1.730648 2.394302 0
M  V30 8 N 3.624596 -0.834205 1.662775 0
M  V30 9 C 3.154259 0.421664 1.109105 0
M  V30 10 C 2.075119 0.113175 0.120421 0
M  V30 11 O 1.457769 -0.866655 -0.376836 0
M  V30 12 N 1.517330 1.282575 -0.503688 0
M  V30 13 N 0.490827 1.009435 -1.446070 0
M  V30 14 C -0.756239 1.016199 -1.158604 0
M  V30 15 C -1.849801 0.741446 -2.094144 0
M  V30 16 C -3.165114 0.780477 -1.656464 0
M  V30 17 C -4.130397 0.503430 -2.627621 0
M  V30 18 N -3.809269 0.215004 -3.913608 0
M  V30 19 C -2.516246 0.190467 -4.285256 0
M  V30 20 C -1.477427 0.453028 -3.390466 0
M  V30 21 C 1.476198 -1.472061 2.652646 0
M  V30 22 H -1.125669 -0.074986 3.893859 0
M  V30 23 H -1.035075 -0.597832 2.169908 0
M  V30 24 H -2.437873 -1.100597 3.224758 0
M  V30 25 H 0.595701 -4.239844 4.426231 0
M  V30 26 H 2.954981 -4.734402 3.986892 0
M  V30 27 H 4.333197 -3.212947 2.743318 0
M  V30 28 H 4.630512 -1.118227 1.526355 0
M  V30 29 H 3.987449 0.960050 0.653897 0
M  V30 30 H 2.775434 1.009130 1.964317 0
M  V30 31 H 1.758259 2.309657 -0.364503 0
M  V30 32 H -0.975941 1.250407 -0.122264 0
M  V30 33 H -3.417482 1.007521 -0.644808 0
M  V30 34 H -5.199966 0.514418 -2.359747 0
M  V30 35 H -2.283181 -0.045846 -5.333246 0
M  V30 36 H -0.433486 0.433341 -3.690053 0
M  V30 37 H 1.001467 -0.576523 2.309419 0
M  V30 END ATOM
M  V30 BEGIN BOND
M  V30 1 1 1 2
M  V30 2 1 2 3
M  V30 3 2 3 4
M  V30 4 1 4 5
M  V30 5 2 5 6
M  V30 6 1 6 7
M  V30 7 1 7 8
M  V30 8 1 8 9
M  V30 9 1 9 10
M  V30 10 2 10 11
M  V30 11 1 10 12
M  V30 12 1 12 13
M  V30 13 2 13 14
M  V30 14 1 14 15
M  V30 15 2 15 16
M  V30 16 1 16 17
M  V30 17 2 17 18
M  V30 18 1 18 19
M  V30 19 2 19 20
M  V30 20 2 7 21
M  V30 21 1 21 3
M  V30 22 1 20 15
M  V30 23 1 1 22
M  V30 24 1 1 23
M  V30 25 1 1 24
M  V30 26 1 4 25
M  V30 27 1 5 26
M  V30 28 1 6 27
M  V30 29 1 8 28
M  V30 30 1 9 29
M  V30 31 1 9 30
M  V30 32 1 12 31
M  V30 33 1 14 32
M  V30 34 1 16 33
M  V30 35 1 17 34
M  V30 36 1 19 35
M  V30 37 1 20 36
M  V30 38 1 21 37
M  V30 END BOND
M  V30 END CTAB
M  END
>  <Dataset>  (783) 
ChEMBL_Kinases

>  <Ligand_Instance>  (783) 
nan

>  <PDB_ID>  (783) 
nan

>  <Standardized_SMILES>  (783) 
COc1cccc(NCC(=O)N/N=C/c2ccncc2)c1

>  <Name>  (783) 
nan

>  <Pocket>  (783) 
nan

>  <ATP_Site>  (783) 
nan

>  <Peripheral>  (783) 
nan

>  <Num_H_Atoms_ProtBoundConf>  (783) 
nan

>  <Num_Resolved_Atoms>  (783) 
nan

>  <Num_Not_Resolved_Atoms>  (783) 
nan

$$$$
CHEMBL3798762
     RDKit          3D

  0  0  0  0  0  0  0  0  0  0999 V3000
M  V30 BEGIN CTAB
M  V30 COUNTS 62 66 0 0 0
M  V30 BEGIN ATOM
M  V30 1 C 5.006676 -1.635037 0.429691 0
M  V30 2 N 4.738580 -1.396147 1.837495 0
M  V30 3 C 5.033297 -2.547072 2.692317 0
M  V30 4 C 4.256638 -0.272730 2.547115 0
M  V30 5 O 4.068877 -0.219299 3.813754 0
M  V30 6 C 3.818088 1.094583 2.296567 0
M  V30 7 C 4.608945 2.196101 2.510325 0
M  V30 8 C 4.216507 3.510445 2.300641 0
M  V30 9 C 2.908423 3.689353 1.836528 0
M  V30 10 C 2.116684 2.592689 1.622033 0
M  V30 11 C 0.734041 2.761599 1.181370 0
M  V30 12 C 0.216701 4.057756 1.151875 0
M  V30 13 N -1.060156 4.317581 0.857512 0
M  V30 14 C -1.938922 3.312882 0.562740 0
M  V30 15 N -3.290940 3.631871 0.259436 0
M  V30 16 C -1.433846 2.003704 0.584595 0
M  V30 17 C -2.366008 0.924795 0.280122 0
M  V30 18 N -3.671507 1.165552 0.016821 0
M  V30 19 C -4.277449 0.008726 -0.293502 0
M  V30 20 C -5.591606 -0.240127 -0.627798 0
M  V30 21 C -5.869377 -1.566566 -0.891834 0
M  V30 22 C -4.962263 -2.596639 -0.845252 0
M  V30 23 C -3.649489 -2.246127 -0.495256 0
M  V30 24 N -2.742898 -3.345805 -0.563398 0
M  V30 25 C -1.854078 -3.291197 -1.733789 0
M  V30 26 C -2.049712 -4.612683 -2.465949 0
M  V30 27 N -1.617635 -5.687881 -1.614247 0
M  V30 28 C -1.386528 -5.286733 -0.258638 0
M  V30 29 C -2.558047 -4.502625 0.305460 0
M  V30 30 C -3.286883 -0.947881 -0.211167 0
M  V30 31 N -2.123827 -0.391862 0.140485 0
M  V30 32 C -0.856679 -1.057823 0.350202 0
M  V30 33 N -0.136614 1.790686 0.889925 0
M  V30 34 C 2.507314 1.275137 1.829774 0
M  V30 35 H 5.772294 -2.404641 0.287162 0
M  V30 36 H 5.299939 -0.662476 -0.021654 0
M  V30 37 H 4.100471 -1.962572 -0.136157 0
M  V30 38 H 4.543804 -2.468286 3.689482 0
M  V30 39 H 6.125872 -2.662630 2.877302 0
M  V30 40 H 4.680102 -3.470392 2.158227 0
M  V30 41 H 5.636081 2.059148 2.876378 0
M  V30 42 H 4.900388 4.323195 2.492497 0
M  V30 43 H 2.638838 4.705323 1.685918 0
M  V30 44 H 0.732653 4.973876 1.349160 0
M  V30 45 H -3.847802 3.454996 -0.604096 0
M  V30 46 H -4.007514 4.110861 0.839530 0
M  V30 47 H -6.364709 0.536070 -0.682653 0
M  V30 48 H -6.923641 -1.749644 -1.159597 0
M  V30 49 H -5.277107 -3.585537 -1.069421 0
M  V30 50 H -0.799641 -3.217002 -1.498601 0
M  V30 51 H -2.149022 -2.462320 -2.392216 0
M  V30 52 H -1.440872 -4.553704 -3.394015 0
M  V30 53 H -3.116584 -4.667934 -2.750868 0
M  V30 54 H -0.708595 -6.087029 -1.980027 0
M  V30 55 H -0.439670 -4.690130 -0.221392 0
M  V30 56 H -1.171161 -6.214302 0.320914 0
M  V30 57 H -3.452844 -5.170811 0.259461 0
M  V30 58 H -2.376743 -4.253868 1.354109 0
M  V30 59 H -0.165003 -0.976795 -0.498702 0
M  V30 60 H -0.998657 -2.107267 0.722537 0
M  V30 61 H -0.374669 -0.532613 1.231026 0
M  V30 62 H 1.876305 0.425016 1.653451 0
M  V30 END ATOM
M  V30 BEGIN BOND
M  V30 1 1 1 2
M  V30 2 1 2 3
M  V30 3 1 2 4
M  V30 4 2 4 5
M  V30 5 1 4 6
M  V30 6 2 6 7
M  V30 7 1 7 8
M  V30 8 2 8 9
M  V30 9 1 9 10
M  V30 10 1 10 11
M  V30 11 2 11 12
M  V30 12 1 12 13
M  V30 13 2 13 14
M  V30 14 1 14 15
M  V30 15 1 14 16
M  V30 16 1 16 17
M  V30 17 2 17 18
M  V30 18 1 18 19
M  V30 19 2 19 20
M  V30 20 1 20 21
M  V30 21 2 21 22
M  V30 22 1 22 23
M  V30 23 1 23 24
M  V30 24 1 24 25
M  V30 25 1 25 26
M  V30 26 1 26 27
M  V30 27 1 27 28
M  V30 28 1 28 29
M  V30 29 2 23 30
M  V30 30 1 30 31
M  V30 31 1 31 32
M  V30 32 2 16 33
M  V30 33 2 10 34
M  V30 34 1 34 6
M  V30 35 1 33 11
M  V30 36 1 31 17
M  V30 37 1 30 19
M  V30 38 1 29 24
M  V30 39 1 1 35
M  V30 40 1 1 36
M  V30 41 1 1 37
M  V30 42 1 3 38
M  V30 43 1 3 39
M  V30 44 1 3 40
M  V30 45 1 7 41
M  V30 46 1 8 42
M  V30 47 1 9 43
M  V30 48 1 12 44
M  V30 49 1 15 45
M  V30 50 1 15 46
M  V30 51 1 20 47
M  V30 52 1 21 48
M  V30 53 1 22 49
M  V30 54 1 25 50
M  V30 55 1 25 51
M  V30 56 1 26 52
M  V30 57 1 26 53
M  V30 58 1 27 54
M  V30 59 1 28 55
M  V30 60 1 28 56
M  V30 61 1 29 57
M  V30 62 1 29 58
M  V30 63 1 32 59
M  V30 64 1 32 60
M  V30 65 1 32 61
M  V30 66 1 34 62
M  V30 END BOND
M  V30 END CTAB
M  END
>  <Dataset>  (784) 
ChEMBL_Kinases

>  <Ligand_Instance>  (784) 
nan

>  <PDB_ID>  (784) 
nan

>  <Standardized_SMILES>  (784) 
CN(C)C(=O)c1cccc(-c2cnc(N)c(-c3nc4cccc(N5CCNCC5)c4n3C)n2)c1

>  <Name>  (784) 
nan

>  <Pocket>  (784) 
nan

>  <ATP_Site>  (784) 
nan

>  <Peripheral>  (784) 
nan

>  <Num_H_Atoms_ProtBoundConf>  (784) 
nan

>  <Num_Resolved_Atoms>  (784) 
nan

>  <Num_Not_Resolved_Atoms>  (784) 
nan

$$$$
CHEMBL506153
     RDKit          3D

  0  0  0  0  0  0  0  0  0  0999 V3000
M  V30 BEGIN CTAB
M  V30 COUNTS 42 44 0 0 0
M  V30 BEGIN ATOM
M  V30 1 C 0.152233 -3.182175 -0.385516 0
M  V30 2 C 0.859847 -1.975817 0.240602 0
M  V30 3 N 0.794228 -0.818733 -0.586320 0
M  V30 4 C 1.685387 -0.527640 -1.549049 0
M  V30 5 C 2.864401 -1.303724 -1.950950 0
M  V30 6 N 3.324349 -2.459743 -1.465274 0
M  V30 7 O 4.391735 -2.792049 -2.107563 0
M  V30 8 N 4.676189 -1.898306 -3.017664 0
M  V30 9 C 3.745311 -0.950025 -2.953304 0
M  V30 10 N 3.680818 0.208992 -3.765792 0
M  V30 11 N 1.351986 0.632712 -2.143040 0
M  V30 12 C 0.236483 1.152601 -1.602177 0
M  V30 13 C -0.540561 2.272797 -1.790247 0
M  V30 14 N -1.620189 2.439788 -1.009156 0
M  V30 15 C -1.954454 1.532353 -0.047531 0
M  V30 16 C -1.178834 0.407827 0.145534 0
M  V30 17 C -1.690854 -0.432420 1.217160 0
M  V30 18 O -2.404406 -1.467692 1.345964 0
M  V30 19 N -1.307090 -0.010432 2.544658 0
M  V30 20 C -1.681104 -0.655319 3.795209 0
M  V30 21 C -1.123927 0.026550 5.007477 0
M  V30 22 N 0.321305 0.069673 5.010130 0
M  V30 23 C 0.928565 -1.210135 5.164636 0
M  V30 24 C -0.064744 0.212131 -0.643928 0
M  V30 25 H 0.325534 -4.096948 0.188493 0
M  V30 26 H -0.928543 -2.960449 -0.354561 0
M  V30 27 H 0.417323 -3.261662 -1.469448 0
M  V30 28 H 1.904581 -2.298423 0.437238 0
M  V30 29 H 0.328830 -1.817863 1.199397 0
M  V30 30 H 4.326848 0.275833 -4.620035 0
M  V30 31 H 3.093693 1.064223 -3.693046 0
M  V30 32 H -0.240925 2.966503 -2.563882 0
M  V30 33 H -2.865810 1.816617 0.504341 0
M  V30 34 H -0.695428 0.842929 2.678782 0
M  V30 35 H -2.805788 -0.575304 3.872543 0
M  V30 36 H -1.468838 -1.724839 3.732441 0
M  V30 37 H -1.470816 1.095163 4.965647 0
M  V30 38 H -1.548856 -0.403901 5.913540 0
M  V30 39 H 0.710212 0.691266 4.295738 0
M  V30 40 H 1.348783 -1.419827 6.161454 0
M  V30 41 H 1.779514 -1.256971 4.431029 0
M  V30 42 H 0.207900 -2.000108 4.898185 0
M  V30 END ATOM
M  V30 BEGIN BOND
M  V30 1 1 1 2
M  V30 2 1 2 3
M  V30 3 1 3 4
M  V30 4 1 4 5
M  V30 5 2 5 6
M  V30 6 1 6 7
M  V30 7 1 7 8
M  V30 8 2 8 9
M  V30 9 1 9 10
M  V30 10 2 4 11
M  V30 11 1 11 12
M  V30 12 2 12 13
M  V30 13 1 13 14
M  V30 14 2 14 15
M  V30 15 1 15 16
M  V30 16 1 16 17
M  V30 17 2 17 18
M  V30 18 1 17 19
M  V30 19 1 19 20
M  V30 20 1 20 21
M  V30 21 1 21 22
M  V30 22 1 22 23
M  V30 23 2 16 24
M  V30 24 1 24 3
M  V30 25 1 9 5
M  V30 26 1 24 12
M  V30 27 1 1 25
M  V30 28 1 1 26
M  V30 29 1 1 27
M  V30 30 1 2 28
M  V30 31 1 2 29
M  V30 32 1 10 30
M  V30 33 1 10 31
M  V30 34 1 13 32
M  V30 35 1 15 33
M  V30 36 1 19 34
M  V30 37 1 20 35
M  V30 38 1 20 36
M  V30 39 1 21 37
M  V30 40 1 21 38
M  V30 41 1 22 39
M  V30 42 1 23 40
M  V30 43 1 23 41
M  V30 44 1 23 42
M  V30 END BOND
M  V30 END CTAB
M  END
>  <Dataset>  (785) 
ChEMBL_Kinases

>  <Ligand_Instance>  (785) 
nan

>  <PDB_ID>  (785) 
nan

>  <Standardized_SMILES>  (785) 
CCn1c(-c2nonc2N)nc2cncc(C(=O)NCCNC)c21

>  <Name>  (785) 
GW876790X

>  <Pocket>  (785) 
nan

>  <ATP_Site>  (785) 
nan

>  <Peripheral>  (785) 
nan

>  <Num_H_Atoms_ProtBoundConf>  (785) 
nan

>  <Num_Resolved_Atoms>  (785) 
nan

>  <Num_Not_Resolved_Atoms>  (785) 
nan

$$$$
CHEMBL4792347
     RDKit          3D

  0  0  0  0  0  0  0  0  0  0999 V3000
M  V30 BEGIN CTAB
M  V30 COUNTS 68 71 0 0 0
M  V30 BEGIN ATOM
M  V30 1 C 4.111618 4.243341 5.657596 0
M  V30 2 N 3.555227 4.173242 4.307282 0
M  V30 3 C 4.598855 3.829736 3.359062 0
M  V30 4 C 4.102940 3.740888 1.957562 0
M  V30 5 O 3.119065 2.828053 1.673496 0
M  V30 6 C 3.154316 1.488327 1.782629 0
M  V30 7 C 4.123247 0.595886 2.180527 0
M  V30 8 C 4.024325 -0.774811 2.244332 0
M  V30 9 C 2.808044 -1.299679 1.862127 0
M  V30 10 C 1.777642 -0.482275 1.448117 0
M  V30 11 C 1.928863 0.909424 1.400760 0
M  V30 12 C 0.758280 1.675445 0.964850 0
M  V30 13 C 1.113182 2.489331 -0.286925 0
M  V30 14 C 0.252294 2.675091 1.979001 0
M  V30 15 N -0.393206 0.878172 0.595548 0
M  V30 16 C -0.341767 0.032115 -0.574260 0
M  V30 17 N 0.784189 -0.009340 -1.346618 0
M  V30 18 C 0.812920 -0.794600 -2.438134 0
M  V30 19 C -0.259205 -1.573941 -2.821627 0
M  V30 20 N -1.363273 -1.525207 -2.053241 0
M  V30 21 C -2.447103 -2.343050 -2.482182 0
M  V30 22 C -2.941282 -3.355582 -1.684286 0
M  V30 23 C -3.989934 -4.156365 -2.086291 0
M  V30 24 C -4.546175 -5.236376 -1.280811 0
M  V30 25 O -5.503268 -5.938940 -1.704458 0
M  V30 26 N -4.057257 -5.558210 0.001345 0
M  V30 27 C -4.621426 -6.645967 0.805122 0
M  V30 28 C -4.608676 -6.525211 2.292154 0
M  V30 29 C -3.611349 -7.396571 1.618625 0
M  V30 30 C -4.532567 -3.904911 -3.329345 0
M  V30 31 C -4.092382 -2.910067 -4.184535 0
M  V30 32 C -3.040320 -2.137712 -3.732898 0
M  V30 33 C -2.514112 -1.039988 -4.612619 0
M  V30 34 C -1.436047 -0.754137 -0.953140 0
M  V30 35 O -2.476584 -0.739521 -0.271626 0
M  V30 36 H 4.509756 3.280172 5.995496 0
M  V30 37 H 4.861611 5.066348 5.730249 0
M  V30 38 H 3.281561 4.570585 6.333621 0
M  V30 39 H 3.163658 5.130049 4.102778 0
M  V30 40 H 5.320720 4.708188 3.369148 0
M  V30 41 H 5.183811 2.986884 3.731212 0
M  V30 42 H 3.824457 4.758152 1.565350 0
M  V30 43 H 5.004041 3.456644 1.327016 0
M  V30 44 H 5.056465 1.053660 2.458913 0
M  V30 45 H 4.885087 -1.336533 2.581695 0
M  V30 46 H 2.761392 -2.398004 1.924395 0
M  V30 47 H 0.913724 -1.071513 1.201350 0
M  V30 48 H 2.071146 2.101148 -0.683910 0
M  V30 49 H 0.346825 2.415954 -1.070971 0
M  V30 50 H 1.262302 3.560726 -0.049654 0
M  V30 51 H -0.329360 3.431656 1.414168 0
M  V30 52 H -0.460928 2.168268 2.662994 0
M  V30 53 H 1.012155 3.143318 2.597329 0
M  V30 54 H -1.290098 0.865384 1.126575 0
M  V30 55 H 1.730016 -0.813485 -3.046935 0
M  V30 56 H -0.161052 -2.180073 -3.712334 0
M  V30 57 H -2.493502 -3.527315 -0.714236 0
M  V30 58 H -3.270999 -5.028760 0.424962 0
M  V30 59 H -5.446422 -7.239086 0.403307 0
M  V30 60 H -5.390166 -7.014401 2.877477 0
M  V30 61 H -4.205884 -5.601490 2.763274 0
M  V30 62 H -2.537029 -7.059114 1.632196 0
M  V30 63 H -3.658847 -8.509152 1.688639 0
M  V30 64 H -5.361339 -4.529485 -3.659762 0
M  V30 65 H -4.521533 -2.719962 -5.154241 0
M  V30 66 H -3.336943 -0.534857 -5.179731 0
M  V30 67 H -1.817098 -1.505463 -5.340703 0
M  V30 68 H -1.973826 -0.265895 -4.052042 0
M  V30 END ATOM
M  V30 BEGIN BOND
M  V30 1 1 1 2
M  V30 2 1 2 3
M  V30 3 1 3 4
M  V30 4 1 4 5
M  V30 5 1 5 6
M  V30 6 2 6 7
M  V30 7 1 7 8
M  V30 8 2 8 9
M  V30 9 1 9 10
M  V30 10 2 10 11
M  V30 11 1 11 12
M  V30 12 1 12 13
M  V30 13 1 12 14
M  V30 14 1 12 15
M  V30 15 1 15 16
M  V30 16 2 16 17
M  V30 17 1 17 18
M  V30 18 2 18 19
M  V30 19 1 19 20
M  V30 20 1 20 21
M  V30 21 2 21 22
M  V30 22 1 22 23
M  V30 23 1 23 24
M  V30 24 2 24 25
M  V30 25 1 24 26
M  V30 26 1 26 27
M  V30 27 1 27 28
M  V30 28 1 28 29
M  V30 29 2 23 30
M  V30 30 1 30 31
M  V30 31 2 31 32
M  V30 32 1 32 33
M  V30 33 1 20 34
M  V30 34 2 34 35
M  V30 35 1 11 6
M  V30 36 1 34 16
M  V30 37 1 32 21
M  V30 38 1 29 27
M  V30 39 1 1 36
M  V30 40 1 1 37
M  V30 41 1 1 38
M  V30 42 1 2 39
M  V30 43 1 3 40
M  V30 44 1 3 41
M  V30 45 1 4 42
M  V30 46 1 4 43
M  V30 47 1 7 44
M  V30 48 1 8 45
M  V30 49 1 9 46
M  V30 50 1 10 47
M  V30 51 1 13 48
M  V30 52 1 13 49
M  V30 53 1 13 50
M  V30 54 1 14 51
M  V30 55 1 14 52
M  V30 56 1 14 53
M  V30 57 1 15 54
M  V30 58 1 18 55
M  V30 59 1 19 56
M  V30 60 1 22 57
M  V30 61 1 26 58
M  V30 62 1 27 59
M  V30 63 1 28 60
M  V30 64 1 28 61
M  V30 65 1 29 62
M  V30 66 1 29 63
M  V30 67 1 30 64
M  V30 68 1 31 65
M  V30 69 1 33 66
M  V30 70 1 33 67
M  V30 71 1 33 68
M  V30 END BOND
M  V30 END CTAB
M  END
>  <Dataset>  (786) 
ChEMBL_Kinases

>  <Ligand_Instance>  (786) 
nan

>  <PDB_ID>  (786) 
nan

>  <Standardized_SMILES>  (786) 
CNCCOc1ccccc1C(C)(C)Nc1nccn(-c2cc(C(=O)NC3CC3)ccc2C)c1=O

>  <Name>  (786) 
nan

>  <Pocket>  (786) 
nan

>  <ATP_Site>  (786) 
nan

>  <Peripheral>  (786) 
nan

>  <Num_H_Atoms_ProtBoundConf>  (786) 
nan

>  <Num_Resolved_Atoms>  (786) 
nan

>  <Num_Not_Resolved_Atoms>  (786) 
nan

$$$$
CHEMBL523695
     RDKit          3D

  0  0  0  0  0  0  0  0  0  0999 V3000
M  V30 BEGIN CTAB
M  V30 COUNTS 43 46 0 0 0
M  V30 BEGIN ATOM
M  V30 1 C 1.196020 -2.362196 0.411672 0
M  V30 2 C -0.149887 -2.047359 -0.130697 0
M  V30 3 N -0.309209 -0.713041 -0.651525 0
M  V30 4 C -0.048081 -0.350721 -1.936060 0
M  V30 5 C 0.443641 -1.212120 -3.012031 0
M  V30 6 N 0.762025 -2.516536 -3.058237 0
M  V30 7 O 1.159240 -2.835883 -4.248734 0
M  V30 8 N 1.137153 -1.812353 -5.053600 0
M  V30 9 C 0.687658 -0.769921 -4.296256 0
M  V30 10 N 0.534468 0.538612 -4.863739 0
M  V30 11 N -0.297926 0.953976 -2.135379 0
M  V30 12 C -0.732047 1.493719 -0.987599 0
M  V30 13 C -1.143711 2.752077 -0.562801 0
M  V30 14 N -1.533393 2.909080 0.733144 0
M  V30 15 C -1.523839 1.871040 1.595852 0
M  V30 16 C -1.113495 0.593472 1.193644 0
M  V30 17 C -1.184623 -0.342907 2.303977 0
M  V30 18 O -2.224382 -1.054084 2.538948 0
M  V30 19 N -0.056430 -0.494450 3.193533 0
M  V30 20 C 1.208743 0.252648 3.066780 0
M  V30 21 C 1.954446 -0.095863 4.358783 0
M  V30 22 C 1.496800 -1.554140 4.496140 0 CFG=1
M  V30 23 N 1.869334 -2.098262 5.776166 0
M  V30 24 C 0.012465 -1.372904 4.339543 0
M  V30 25 C -0.722175 0.445470 -0.116931 0
M  V30 26 H 1.642087 -3.186379 -0.180666 0
M  V30 27 H 1.881502 -1.497040 0.241803 0
M  V30 28 H 1.195473 -2.718852 1.454682 0
M  V30 29 H -0.927065 -2.339799 0.605324 0
M  V30 30 H -0.347864 -2.758628 -0.991956 0
M  V30 31 H 1.112305 1.383007 -4.646632 0
M  V30 32 H -0.176710 0.817979 -5.569738 0
M  V30 33 H -1.139116 3.565319 -1.282571 0
M  V30 34 H -1.868796 2.191004 2.586122 0
M  V30 35 H 1.050831 1.322757 2.934350 0
M  V30 36 H 1.794340 -0.240853 2.270159 0
M  V30 37 H 3.035340 0.001963 4.266997 0
M  V30 38 H 1.477488 0.523820 5.140898 0
M  V30 39 H 1.888352 -2.102680 3.645197 0
M  V30 40 H 2.414104 -2.987719 5.712043 0
M  V30 41 H 2.411595 -1.385610 6.322148 0
M  V30 42 H -0.363334 -0.822202 5.237812 0
M  V30 43 H -0.528359 -2.322821 4.188226 0
M  V30 END ATOM
M  V30 BEGIN BOND
M  V30 1 1 1 2
M  V30 2 1 2 3
M  V30 3 1 3 4
M  V30 4 1 4 5
M  V30 5 2 5 6
M  V30 6 1 6 7
M  V30 7 1 7 8
M  V30 8 2 8 9
M  V30 9 1 9 10
M  V30 10 2 4 11
M  V30 11 1 11 12
M  V30 12 2 12 13
M  V30 13 1 13 14
M  V30 14 2 14 15
M  V30 15 1 15 16
M  V30 16 1 16 17
M  V30 17 2 17 18
M  V30 18 1 17 19
M  V30 19 1 19 20
M  V30 20 1 20 21
M  V30 21 1 21 22
M  V30 22 1 22 23
M  V30 23 1 22 24
M  V30 24 2 16 25
M  V30 25 1 25 3
M  V30 26 1 9 5
M  V30 27 1 25 12
M  V30 28 1 24 19
M  V30 29 1 1 26
M  V30 30 1 1 27
M  V30 31 1 1 28
M  V30 32 1 2 29
M  V30 33 1 2 30
M  V30 34 1 10 31
M  V30 35 1 10 32
M  V30 36 1 13 33
M  V30 37 1 15 34
M  V30 38 1 20 35
M  V30 39 1 20 36
M  V30 40 1 21 37
M  V30 41 1 21 38
M  V30 42 1 22 39 CFG=3
M  V30 43 1 23 40
M  V30 44 1 23 41
M  V30 45 1 24 42
M  V30 46 1 24 43
M  V30 END BOND
M  V30 END CTAB
M  END
>  <Dataset>  (787) 
ChEMBL_Kinases

>  <Ligand_Instance>  (787) 
nan

>  <PDB_ID>  (787) 
nan

>  <Standardized_SMILES>  (787) 
CCn1c(-c2nonc2N)nc2cncc(C(=O)N3CC[C@@H](N)C3)c21

>  <Name>  (787) 
nan

>  <Pocket>  (787) 
nan

>  <ATP_Site>  (787) 
nan

>  <Peripheral>  (787) 
nan

>  <Num_H_Atoms_ProtBoundConf>  (787) 
nan

>  <Num_Resolved_Atoms>  (787) 
nan

>  <Num_Not_Resolved_Atoms>  (787) 
nan

$$$$
CHEMBL368416
     RDKit          3D

  0  0  0  0  0  0  0  0  0  0999 V3000
M  V30 BEGIN CTAB
M  V30 COUNTS 63 68 0 0 0
M  V30 BEGIN ATOM
M  V30 1 C -1.067456 1.786886 5.092073 0
M  V30 2 N -0.243712 0.646702 5.002520 0
M  V30 3 C 0.651211 0.364948 6.058886 0
M  V30 4 C -0.634108 -0.408824 4.147020 0
M  V30 5 C -0.546390 0.001564 2.668938 0
M  V30 6 C 0.890807 0.371331 2.431543 0
M  V30 7 N 1.194851 0.786658 1.098018 0
M  V30 8 N 1.552749 -0.101742 0.180309 0
M  V30 9 C 1.795347 0.505359 -0.997215 0
M  V30 10 C 2.204622 -0.332775 -2.143223 0
M  V30 11 C 1.594042 -1.462492 -2.448873 0
M  V30 12 C 0.481716 -2.223088 -1.914294 0
M  V30 13 C -0.705901 -1.537572 -1.647232 0
M  V30 14 N -1.640477 -2.399975 -1.153393 0
M  V30 15 C -2.980742 -2.115631 -0.776987 0
M  V30 16 C -3.591175 -1.534487 0.308887 0
M  V30 17 C -4.962321 -1.419783 0.329301 0
M  V30 18 C -5.775694 -1.860959 -0.693206 0
M  V30 19 N -5.165984 -2.434763 -1.764007 0
M  V30 20 C -3.804784 -2.566350 -1.820828 0
M  V30 21 C -1.062286 -3.608512 -1.103346 0
M  V30 22 C -1.453808 -4.879154 -0.704431 0
M  V30 23 C -0.595675 -5.974276 -0.768126 0
M  V30 24 C 0.700818 -5.815082 -1.243006 0
M  V30 25 C 1.143108 -4.563150 -1.655886 0
M  V30 26 C 0.236982 -3.526782 -1.563760 0
M  V30 27 C 2.250336 -2.039056 -3.639265 0
M  V30 28 O 2.121952 -3.065733 -4.374167 0
M  V30 29 N 3.323937 -1.165999 -4.045400 0
M  V30 30 C 3.292014 -0.090539 -3.098895 0
M  V30 31 O 4.071019 0.911618 -3.079637 0
M  V30 32 C 1.579080 1.844954 -0.816398 0
M  V30 33 C 1.696494 2.849570 -1.723400 0
M  V30 34 C 1.400962 4.124930 -1.227866 0
M  V30 35 C 1.018950 4.300584 0.106508 0
M  V30 36 C 0.918335 3.228914 0.983505 0
M  V30 37 C 1.206630 1.970294 0.505116 0
M  V30 38 H -0.406630 2.698718 5.139992 0
M  V30 39 H -1.773531 1.795760 5.936334 0
M  V30 40 H -1.613091 1.910343 4.125996 0
M  V30 41 H 1.675291 0.047918 5.697382 0
M  V30 42 H 0.348924 -0.374389 6.799753 0
M  V30 43 H 0.868887 1.335165 6.593910 0
M  V30 44 H -1.723026 -0.646355 4.340069 0
M  V30 45 H -0.101453 -1.356305 4.304607 0
M  V30 46 H -0.769654 -0.900569 2.033958 0
M  V30 47 H -1.277318 0.767153 2.423832 0
M  V30 48 H 1.133721 1.157697 3.193326 0
M  V30 49 H 1.497744 -0.521475 2.732177 0
M  V30 50 H -0.971978 -0.486139 -1.770091 0
M  V30 51 H -2.858803 -1.241960 1.015723 0
M  V30 52 H -5.331909 -0.938058 1.247519 0
M  V30 53 H -6.824685 -1.723488 -0.578215 0
M  V30 54 H -3.560799 -3.050519 -2.768468 0
M  V30 55 H -2.476619 -4.983426 -0.334825 0
M  V30 56 H -0.981867 -6.942212 -0.434270 0
M  V30 57 H 1.353255 -6.656306 -1.289512 0
M  V30 58 H 2.143664 -4.440230 -2.019538 0
M  V30 59 H 4.026608 -1.181427 -4.808619 0
M  V30 60 H 1.992817 2.659158 -2.733170 0
M  V30 61 H 1.468786 4.976243 -1.878394 0
M  V30 62 H 0.783833 5.268415 0.524245 0
M  V30 63 H 0.626919 3.326134 2.016791 0
M  V30 END ATOM
M  V30 BEGIN BOND
M  V30 1 1 1 2
M  V30 2 1 2 3
M  V30 3 1 2 4
M  V30 4 1 4 5
M  V30 5 1 5 6
M  V30 6 1 6 7
M  V30 7 1 7 8
M  V30 8 2 8 9
M  V30 9 1 9 10
M  V30 10 2 10 11
M  V30 11 1 11 12
M  V30 12 2 12 13
M  V30 13 1 13 14
M  V30 14 1 14 15
M  V30 15 2 15 16
M  V30 16 1 16 17
M  V30 17 2 17 18
M  V30 18 1 18 19
M  V30 19 2 19 20
M  V30 20 1 14 21
M  V30 21 2 21 22
M  V30 22 1 22 23
M  V30 23 2 23 24
M  V30 24 1 24 25
M  V30 25 2 25 26
M  V30 26 1 11 27
M  V30 27 2 27 28
M  V30 28 1 27 29
M  V30 29 1 29 30
M  V30 30 2 30 31
M  V30 31 1 9 32
M  V30 32 2 32 33
M  V30 33 1 33 34
M  V30 34 2 34 35
M  V30 35 1 35 36
M  V30 36 2 36 37
M  V30 37 1 37 7
M  V30 38 1 30 10
M  V30 39 1 37 32
M  V30 40 1 26 12
M  V30 41 1 20 15
M  V30 42 1 26 21
M  V30 43 1 1 38
M  V30 44 1 1 39
M  V30 45 1 1 40
M  V30 46 1 3 41
M  V30 47 1 3 42
M  V30 48 1 3 43
M  V30 49 1 4 44
M  V30 50 1 4 45
M  V30 51 1 5 46
M  V30 52 1 5 47
M  V30 53 1 6 48
M  V30 54 1 6 49
M  V30 55 1 13 50
M  V30 56 1 16 51
M  V30 57 1 17 52
M  V30 58 1 18 53
M  V30 59 1 20 54
M  V30 60 1 22 55
M  V30 61 1 23 56
M  V30 62 1 24 57
M  V30 63 1 25 58
M  V30 64 1 29 59
M  V30 65 1 33 60
M  V30 66 1 34 61
M  V30 67 1 35 62
M  V30 68 1 36 63
M  V30 END BOND
M  V30 END CTAB
M  END
>  <Dataset>  (788) 
ChEMBL_Kinases

>  <Ligand_Instance>  (788) 
nan

>  <PDB_ID>  (788) 
nan

>  <Standardized_SMILES>  (788) 
CN(C)CCCn1nc(C2=C(c3cn(-c4cccnc4)c4ccccc34)C(=O)NC2=O)c2ccccc21

>  <Name>  (788) 
nan

>  <Pocket>  (788) 
nan

>  <ATP_Site>  (788) 
nan

>  <Peripheral>  (788) 
nan

>  <Num_H_Atoms_ProtBoundConf>  (788) 
nan

>  <Num_Resolved_Atoms>  (788) 
nan

>  <Num_Not_Resolved_Atoms>  (788) 
nan

$$$$
CHEMBL2441342
     RDKit          3D

  0  0  0  0  0  0  0  0  0  0999 V3000
M  V30 BEGIN CTAB
M  V30 COUNTS 52 56 0 0 0
M  V30 BEGIN ATOM
M  V30 1 C 7.047229 -3.077427 1.715072 0
M  V30 2 N 5.813422 -2.670385 1.068209 0
M  V30 3 C 4.811933 -1.974134 1.617694 0
M  V30 4 C 3.812277 -1.777353 0.702925 0
M  V30 5 C 2.512949 -1.094845 0.767287 0
M  V30 6 C 1.409788 -1.853853 1.154966 0
M  V30 7 C 0.195564 -1.205792 1.212556 0
M  V30 8 C 0.046024 0.131612 0.906735 0
M  V30 9 C 1.160065 0.871932 0.521745 0
M  V30 10 C 2.403539 0.242070 0.454355 0
M  V30 11 F 3.536605 0.902070 0.085918 0
M  V30 12 C 0.751458 2.275483 0.246161 0
M  V30 13 C -0.624119 2.369528 0.846477 0
M  V30 14 N -1.096837 1.009393 0.894304 0
M  V30 15 C -2.424848 0.540987 0.925610 0
M  V30 16 O -2.633090 -0.712349 0.966784 0
M  V30 17 C -3.526432 1.516604 0.909649 0
M  V30 18 C -4.856930 0.848616 0.947127 0
M  V30 19 C -5.412016 0.539410 -0.294535 0
M  V30 20 C -6.642563 -0.080261 -0.336555 0
M  V30 21 C -7.267850 -0.365989 0.842957 0
M  V30 22 C -6.720208 -0.060717 2.076689 0
M  V30 23 C -7.429560 -0.386561 3.344704 0
M  V30 24 F -6.612035 -0.009142 4.391664 0
M  V30 25 F -8.550279 0.428384 3.375327 0
M  V30 26 F -7.747780 -1.712169 3.448412 0
M  V30 27 N -5.523570 0.540693 2.068710 0
M  V30 28 C 4.234731 -2.388731 -0.461919 0
M  V30 29 C 3.753424 -2.578447 -1.737844 0
M  V30 30 N 2.468886 -2.032300 -2.051872 0
M  V30 31 N 4.433039 -3.247202 -2.687206 0
M  V30 32 C 5.658630 -3.775729 -2.409432 0
M  V30 33 N 6.161386 -3.610474 -1.173323 0
M  V30 34 C 5.489134 -2.943548 -0.218339 0
M  V30 35 H 7.246719 -2.452708 2.617380 0
M  V30 36 H 7.904364 -3.007524 0.994466 0
M  V30 37 H 6.981914 -4.116936 2.098137 0
M  V30 38 H 4.739233 -1.593446 2.627245 0
M  V30 39 H 1.482338 -2.920225 1.407224 0
M  V30 40 H -0.647804 -1.818502 1.517011 0
M  V30 41 H 0.665693 2.488715 -0.844967 0
M  V30 42 H 1.432810 3.002733 0.735977 0
M  V30 43 H -1.306246 2.975141 0.191725 0
M  V30 44 H -0.620280 2.878535 1.831791 0
M  V30 45 H -3.462682 2.122282 1.859661 0
M  V30 46 H -3.457662 2.268307 0.102348 0
M  V30 47 H -4.906862 0.770844 -1.222589 0
M  V30 48 H -7.048987 -0.308504 -1.321742 0
M  V30 49 H -8.230367 -0.850674 0.810530 0
M  V30 50 H 1.621597 -2.502215 -1.663684 0
M  V30 51 H 2.224899 -1.200446 -2.633667 0
M  V30 52 H 6.113696 -4.291295 -3.244170 0
M  V30 END ATOM
M  V30 BEGIN BOND
M  V30 1 1 1 2
M  V30 2 1 2 3
M  V30 3 2 3 4
M  V30 4 1 4 5
M  V30 5 2 5 6
M  V30 6 1 6 7
M  V30 7 2 7 8
M  V30 8 1 8 9
M  V30 9 2 9 10
M  V30 10 1 10 11
M  V30 11 1 9 12
M  V30 12 1 12 13
M  V30 13 1 13 14
M  V30 14 1 14 15
M  V30 15 2 15 16
M  V30 16 1 15 17
M  V30 17 1 17 18
M  V30 18 2 18 19
M  V30 19 1 19 20
M  V30 20 2 20 21
M  V30 21 1 21 22
M  V30 22 1 22 23
M  V30 23 1 23 24
M  V30 24 1 23 25
M  V30 25 1 23 26
M  V30 26 2 22 27
M  V30 27 1 4 28
M  V30 28 2 28 29
M  V30 29 1 29 30
M  V30 30 1 29 31
M  V30 31 2 31 32
M  V30 32 1 32 33
M  V30 33 2 33 34
M  V30 34 1 34 2
M  V30 35 1 10 5
M  V30 36 1 27 18
M  V30 37 1 34 28
M  V30 38 1 14 8
M  V30 39 1 1 35
M  V30 40 1 1 36
M  V30 41 1 1 37
M  V30 42 1 3 38
M  V30 43 1 6 39
M  V30 44 1 7 40
M  V30 45 1 12 41
M  V30 46 1 12 42
M  V30 47 1 13 43
M  V30 48 1 13 44
M  V30 49 1 17 45
M  V30 50 1 17 46
M  V30 51 1 19 47
M  V30 52 1 20 48
M  V30 53 1 21 49
M  V30 54 1 30 50
M  V30 55 1 30 51
M  V30 56 1 32 52
M  V30 END BOND
M  V30 END CTAB
M  END
>  <Dataset>  (789) 
ChEMBL_Kinases

>  <Ligand_Instance>  (789) 
nan

>  <PDB_ID>  (789) 
nan

>  <Standardized_SMILES>  (789) 
Cn1cc(-c2ccc3c(c2F)CCN3C(=O)Cc2cccc(C(F)(F)F)n2)c2c(N)ncnc21

>  <Name>  (789) 
nan

>  <Pocket>  (789) 
nan

>  <ATP_Site>  (789) 
nan

>  <Peripheral>  (789) 
nan

>  <Num_H_Atoms_ProtBoundConf>  (789) 
nan

>  <Num_Resolved_Atoms>  (789) 
nan

>  <Num_Not_Resolved_Atoms>  (789) 
nan

$$$$
CHEMBL2441340
     RDKit          3D

  0  0  0  0  0  0  0  0  0  0999 V3000
M  V30 BEGIN CTAB
M  V30 COUNTS 52 56 0 0 0
M  V30 BEGIN ATOM
M  V30 1 C 1.564631 0.892810 7.961659 0
M  V30 2 C 2.255214 0.208490 6.837220 0
M  V30 3 C 2.849215 -1.005190 7.166283 0
M  V30 4 C 3.501651 -1.666090 6.135414 0
M  V30 5 C 3.537579 -1.113952 4.860211 0
M  V30 6 C 2.934236 0.089706 4.586455 0
M  V30 7 C 2.953752 0.710121 3.236610 0
M  V30 8 C 1.763713 0.220800 2.455482 0
M  V30 9 O 0.975494 -0.578705 2.992912 0
M  V30 10 N 1.532154 0.656438 1.124780 0
M  V30 11 C 2.298543 1.571702 0.304762 0
M  V30 12 C 2.071867 1.024597 -1.086707 0
M  V30 13 C 0.717595 0.430009 -1.004935 0
M  V30 14 C 0.438454 0.227515 0.351216 0
M  V30 15 C -0.778372 -0.320371 0.661499 0
M  V30 16 C -1.758415 -0.693501 -0.233271 0
M  V30 17 C -1.439758 -0.474702 -1.577817 0
M  V30 18 C -2.483454 -0.873019 -2.533354 0
M  V30 19 C -3.562347 -0.237378 -3.108146 0
M  V30 20 N -4.196123 -1.093443 -3.929140 0
M  V30 21 C -5.371353 -0.776492 -4.702651 0
M  V30 22 C -3.534894 -2.270878 -3.886753 0
M  V30 23 N -3.776238 -3.446714 -4.533683 0
M  V30 24 C -2.967034 -4.495197 -4.327485 0
M  V30 25 N -1.888915 -4.460569 -3.490057 0
M  V30 26 C -1.641248 -3.299472 -2.844170 0
M  V30 27 N -0.540929 -3.196012 -1.961851 0
M  V30 28 C -2.444347 -2.171610 -3.014176 0
M  V30 29 C -0.217306 0.080476 -1.965112 0
M  V30 30 F 0.019713 0.262725 -3.291539 0
M  V30 31 N 2.309872 0.711475 5.594447 0
M  V30 32 H 0.923312 0.182871 8.513468 0
M  V30 33 H 0.978291 1.727329 7.553508 0
M  V30 34 H 2.268363 1.341112 8.696981 0
M  V30 35 H 2.836485 -1.456957 8.149243 0
M  V30 36 H 3.976970 -2.623859 6.370713 0
M  V30 37 H 4.056105 -1.657847 4.080624 0
M  V30 38 H 2.994497 1.807120 3.277964 0
M  V30 39 H 3.847994 0.359316 2.688746 0
M  V30 40 H 1.829394 2.581172 0.395476 0
M  V30 41 H 3.376714 1.595773 0.580796 0
M  V30 42 H 2.792660 0.231207 -1.306895 0
M  V30 43 H 2.045806 1.820462 -1.854957 0
M  V30 44 H -1.020275 -0.488605 1.715509 0
M  V30 45 H -2.702080 -1.121758 0.070714 0
M  V30 46 H -3.767759 0.800701 -2.856680 0
M  V30 47 H -6.079899 -1.646740 -4.712438 0
M  V30 48 H -5.118800 -0.608880 -5.790836 0
M  V30 49 H -5.943273 0.058568 -4.278326 0
M  V30 50 H -3.063053 -5.481918 -4.788640 0
M  V30 51 H 0.362236 -2.844180 -2.350009 0
M  V30 52 H -0.352296 -3.384999 -0.949375 0
M  V30 END ATOM
M  V30 BEGIN BOND
M  V30 1 1 1 2
M  V30 2 2 2 3
M  V30 3 1 3 4
M  V30 4 2 4 5
M  V30 5 1 5 6
M  V30 6 1 6 7
M  V30 7 1 7 8
M  V30 8 2 8 9
M  V30 9 1 8 10
M  V30 10 1 10 11
M  V30 11 1 11 12
M  V30 12 1 12 13
M  V30 13 2 13 14
M  V30 14 1 14 15
M  V30 15 2 15 16
M  V30 16 1 16 17
M  V30 17 1 17 18
M  V30 18 2 18 19
M  V30 19 1 19 20
M  V30 20 1 20 21
M  V30 21 1 20 22
M  V30 22 2 22 23
M  V30 23 1 23 24
M  V30 24 2 24 25
M  V30 25 1 25 26
M  V30 26 1 26 27
M  V30 27 2 26 28
M  V30 28 2 17 29
M  V30 29 1 29 30
M  V30 30 2 6 31
M  V30 31 1 31 2
M  V30 32 1 14 10
M  V30 33 1 28 18
M  V30 34 1 29 13
M  V30 35 1 28 22
M  V30 36 1 1 32
M  V30 37 1 1 33
M  V30 38 1 1 34
M  V30 39 1 3 35
M  V30 40 1 4 36
M  V30 41 1 5 37
M  V30 42 1 7 38
M  V30 43 1 7 39
M  V30 44 1 11 40
M  V30 45 1 11 41
M  V30 46 1 12 42
M  V30 47 1 12 43
M  V30 48 1 15 44
M  V30 49 1 16 45
M  V30 50 1 19 46
M  V30 51 1 21 47
M  V30 52 1 21 48
M  V30 53 1 21 49
M  V30 54 1 24 50
M  V30 55 1 27 51
M  V30 56 1 27 52
M  V30 END BOND
M  V30 END CTAB
M  END
>  <Dataset>  (790) 
ChEMBL_Kinases

>  <Ligand_Instance>  (790) 
nan

>  <PDB_ID>  (790) 
nan

>  <Standardized_SMILES>  (790) 
Cc1cccc(CC(=O)N2CCc3c2ccc(-c2cn(C)c4ncnc(N)c24)c3F)n1

>  <Name>  (790) 
nan

>  <Pocket>  (790) 
nan

>  <ATP_Site>  (790) 
nan

>  <Peripheral>  (790) 
nan

>  <Num_H_Atoms_ProtBoundConf>  (790) 
nan

>  <Num_Resolved_Atoms>  (790) 
nan

>  <Num_Not_Resolved_Atoms>  (790) 
nan

$$$$
CHEMBL4286578
     RDKit          3D

  0  0  0  0  0  0  0  0  0  0999 V3000
M  V30 BEGIN CTAB
M  V30 COUNTS 45 47 0 0 0
M  V30 BEGIN ATOM
M  V30 1 C 2.714398 -2.272958 1.159838 0
M  V30 2 O 2.695546 -1.292254 0.176733 0
M  V30 3 C 3.372590 -1.285329 -1.015057 0
M  V30 4 C 4.219106 -2.295190 -1.450077 0
M  V30 5 C 4.854003 -2.199520 -2.659861 0
M  V30 6 F 5.683275 -3.216590 -3.057322 0
M  V30 7 C 4.698067 -1.120527 -3.504547 0
M  V30 8 C 3.849021 -0.110275 -3.065553 0
M  V30 9 C 3.205127 -0.198716 -1.847535 0
M  V30 10 C 2.326236 0.893726 -1.438949 0
M  V30 11 N 2.138798 1.969424 -2.211928 0
M  V30 12 C 1.308149 2.967808 -1.790064 0
M  V30 13 N 0.663857 2.887129 -0.590069 0
M  V30 14 C 0.851511 1.802373 0.191609 0
M  V30 15 N 0.221286 1.619514 1.472479 0
M  V30 16 C -1.048028 0.975055 1.420818 0
M  V30 17 C -1.586595 0.583936 0.212450 0
M  V30 18 C -2.827722 -0.050550 0.102997 0
M  V30 19 C -3.496700 -0.266564 1.307222 0
M  V30 20 C -2.984684 0.114046 2.544547 0
M  V30 21 C -3.849867 -0.202790 3.711806 0
M  V30 22 S -3.395282 -1.833857 4.265376 0
M  V30 23 C -1.691993 -1.851707 4.731580 0
M  V30 24 N -3.540022 -2.758764 3.001643 0
M  V30 25 O -4.313161 -2.359749 5.304240 0
M  V30 26 C -1.754426 0.735627 2.579334 0
M  V30 27 N 1.670121 0.857810 -0.264200 0
M  V30 28 H 3.768971 -2.339150 1.549316 0
M  V30 29 H 2.132359 -1.858186 2.034436 0
M  V30 30 H 2.328127 -3.259994 0.870021 0
M  V30 31 H 4.346716 -3.151007 -0.786860 0
M  V30 32 H 5.222704 -1.098226 -4.445506 0
M  V30 33 H 3.723829 0.751795 -3.739310 0
M  V30 34 H 1.098335 3.871296 -2.348690 0
M  V30 35 H 0.610984 1.912501 2.394496 0
M  V30 36 H -1.076188 0.746946 -0.724247 0
M  V30 37 H -3.254863 -0.359399 -0.841333 0
M  V30 38 H -4.469623 -0.766345 1.193557 0
M  V30 39 H -3.564752 0.493651 4.532522 0
M  V30 40 H -4.914326 -0.122132 3.486127 0
M  V30 41 H -1.500718 -2.729478 5.383042 0
M  V30 42 H -1.028726 -1.910293 3.853716 0
M  V30 43 H -1.397067 -0.934808 5.301756 0
M  V30 44 H -3.785925 -3.725228 3.167348 0
M  V30 45 H -1.393616 1.013944 3.552245 0
M  V30 END ATOM
M  V30 BEGIN BOND
M  V30 1 1 1 2
M  V30 2 1 2 3
M  V30 3 2 3 4
M  V30 4 1 4 5
M  V30 5 1 5 6
M  V30 6 2 5 7
M  V30 7 1 7 8
M  V30 8 2 8 9
M  V30 9 1 9 10
M  V30 10 2 10 11
M  V30 11 1 11 12
M  V30 12 2 12 13
M  V30 13 1 13 14
M  V30 14 1 14 15
M  V30 15 1 15 16
M  V30 16 2 16 17
M  V30 17 1 17 18
M  V30 18 2 18 19
M  V30 19 1 19 20
M  V30 20 1 20 21
M  V30 21 1 21 22
M  V30 22 1 22 23
M  V30 23 2 22 24
M  V30 24 2 22 25
M  V30 25 2 20 26
M  V30 26 2 14 27
M  V30 27 1 9 3
M  V30 28 1 27 10
M  V30 29 1 26 16
M  V30 30 1 1 28
M  V30 31 1 1 29
M  V30 32 1 1 30
M  V30 33 1 4 31
M  V30 34 1 7 32
M  V30 35 1 8 33
M  V30 36 1 12 34
M  V30 37 1 15 35
M  V30 38 1 17 36
M  V30 39 1 18 37
M  V30 40 1 19 38
M  V30 41 1 21 39
M  V30 42 1 21 40
M  V30 43 1 23 41
M  V30 44 1 23 42
M  V30 45 1 23 43
M  V30 46 1 24 44
M  V30 47 1 26 45
M  V30 END BOND
M  V30 END CTAB
M  END
>  <Dataset>  (791) 
ChEMBL_Kinases

>  <Ligand_Instance>  (791) 
nan

>  <PDB_ID>  (791) 
nan

>  <Standardized_SMILES>  (791) 
COc1cc(F)ccc1-c1ncnc(Nc2cccc(CS(C)(=N)=O)c2)n1

>  <Name>  (791) 
nan

>  <Pocket>  (791) 
nan

>  <ATP_Site>  (791) 
nan

>  <Peripheral>  (791) 
nan

>  <Num_H_Atoms_ProtBoundConf>  (791) 
nan

>  <Num_Resolved_Atoms>  (791) 
nan

>  <Num_Not_Resolved_Atoms>  (791) 
nan

$$$$
CHEMBL294166
     RDKit          3D

  0  0  0  0  0  0  0  0  0  0999 V3000
M  V30 BEGIN CTAB
M  V30 COUNTS 66 69 0 0 0
M  V30 BEGIN ATOM
M  V30 1 C 5.366716 -1.723862 5.719457 0
M  V30 2 S 5.976878 -0.030364 5.715014 0
M  V30 3 O 7.449975 -0.030793 5.632229 0
M  V30 4 O 5.485597 0.556484 7.021752 0
M  V30 5 N 5.181155 0.736630 4.403679 0
M  V30 6 C 5.330779 0.308006 3.052624 0
M  V30 7 C 6.671500 0.103504 2.718089 0
M  V30 8 C 7.056291 -0.297785 1.459452 0
M  V30 9 C 6.128588 -0.516653 0.462817 0
M  V30 10 C 4.810351 -0.304353 0.826194 0
M  V30 11 O 3.956878 -0.536663 -0.240258 0
M  V30 12 C 4.359971 0.093956 2.067163 0
M  V30 13 C 3.007726 0.361409 2.411281 0
M  V30 14 O 2.890659 1.193256 3.357206 0
M  V30 15 C 1.665972 0.001801 2.045610 0
M  V30 16 C 0.613707 0.849368 2.314689 0
M  V30 17 O 0.792200 2.121929 2.892313 0
M  V30 18 C -0.717654 0.515745 2.035917 0
M  V30 19 C -0.999482 -0.703216 1.471735 0
M  V30 20 C -2.402620 -0.984266 1.207481 0
M  V30 21 O -3.288792 -0.148367 1.483221 0
M  V30 22 O -2.956478 -2.128597 0.652112 0
M  V30 23 C -4.315914 -2.318667 0.432141 0 CFG=2
M  V30 24 C -4.889243 -3.572220 1.057263 0
M  V30 25 C -6.086392 -3.882900 0.184630 0
M  V30 26 C -5.834141 -3.286725 -1.163329 0
M  V30 27 C -4.517411 -2.534345 -1.074286 0 CFG=1
M  V30 28 N -4.523125 -1.288758 -1.786511 0
M  V30 29 C -3.566661 -1.121991 -2.821833 0
M  V30 30 O -2.734287 -2.047577 -3.106759 0
M  V30 31 C -3.461837 0.092078 -3.622862 0
M  V30 32 C -2.501031 0.153679 -4.606692 0
M  V30 33 C -2.333118 1.279915 -5.418335 0
M  V30 34 C -3.135528 2.381445 -5.257901 0
M  V30 35 O -2.934074 3.474436 -6.083454 0
M  V30 36 C -4.088172 2.301132 -4.271357 0
M  V30 37 C -4.251248 1.193702 -3.475289 0
M  V30 38 C 0.014681 -1.586749 1.185003 0
M  V30 39 C 1.300270 -1.199267 1.483939 0
M  V30 40 O 2.171370 -2.220726 1.135346 0
M  V30 41 H 5.793672 -2.295743 6.554658 0
M  V30 42 H 5.677566 -2.122361 4.719543 0
M  V30 43 H 4.257551 -1.723266 5.709360 0
M  V30 44 H 4.586863 1.567703 4.700567 0
M  V30 45 H 7.493132 0.237906 3.376719 0
M  V30 46 H 8.107129 -0.460124 1.196962 0
M  V30 47 H 6.463882 -0.830465 -0.512862 0
M  V30 48 H 3.365601 0.184988 -0.610972 0
M  V30 49 H 0.298706 2.881332 2.418990 0
M  V30 50 H -1.504209 1.217697 2.266402 0
M  V30 51 H -4.957034 -1.489245 0.727639 0
M  V30 52 H -4.154034 -4.378210 1.026337 0
M  V30 53 H -5.226568 -3.301574 2.091216 0
M  V30 54 H -6.140338 -4.979037 0.081509 0
M  V30 55 H -6.989142 -3.465558 0.682341 0
M  V30 56 H -5.805622 -4.023819 -1.989268 0
M  V30 57 H -6.602229 -2.537629 -1.455464 0
M  V30 58 H -3.717013 -3.176834 -1.486998 0
M  V30 59 H -5.185306 -0.514301 -1.582472 0
M  V30 60 H -1.804762 -0.670592 -4.821528 0
M  V30 61 H -1.560728 1.289446 -6.186710 0
M  V30 62 H -1.951967 3.714984 -6.280198 0
M  V30 63 H -4.733067 3.178232 -4.137957 0
M  V30 64 H -5.023107 1.182385 -2.706565 0
M  V30 65 H -0.327462 -2.502446 0.748878 0
M  V30 66 H 2.501213 -2.811401 1.887619 0
M  V30 END ATOM
M  V30 BEGIN BOND
M  V30 1 1 1 2
M  V30 2 2 2 3
M  V30 3 2 2 4
M  V30 4 1 2 5
M  V30 5 1 5 6
M  V30 6 2 6 7
M  V30 7 1 7 8
M  V30 8 2 8 9
M  V30 9 1 9 10
M  V30 10 1 10 11
M  V30 11 2 10 12
M  V30 12 1 12 13
M  V30 13 2 13 14
M  V30 14 1 13 15
M  V30 15 2 15 16
M  V30 16 1 16 17
M  V30 17 1 16 18
M  V30 18 2 18 19
M  V30 19 1 19 20
M  V30 20 2 20 21
M  V30 21 1 20 22
M  V30 22 1 22 23
M  V30 23 1 23 24
M  V30 24 1 24 25
M  V30 25 1 25 26
M  V30 26 1 26 27
M  V30 27 1 27 28
M  V30 28 1 28 29
M  V30 29 2 29 30
M  V30 30 1 29 31
M  V30 31 2 31 32
M  V30 32 1 32 33
M  V30 33 2 33 34
M  V30 34 1 34 35
M  V30 35 1 34 36
M  V30 36 2 36 37
M  V30 37 1 19 38
M  V30 38 2 38 39
M  V30 39 1 39 40
M  V30 40 1 12 6
M  V30 41 1 39 15
M  V30 42 1 27 23
M  V30 43 1 37 31
M  V30 44 1 1 41
M  V30 45 1 1 42
M  V30 46 1 1 43
M  V30 47 1 5 44
M  V30 48 1 7 45
M  V30 49 1 8 46
M  V30 50 1 9 47
M  V30 51 1 11 48
M  V30 52 1 17 49
M  V30 53 1 18 50
M  V30 54 1 23 51 CFG=1
M  V30 55 1 24 52
M  V30 56 1 24 53
M  V30 57 1 25 54
M  V30 58 1 25 55
M  V30 59 1 26 56
M  V30 60 1 26 57
M  V30 61 1 27 58 CFG=3
M  V30 62 1 28 59
M  V30 63 1 32 60
M  V30 64 1 33 61
M  V30 65 1 35 62
M  V30 66 1 36 63
M  V30 67 1 37 64
M  V30 68 1 38 65
M  V30 69 1 40 66
M  V30 END BOND
M  V30 END CTAB
M  END
>  <Dataset>  (792) 
ChEMBL_Kinases

>  <Ligand_Instance>  (792) 
nan

>  <PDB_ID>  (792) 
nan

>  <Standardized_SMILES>  (792) 
CS(=O)(=O)Nc1cccc(O)c1C(=O)c1c(O)cc(C(=O)O[C@@H]2CCC[C@H]2NC(=O)c2ccc(O)cc2)cc1O

>  <Name>  (792) 
nan

>  <Pocket>  (792) 
nan

>  <ATP_Site>  (792) 
nan

>  <Peripheral>  (792) 
nan

>  <Num_H_Atoms_ProtBoundConf>  (792) 
nan

>  <Num_Resolved_Atoms>  (792) 
nan

>  <Num_Not_Resolved_Atoms>  (792) 
nan

$$$$
CHEMBL538718
     RDKit          3D

  0  0  0  0  0  0  0  0  0  0999 V3000
M  V30 BEGIN CTAB
M  V30 COUNTS 60 66 0 0 0
M  V30 BEGIN ATOM
M  V30 1 C 4.616383 -2.530575 3.519638 0
M  V30 2 N 4.961094 -1.322139 2.751486 0
M  V30 3 C 4.988478 -1.793858 1.355063 0
M  V30 4 C 3.531464 -1.828804 1.061620 0 CFG=2
M  V30 5 C 3.104234 -1.957938 -0.361358 0
M  V30 6 N 1.641688 -2.143453 -0.221108 0
M  V30 7 C 0.986391 -1.342502 0.670935 0
M  V30 8 C -0.377988 -1.699639 0.647027 0
M  V30 9 C -1.297228 -0.997337 1.531182 0
M  V30 10 C -2.188435 0.005855 1.438750 0
M  V30 11 C -2.654124 0.874641 0.377313 0
M  V30 12 C -2.543854 2.265073 0.554009 0
M  V30 13 N -3.030442 2.896043 -0.506861 0
M  V30 14 C -3.099989 4.348407 -0.720562 0
M  V30 15 C -3.474847 2.019752 -1.412104 0
M  V30 16 C -4.075159 2.087929 -2.664282 0
M  V30 17 C -4.422445 0.924475 -3.325183 0
M  V30 18 C -4.182950 -0.322674 -2.760700 0
M  V30 19 C -3.589202 -0.356370 -1.524963 0
M  V30 20 C -3.238793 0.787529 -0.859048 0
M  V30 21 C -2.755459 0.158579 2.797141 0
M  V30 22 O -3.644378 0.998705 3.178215 0
M  V30 23 N -2.210397 -0.757643 3.733032 0
M  V30 24 C -1.276254 -1.497752 2.922737 0
M  V30 25 O -0.607536 -2.419641 3.486928 0
M  V30 26 C -0.432866 -2.712343 -0.277924 0
M  V30 27 C -1.547720 -3.419156 -0.658043 0
M  V30 28 C -1.396833 -4.412606 -1.595940 0
M  V30 29 C -0.168064 -4.704113 -2.147942 0
M  V30 30 C 0.954439 -3.990989 -1.762527 0
M  V30 31 C 0.795829 -2.995197 -0.821195 0
M  V30 32 C 1.694296 -0.299734 1.487691 0
M  V30 33 C 3.163663 -0.415692 1.474308 0 CFG=1
M  V30 34 C 3.829081 -0.390628 2.817512 0
M  V30 35 H 5.077183 -2.530130 4.512680 0
M  V30 36 H 4.852169 -3.449363 2.977657 0
M  V30 37 H 3.501865 -2.535666 3.680887 0
M  V30 38 H 5.520289 -1.120977 0.689276 0
M  V30 39 H 5.400622 -2.820356 1.309482 0
M  V30 40 H 2.990976 -2.548038 1.688501 0
M  V30 41 H 3.556560 -2.808030 -0.892176 0
M  V30 42 H 3.235486 -0.989180 -0.874666 0
M  V30 43 H -2.131074 2.833368 1.404015 0
M  V30 44 H -2.088875 4.825290 -0.632840 0
M  V30 45 H -3.631168 4.591076 -1.642475 0
M  V30 46 H -3.707090 4.756357 0.124644 0
M  V30 47 H -4.258876 3.061966 -3.099151 0
M  V30 48 H -4.881813 1.073507 -4.289406 0
M  V30 49 H -4.469409 -1.204065 -3.305967 0
M  V30 50 H -3.419123 -1.302537 -1.099736 0
M  V30 51 H -2.432600 -0.858899 4.742020 0
M  V30 52 H -2.515032 -3.219142 -0.225470 0
M  V30 53 H -2.210896 -5.022580 -1.960414 0
M  V30 54 H -0.005742 -5.476416 -2.887349 0
M  V30 55 H 1.932672 -4.210016 -2.190243 0
M  V30 56 H 1.298856 -0.284953 2.518435 0
M  V30 57 H 1.406149 0.673652 1.000611 0
M  V30 58 H 3.663402 0.321000 0.805866 0
M  V30 59 H 3.080881 -0.757824 3.566298 0
M  V30 60 H 4.139187 0.600787 3.159547 0
M  V30 END ATOM
M  V30 BEGIN BOND
M  V30 1 1 1 2
M  V30 2 1 2 3
M  V30 3 1 3 4
M  V30 4 1 4 5
M  V30 5 1 5 6
M  V30 6 1 6 7
M  V30 7 2 7 8
M  V30 8 1 8 9
M  V30 9 2 9 10
M  V30 10 1 10 11
M  V30 11 2 11 12
M  V30 12 1 12 13
M  V30 13 1 13 14
M  V30 14 1 13 15
M  V30 15 2 15 16
M  V30 16 1 16 17
M  V30 17 2 17 18
M  V30 18 1 18 19
M  V30 19 2 19 20
M  V30 20 1 10 21
M  V30 21 2 21 22
M  V30 22 1 21 23
M  V30 23 1 23 24
M  V30 24 2 24 25
M  V30 25 1 8 26
M  V30 26 2 26 27
M  V30 27 1 27 28
M  V30 28 2 28 29
M  V30 29 1 29 30
M  V30 30 2 30 31
M  V30 31 1 7 32
M  V30 32 1 32 33
M  V30 33 1 33 34
M  V30 34 1 34 2
M  V30 35 1 33 4
M  V30 36 1 31 6
M  V30 37 1 24 9
M  V30 38 1 31 26
M  V30 39 1 20 11
M  V30 40 1 20 15
M  V30 41 1 1 35
M  V30 42 1 1 36
M  V30 43 1 1 37
M  V30 44 1 3 38
M  V30 45 1 3 39
M  V30 46 1 4 40 CFG=1
M  V30 47 1 5 41
M  V30 48 1 5 42
M  V30 49 1 12 43
M  V30 50 1 14 44
M  V30 51 1 14 45
M  V30 52 1 14 46
M  V30 53 1 16 47
M  V30 54 1 17 48
M  V30 55 1 18 49
M  V30 56 1 19 50
M  V30 57 1 23 51
M  V30 58 1 27 52
M  V30 59 1 28 53
M  V30 60 1 29 54
M  V30 61 1 30 55
M  V30 62 1 32 56
M  V30 63 1 32 57
M  V30 64 1 33 58 CFG=3
M  V30 65 1 34 59
M  V30 66 1 34 60
M  V30 END BOND
M  V30 END CTAB
M  END
>  <Dataset>  (793) 
ChEMBL_Kinases

>  <Ligand_Instance>  (793) 
nan

>  <PDB_ID>  (793) 
nan

>  <Standardized_SMILES>  (793) 
CN1C[C@@H]2Cn3c(c(C4=C(c5cn(C)c6ccccc56)C(=O)NC4=O)c4ccccc43)C[C@H]2C1

>  <Name>  (793) 
nan

>  <Pocket>  (793) 
nan

>  <ATP_Site>  (793) 
nan

>  <Peripheral>  (793) 
nan

>  <Num_H_Atoms_ProtBoundConf>  (793) 
nan

>  <Num_Resolved_Atoms>  (793) 
nan

>  <Num_Not_Resolved_Atoms>  (793) 
nan

$$$$
CHEMBL4438748
     RDKit          3D

  0  0  0  0  0  0  0  0  0  0999 V3000
M  V30 BEGIN CTAB
M  V30 COUNTS 57 60 0 0 0
M  V30 BEGIN ATOM
M  V30 1 C 7.104221 -2.186063 3.022233 0
M  V30 2 N 5.853322 -1.971173 3.756212 0
M  V30 3 C 5.565926 -2.537479 5.036207 0
M  V30 4 C 4.912262 -1.133981 3.090081 0
M  V30 5 C 5.211594 -0.593224 1.848917 0
M  V30 6 C 4.340725 0.238446 1.127430 0
M  V30 7 C 3.119171 0.525681 1.699560 0
M  V30 8 C 2.204664 1.389612 0.956999 0
M  V30 9 O 2.598270 1.829792 -0.152752 0
M  V30 10 N 0.913254 1.744002 1.431474 0
M  V30 11 C 0.022688 2.591676 0.694721 0
M  V30 12 C 0.015665 3.962308 0.856232 0
M  V30 13 C -0.866862 4.716547 0.113659 0
M  V30 14 C -1.731200 4.123099 -0.777090 0
M  V30 15 C -1.772737 2.761417 -0.983457 0
M  V30 16 N -2.682144 2.223659 -1.908966 0
M  V30 17 C -2.924553 0.901945 -2.314557 0
M  V30 18 O -2.226890 0.003691 -1.782478 0
M  V30 19 C -3.948306 0.525748 -3.324611 0
M  V30 20 O -3.952854 -0.866134 -3.513219 0
M  V30 21 C -4.230910 -1.825125 -2.569557 0
M  V30 22 C -4.580406 -1.763026 -1.239254 0
M  V30 23 C -4.807367 -2.896063 -0.498163 0
M  V30 24 C -4.688459 -4.130978 -1.079465 0
M  V30 25 C -4.934066 -5.217594 -0.263070 0
M  V30 26 O -5.247836 -5.063864 0.943020 0
M  V30 27 C -4.819339 -6.469628 -0.830303 0
M  V30 28 C -4.467399 -6.529524 -2.171608 0
M  V30 29 O -4.242559 -5.463780 -2.911617 0
M  V30 30 C -4.342551 -4.255106 -2.404406 0
M  V30 31 C -4.112835 -3.093253 -3.151995 0
M  V30 32 C -0.870841 2.064050 -0.215568 0
M  V30 33 C 2.816445 -0.010072 2.934769 0
M  V30 34 C 3.669364 -0.827968 3.647426 0
M  V30 35 H 6.905036 -2.666715 2.040900 0
M  V30 36 H 7.552198 -1.176372 2.895466 0
M  V30 37 H 7.823838 -2.802340 3.561081 0
M  V30 38 H 4.695779 -3.182805 5.093130 0
M  V30 39 H 6.485970 -3.084440 5.384492 0
M  V30 40 H 5.417431 -1.694261 5.766746 0
M  V30 41 H 6.155121 -0.786406 1.355127 0
M  V30 42 H 4.634095 0.629079 0.160921 0
M  V30 43 H 0.578576 1.383448 2.351989 0
M  V30 44 H 0.700048 4.414649 1.560091 0
M  V30 45 H -0.891017 5.787831 0.222548 0
M  V30 46 H -2.406482 4.775797 -1.335940 0
M  V30 47 H -3.319143 2.904763 -2.414011 0
M  V30 48 H -3.696991 0.983825 -4.308568 0
M  V30 49 H -4.960556 0.909253 -3.036057 0
M  V30 50 H -4.654588 -0.756189 -0.883198 0
M  V30 51 H -5.068215 -2.689103 0.512203 0
M  V30 52 H -4.999439 -7.336073 -0.238206 0
M  V30 53 H -4.388882 -7.522996 -2.574220 0
M  V30 54 H -3.845067 -3.333366 -4.193597 0
M  V30 55 H -0.826707 0.990373 -0.305716 0
M  V30 56 H 1.868641 0.203445 3.396225 0
M  V30 57 H 3.404916 -1.232787 4.612879 0
M  V30 END ATOM
M  V30 BEGIN BOND
M  V30 1 1 1 2
M  V30 2 1 2 3
M  V30 3 1 2 4
M  V30 4 2 4 5
M  V30 5 1 5 6
M  V30 6 2 6 7
M  V30 7 1 7 8
M  V30 8 2 8 9
M  V30 9 1 8 10
M  V30 10 1 10 11
M  V30 11 2 11 12
M  V30 12 1 12 13
M  V30 13 2 13 14
M  V30 14 1 14 15
M  V30 15 1 15 16
M  V30 16 1 16 17
M  V30 17 2 17 18
M  V30 18 1 17 19
M  V30 19 1 19 20
M  V30 20 1 20 21
M  V30 21 2 21 22
M  V30 22 1 22 23
M  V30 23 2 23 24
M  V30 24 1 24 25
M  V30 25 2 25 26
M  V30 26 1 25 27
M  V30 27 2 27 28
M  V30 28 1 28 29
M  V30 29 1 29 30
M  V30 30 2 30 31
M  V30 31 2 15 32
M  V30 32 1 7 33
M  V30 33 2 33 34
M  V30 34 1 34 4
M  V30 35 1 32 11
M  V30 36 1 31 21
M  V30 37 1 30 24
M  V30 38 1 1 35
M  V30 39 1 1 36
M  V30 40 1 1 37
M  V30 41 1 3 38
M  V30 42 1 3 39
M  V30 43 1 3 40
M  V30 44 1 5 41
M  V30 45 1 6 42
M  V30 46 1 10 43
M  V30 47 1 12 44
M  V30 48 1 13 45
M  V30 49 1 14 46
M  V30 50 1 16 47
M  V30 51 1 19 48
M  V30 52 1 19 49
M  V30 53 1 22 50
M  V30 54 1 23 51
M  V30 55 1 27 52
M  V30 56 1 28 53
M  V30 57 1 31 54
M  V30 58 1 32 55
M  V30 59 1 33 56
M  V30 60 1 34 57
M  V30 END BOND
M  V30 END CTAB
M  END
>  <Dataset>  (794) 
ChEMBL_Kinases

>  <Ligand_Instance>  (794) 
nan

>  <PDB_ID>  (794) 
nan

>  <Standardized_SMILES>  (794) 
CN(C)c1ccc(C(=O)Nc2cccc(NC(=O)COc3ccc4c(=O)ccoc4c3)c2)cc1

>  <Name>  (794) 
nan

>  <Pocket>  (794) 
nan

>  <ATP_Site>  (794) 
nan

>  <Peripheral>  (794) 
nan

>  <Num_H_Atoms_ProtBoundConf>  (794) 
nan

>  <Num_Resolved_Atoms>  (794) 
nan

>  <Num_Not_Resolved_Atoms>  (794) 
nan

$$$$
CHEMBL298159
     RDKit          3D

  0  0  0  0  0  0  0  0  0  0999 V3000
M  V30 BEGIN CTAB
M  V30 COUNTS 66 70 0 0 0
M  V30 BEGIN ATOM
M  V30 1 C 1.913289 -1.808407 5.799880 0
M  V30 2 N 3.043614 -1.199885 5.159138 0
M  V30 3 N 4.281851 -1.564294 5.430679 0
M  V30 4 N 5.049127 -0.820457 4.682136 0
M  V30 5 C 4.361596 0.034752 3.913711 0
M  V30 6 C 5.109287 0.950463 3.058401 0
M  V30 7 C 6.496864 1.029642 3.205061 0
M  V30 8 C 7.165210 1.973207 2.455820 0
M  V30 9 C 6.586314 2.847550 1.573166 0
M  V30 10 C 5.198101 2.722987 1.463839 0
M  V30 11 O 4.681016 3.645629 0.546626 0
M  V30 12 C 4.444605 1.786515 2.189353 0
M  V30 13 C 3.060328 1.891429 1.892566 0
M  V30 14 O 2.690706 3.082528 1.581685 0
M  V30 15 C 1.831959 1.155424 1.790160 0
M  V30 16 C 0.581671 1.692116 1.908865 0
M  V30 17 O 0.449516 3.042156 2.258002 0
M  V30 18 C -0.591987 0.996086 1.708797 0
M  V30 19 C -0.497649 -0.332551 1.364908 0
M  V30 20 C -1.756919 -1.023168 1.161443 0
M  V30 21 O -2.847082 -0.411359 1.298549 0
M  V30 22 O -2.066161 -2.330258 0.817699 0
M  V30 23 C -3.376131 -2.801306 0.669836 0 CFG=2
M  V30 24 C -3.672782 -3.963223 1.594004 0
M  V30 25 C -4.845765 -4.612683 0.906660 0
M  V30 26 C -4.682171 -4.338161 -0.560752 0
M  V30 27 C -3.541095 -3.354758 -0.724878 0 CFG=1
M  V30 28 N -3.797964 -2.348857 -1.723695 0
M  V30 29 C -2.992308 -2.210285 -2.906286 0
M  V30 30 O -2.059435 -3.043062 -2.975371 0
M  V30 31 C -3.259852 -1.189369 -3.910821 0
M  V30 32 C -4.255823 -0.232505 -3.889037 0
M  V30 33 C -4.407527 0.674971 -4.896883 0
M  V30 34 C -3.551498 0.666471 -5.995655 0
M  V30 35 O -3.677947 1.562677 -7.021349 0
M  V30 36 C -2.542469 -0.274695 -6.055632 0
M  V30 37 C -2.430638 -1.178932 -5.000430 0
M  V30 38 C 0.732492 -0.914871 1.233030 0
M  V30 39 C 1.892054 -0.208771 1.434921 0
M  V30 40 O 3.013354 -0.975089 1.247447 0
M  V30 41 N 3.133035 -0.259148 4.263921 0
M  V30 42 H 1.876910 -2.894523 5.512216 0
M  V30 43 H 2.028897 -1.740326 6.914913 0
M  V30 44 H 0.970127 -1.310302 5.506706 0
M  V30 45 H 7.061809 0.405483 3.859921 0
M  V30 46 H 8.236405 2.019302 2.583000 0
M  V30 47 H 7.189323 3.557778 1.028734 0
M  V30 48 H 4.249932 3.212158 -0.274822 0
M  V30 49 H 0.212749 3.650652 1.462309 0
M  V30 50 H -1.532448 1.509950 1.826762 0
M  V30 51 H -4.163942 -2.057796 0.843088 0
M  V30 52 H -2.775219 -4.599985 1.611727 0
M  V30 53 H -3.902666 -3.532423 2.577170 0
M  V30 54 H -4.845914 -5.689303 1.150959 0
M  V30 55 H -5.769246 -4.124422 1.329668 0
M  V30 56 H -4.446813 -5.297644 -1.066159 0
M  V30 57 H -5.594329 -3.893886 -1.007286 0
M  V30 58 H -2.645380 -3.931770 -1.039859 0
M  V30 59 H -4.619016 -1.690522 -1.567010 0
M  V30 60 H -4.904534 -0.264515 -3.004618 0
M  V30 61 H -5.206372 1.415897 -4.842692 0
M  V30 62 H -3.011321 2.297785 -7.186694 0
M  V30 63 H -1.867997 -0.297486 -6.902481 0
M  V30 64 H -1.622280 -1.891462 -5.102813 0
M  V30 65 H 0.667033 -1.960032 0.959859 0
M  V30 66 H 3.108288 -1.825418 1.795123 0
M  V30 END ATOM
M  V30 BEGIN BOND
M  V30 1 1 1 2
M  V30 2 1 2 3
M  V30 3 2 3 4
M  V30 4 1 4 5
M  V30 5 1 5 6
M  V30 6 2 6 7
M  V30 7 1 7 8
M  V30 8 2 8 9
M  V30 9 1 9 10
M  V30 10 1 10 11
M  V30 11 2 10 12
M  V30 12 1 12 13
M  V30 13 2 13 14
M  V30 14 1 13 15
M  V30 15 2 15 16
M  V30 16 1 16 17
M  V30 17 1 16 18
M  V30 18 2 18 19
M  V30 19 1 19 20
M  V30 20 2 20 21
M  V30 21 1 20 22
M  V30 22 1 22 23
M  V30 23 1 23 24
M  V30 24 1 24 25
M  V30 25 1 25 26
M  V30 26 1 26 27
M  V30 27 1 27 28
M  V30 28 1 28 29
M  V30 29 2 29 30
M  V30 30 1 29 31
M  V30 31 2 31 32
M  V30 32 1 32 33
M  V30 33 2 33 34
M  V30 34 1 34 35
M  V30 35 1 34 36
M  V30 36 2 36 37
M  V30 37 1 19 38
M  V30 38 2 38 39
M  V30 39 1 39 40
M  V30 40 2 5 41
M  V30 41 1 41 2
M  V30 42 1 12 6
M  V30 43 1 39 15
M  V30 44 1 27 23
M  V30 45 1 37 31
M  V30 46 1 1 42
M  V30 47 1 1 43
M  V30 48 1 1 44
M  V30 49 1 7 45
M  V30 50 1 8 46
M  V30 51 1 9 47
M  V30 52 1 11 48
M  V30 53 1 17 49
M  V30 54 1 18 50
M  V30 55 1 23 51 CFG=1
M  V30 56 1 24 52
M  V30 57 1 24 53
M  V30 58 1 25 54
M  V30 59 1 25 55
M  V30 60 1 26 56
M  V30 61 1 26 57
M  V30 62 1 27 58 CFG=3
M  V30 63 1 28 59
M  V30 64 1 32 60
M  V30 65 1 33 61
M  V30 66 1 35 62
M  V30 67 1 36 63
M  V30 68 1 37 64
M  V30 69 1 38 65
M  V30 70 1 40 66
M  V30 END BOND
M  V30 END CTAB
M  END
>  <Dataset>  (795) 
ChEMBL_Kinases

>  <Ligand_Instance>  (795) 
nan

>  <PDB_ID>  (795) 
nan

>  <Standardized_SMILES>  (795) 
Cn1nnc(-c2cccc(O)c2C(=O)c2c(O)cc(C(=O)O[C@@H]3CCC[C@H]3NC(=O)c3ccc(O)cc3)cc2O)n1

>  <Name>  (795) 
nan

>  <Pocket>  (795) 
nan

>  <ATP_Site>  (795) 
nan

>  <Peripheral>  (795) 
nan

>  <Num_H_Atoms_ProtBoundConf>  (795) 
nan

>  <Num_Resolved_Atoms>  (795) 
nan

>  <Num_Not_Resolved_Atoms>  (795) 
nan

$$$$
CHEMBL298872
     RDKit          3D

  0  0  0  0  0  0  0  0  0  0999 V3000
M  V30 BEGIN CTAB
M  V30 COUNTS 63 67 0 0 0
M  V30 BEGIN ATOM
M  V30 1 O 2.162580 -0.568130 4.158165 0
M  V30 2 C 2.664794 0.341528 3.480403 0
M  V30 3 N 3.667718 0.047818 2.515766 0
M  V30 4 C 4.053637 -1.319333 2.375498 0 CFG=2
M  V30 5 C 5.523639 -1.559543 2.586131 0
M  V30 6 C 5.688950 -2.976572 2.076286 0
M  V30 7 C 4.515608 -3.220490 1.117473 0
M  V30 8 C 3.832719 -1.885546 0.979987 0 CFG=1
M  V30 9 O 2.462357 -1.926593 0.762893 0
M  V30 10 C 1.791915 -1.290178 -0.256793 0
M  V30 11 O 2.572996 -0.644825 -0.998563 0
M  V30 12 C 0.351816 -1.349316 -0.462215 0
M  V30 13 C -0.409971 -2.081669 0.407717 0
M  V30 14 C -1.799920 -2.175175 0.258476 0
M  V30 15 O -2.489541 -2.940298 1.189065 0
M  V30 16 C -2.436523 -1.528633 -0.773825 0
M  V30 17 C -3.872432 -1.523011 -0.909221 0
M  V30 18 O -4.296505 -1.744969 0.277047 0
M  V30 19 C -4.912674 -1.358531 -1.851397 0
M  V30 20 C -6.045986 -0.757134 -1.291629 0
M  V30 21 O -6.143626 -0.347858 0.042932 0
M  V30 22 C -7.228159 -0.486103 -1.992216 0
M  V30 23 C -7.209301 -0.858957 -3.308891 0
M  V30 24 C -6.139904 -1.446526 -3.897144 0
M  V30 25 C -4.976941 -1.708886 -3.180859 0
M  V30 26 C -3.872984 -2.445150 -3.814411 0
M  V30 27 N -2.716526 -3.014758 -3.454594 0
M  V30 28 N -2.121189 -3.540456 -4.499616 0
M  V30 29 N -2.865476 -3.330086 -5.557711 0
M  V30 30 N -3.894548 -2.681033 -5.125551 0
M  V30 31 C -1.587106 -0.797551 -1.621507 0
M  V30 32 O -2.091799 -0.083223 -2.707517 0
M  V30 33 C -0.220584 -0.676786 -1.515934 0
M  V30 34 C 2.189972 1.700235 3.712303 0
M  V30 35 C 1.215544 1.895505 4.669967 0
M  V30 36 C 0.679384 3.140091 4.985321 0
M  V30 37 C 1.159335 4.255717 4.288274 0
M  V30 38 O 0.615128 5.491687 4.613498 0
M  V30 39 C 2.140880 4.063420 3.322915 0
M  V30 40 C 2.651052 2.810785 3.035479 0
M  V30 41 H 4.098071 0.788108 1.942329 0
M  V30 42 H 3.479749 -1.972569 3.072448 0
M  V30 43 H 6.106920 -0.846092 1.983292 0
M  V30 44 H 5.729721 -1.484139 3.669584 0
M  V30 45 H 5.656592 -3.652183 2.955784 0
M  V30 46 H 6.659067 -3.110653 1.548104 0
M  V30 47 H 3.900590 -3.988328 1.581349 0
M  V30 48 H 4.942544 -3.488477 0.135570 0
M  V30 49 H 4.323434 -1.264487 0.214732 0
M  V30 50 H 0.047706 -2.606845 1.233361 0
M  V30 51 H -2.937488 -2.528472 2.014180 0
M  V30 52 H -6.920748 -0.720239 0.590670 0
M  V30 53 H -8.097193 -0.027440 -1.572840 0
M  V30 54 H -8.077749 -0.682481 -3.916975 0
M  V30 55 H -6.206584 -1.715554 -4.960988 0
M  V30 56 H -2.744396 -3.586541 -6.561074 0
M  V30 57 H -1.764062 0.807857 -3.003138 0
M  V30 58 H 0.403911 -0.118171 -2.170442 0
M  V30 59 H 0.799431 1.078258 5.246309 0
M  V30 60 H -0.079793 3.284966 5.732596 0
M  V30 61 H 0.500421 5.815705 5.573970 0
M  V30 62 H 2.502744 4.927831 2.792842 0
M  V30 63 H 3.413318 2.677912 2.282631 0
M  V30 END ATOM
M  V30 BEGIN BOND
M  V30 1 2 1 2
M  V30 2 1 2 3
M  V30 3 1 3 4
M  V30 4 1 4 5
M  V30 5 1 5 6
M  V30 6 1 6 7
M  V30 7 1 7 8
M  V30 8 1 8 9
M  V30 9 1 9 10
M  V30 10 2 10 11
M  V30 11 1 10 12
M  V30 12 2 12 13
M  V30 13 1 13 14
M  V30 14 1 14 15
M  V30 15 2 14 16
M  V30 16 1 16 17
M  V30 17 2 17 18
M  V30 18 1 17 19
M  V30 19 2 19 20
M  V30 20 1 20 21
M  V30 21 1 20 22
M  V30 22 2 22 23
M  V30 23 1 23 24
M  V30 24 2 24 25
M  V30 25 1 25 26
M  V30 26 1 26 27
M  V30 27 2 27 28
M  V30 28 1 28 29
M  V30 29 1 29 30
M  V30 30 1 16 31
M  V30 31 1 31 32
M  V30 32 2 31 33
M  V30 33 1 2 34
M  V30 34 2 34 35
M  V30 35 1 35 36
M  V30 36 2 36 37
M  V30 37 1 37 38
M  V30 38 1 37 39
M  V30 39 2 39 40
M  V30 40 1 8 4
M  V30 41 1 33 12
M  V30 42 1 40 34
M  V30 43 1 25 19
M  V30 44 2 30 26
M  V30 45 1 3 41
M  V30 46 1 4 42 CFG=1
M  V30 47 1 5 43
M  V30 48 1 5 44
M  V30 49 1 6 45
M  V30 50 1 6 46
M  V30 51 1 7 47
M  V30 52 1 7 48
M  V30 53 1 8 49 CFG=3
M  V30 54 1 13 50
M  V30 55 1 15 51
M  V30 56 1 21 52
M  V30 57 1 22 53
M  V30 58 1 23 54
M  V30 59 1 24 55
M  V30 60 1 29 56
M  V30 61 1 32 57
M  V30 62 1 33 58
M  V30 63 1 35 59
M  V30 64 1 36 60
M  V30 65 1 38 61
M  V30 66 1 39 62
M  V30 67 1 40 63
M  V30 END BOND
M  V30 END CTAB
M  END
>  <Dataset>  (796) 
ChEMBL_Kinases

>  <Ligand_Instance>  (796) 
nan

>  <PDB_ID>  (796) 
nan

>  <Standardized_SMILES>  (796) 
O=C(N[C@@H]1CCC[C@H]1OC(=O)c1cc(O)c(C(=O)c2c(O)cccc2-c2nn[nH]n2)c(O)c1)c1ccc(O)cc1

>  <Name>  (796) 
nan

>  <Pocket>  (796) 
nan

>  <ATP_Site>  (796) 
nan

>  <Peripheral>  (796) 
nan

>  <Num_H_Atoms_ProtBoundConf>  (796) 
nan

>  <Num_Resolved_Atoms>  (796) 
nan

>  <Num_Not_Resolved_Atoms>  (796) 
nan

$$$$
CHEMBL29898
     RDKit          3D

  0  0  0  0  0  0  0  0  0  0999 V3000
M  V30 BEGIN CTAB
M  V30 COUNTS 28 30 0 0 0
M  V30 BEGIN ATOM
M  V30 1 O 0.100554 -3.285972 1.827569 0
M  V30 2 C 0.131690 -2.113422 1.343968 0
M  V30 3 C 1.322963 -1.287454 1.595019 0
M  V30 4 C 2.383326 -1.783545 2.342853 0
M  V30 5 C 3.511649 -0.992099 2.576743 0
M  V30 6 C 3.474215 0.270867 2.019935 0
M  V30 7 O 4.620237 1.049039 2.268444 0
M  V30 8 C 2.451227 0.816904 1.269741 0
M  V30 9 O 2.522987 2.096235 0.761226 0
M  V30 10 C 1.342105 -0.011162 1.061161 0
M  V30 11 C 0.244646 0.539123 0.271470 0
M  V30 12 O 0.296443 1.702896 -0.197940 0
M  V30 13 C -0.929704 -0.302021 0.035446 0
M  V30 14 C -1.968208 0.242841 -0.722099 0
M  V30 15 O -1.850101 1.529568 -1.210314 0
M  V30 16 C -3.069308 -0.559799 -0.937457 0
M  V30 17 C -3.125041 -1.835646 -0.422308 0
M  V30 18 C -2.103644 -2.381178 0.326871 0
M  V30 19 O -2.093403 -3.655730 0.874860 0
M  V30 20 C -0.988359 -1.591194 0.554793 0
M  V30 21 H 2.311646 -2.790527 2.735429 0
M  V30 22 H 4.336993 -1.347274 3.145648 0
M  V30 23 H 5.450543 0.920569 1.705498 0
M  V30 24 H 2.765033 2.161918 -0.225029 0
M  V30 25 H -2.178012 2.296298 -0.668736 0
M  V30 26 H -3.891891 -0.159317 -1.524255 0
M  V30 27 H -3.982487 -2.492975 -0.576267 0
M  V30 28 H -2.880495 -4.289928 0.870339 0
M  V30 END ATOM
M  V30 BEGIN BOND
M  V30 1 2 1 2
M  V30 2 1 2 3
M  V30 3 2 3 4
M  V30 4 1 4 5
M  V30 5 2 5 6
M  V30 6 1 6 7
M  V30 7 1 6 8
M  V30 8 1 8 9
M  V30 9 2 8 10
M  V30 10 1 10 11
M  V30 11 2 11 12
M  V30 12 1 11 13
M  V30 13 2 13 14
M  V30 14 1 14 15
M  V30 15 1 14 16
M  V30 16 2 16 17
M  V30 17 1 17 18
M  V30 18 1 18 19
M  V30 19 2 18 20
M  V30 20 1 20 2
M  V30 21 1 10 3
M  V30 22 1 20 13
M  V30 23 1 4 21
M  V30 24 1 5 22
M  V30 25 1 7 23
M  V30 26 1 9 24
M  V30 27 1 15 25
M  V30 28 1 16 26
M  V30 29 1 17 27
M  V30 30 1 19 28
M  V30 END BOND
M  V30 END CTAB
M  END
>  <Dataset>  (797) 
ChEMBL_Kinases

>  <Ligand_Instance>  (797) 
nan

>  <PDB_ID>  (797) 
nan

>  <Standardized_SMILES>  (797) 
O=C1c2ccc(O)c(O)c2C(=O)c2c(O)ccc(O)c21

>  <Name>  (797) 
QUINALIZARIN

>  <Pocket>  (797) 
nan

>  <ATP_Site>  (797) 
nan

>  <Peripheral>  (797) 
nan

>  <Num_H_Atoms_ProtBoundConf>  (797) 
nan

>  <Num_Resolved_Atoms>  (797) 
nan

>  <Num_Not_Resolved_Atoms>  (797) 
nan

$$$$
CHEMBL536151
     RDKit          3D

  0  0  0  0  0  0  0  0  0  0999 V3000
M  V30 BEGIN CTAB
M  V30 COUNTS 33 34 0 0 0
M  V30 BEGIN ATOM
M  V30 1 O -0.331505 -0.260167 -0.775312 0
M  V30 2 C -1.102847 -0.775297 0.089698 0
M  V30 3 N -0.547460 -0.889561 1.387392 0
M  V30 4 C 0.797068 -0.382922 1.428456 0
M  V30 5 C 1.758053 -1.339516 1.153179 0
M  V30 6 C 3.083446 -0.949370 1.168427 0
M  V30 7 C 4.190173 -1.916634 0.882453 0
M  V30 8 F 4.696742 -2.503171 2.002276 0
M  V30 9 F 5.173866 -1.270608 0.124702 0
M  V30 10 F 3.655275 -2.865626 0.000629 0
M  V30 11 C 3.439584 0.365192 1.451982 0
M  V30 12 C 2.453814 1.289904 1.721290 0
M  V30 13 C 2.761998 2.712978 2.032618 0
M  V30 14 F 1.715674 3.274174 2.772703 0
M  V30 15 F 3.960320 2.870194 2.690224 0
M  V30 16 F 2.763142 3.400858 0.829644 0
M  V30 17 C 1.101505 0.931941 1.715000 0
M  V30 18 C -2.444428 -1.192208 -0.302089 0
M  V30 19 C -3.296816 -1.749938 0.608139 0
M  V30 20 C -4.591922 -2.166835 0.287041 0
M  V30 21 Cl -5.654462 -2.878056 1.484946 0
M  V30 22 C -5.011449 -1.997347 -1.022399 0
M  V30 23 C -4.156822 -1.429832 -1.967942 0
M  V30 24 C -2.864981 -1.019176 -1.627118 0
M  V30 25 O -2.005597 -0.453029 -2.560014 0
M  V30 26 H -1.149753 -1.308530 2.129165 0
M  V30 27 H 1.517640 -2.379046 0.926619 0
M  V30 28 H 4.467378 0.703043 1.471957 0
M  V30 29 H 0.275209 1.601061 1.916253 0
M  V30 30 H -3.037001 -1.911536 1.643254 0
M  V30 31 H -6.016495 -2.303750 -1.339332 0
M  V30 32 H -4.491907 -1.301945 -2.984204 0
M  V30 33 H -1.166463 -0.887317 -2.904528 0
M  V30 END ATOM
M  V30 BEGIN BOND
M  V30 1 2 1 2
M  V30 2 1 2 3
M  V30 3 1 3 4
M  V30 4 2 4 5
M  V30 5 1 5 6
M  V30 6 1 6 7
M  V30 7 1 7 8
M  V30 8 1 7 9
M  V30 9 1 7 10
M  V30 10 2 6 11
M  V30 11 1 11 12
M  V30 12 1 12 13
M  V30 13 1 13 14
M  V30 14 1 13 15
M  V30 15 1 13 16
M  V30 16 2 12 17
M  V30 17 1 2 18
M  V30 18 2 18 19
M  V30 19 1 19 20
M  V30 20 1 20 21
M  V30 21 2 20 22
M  V30 22 1 22 23
M  V30 23 2 23 24
M  V30 24 1 24 25
M  V30 25 1 17 4
M  V30 26 1 24 18
M  V30 27 1 3 26
M  V30 28 1 5 27
M  V30 29 1 11 28
M  V30 30 1 17 29
M  V30 31 1 19 30
M  V30 32 1 22 31
M  V30 33 1 23 32
M  V30 34 1 25 33
M  V30 END BOND
M  V30 END CTAB
M  END
>  <Dataset>  (798) 
ChEMBL_Kinases

>  <Ligand_Instance>  (798) 
nan

>  <PDB_ID>  (798) 
nan

>  <Standardized_SMILES>  (798) 
O=C(Nc1cc(C(F)(F)F)cc(C(F)(F)F)c1)c1cc(Cl)ccc1O

>  <Name>  (798) 
IMD-0354

>  <Pocket>  (798) 
nan

>  <ATP_Site>  (798) 
nan

>  <Peripheral>  (798) 
nan

>  <Num_H_Atoms_ProtBoundConf>  (798) 
nan

>  <Num_Resolved_Atoms>  (798) 
nan

>  <Num_Not_Resolved_Atoms>  (798) 
nan

$$$$
CHEMBL302449
     RDKit          3D

  0  0  0  0  0  0  0  0  0  0999 V3000
M  V30 BEGIN CTAB
M  V30 COUNTS 47 52 0 0 0
M  V30 BEGIN ATOM
M  V30 1 C 0.088652 -0.364484 3.978484 0
M  V30 2 N 0.509086 -1.077866 2.809944 0
M  V30 3 C 1.188027 -2.250824 2.977057 0
M  V30 4 C 1.518779 -2.958331 4.151471 0
M  V30 5 C 2.207255 -4.138907 4.209427 0
M  V30 6 C 2.588621 -4.640340 2.993629 0
M  V30 7 C 2.279485 -3.972715 1.839978 0
M  V30 8 C 1.591990 -2.793632 1.779554 0
M  V30 9 C 1.141928 -1.919695 0.850808 0
M  V30 10 C 1.303401 -1.967276 -0.509275 0
M  V30 11 C 0.793712 -0.947438 -1.279786 0
M  V30 12 C 0.137854 0.073754 -0.606669 0
M  V30 13 C -0.461771 1.191485 -1.138926 0
M  V30 14 C -0.593201 1.642979 -2.426551 0
M  V30 15 C -1.251905 2.810276 -2.679398 0
M  V30 16 C -1.789409 3.545520 -1.656810 0
M  V30 17 C -1.622637 3.040035 -0.404026 0
M  V30 18 C -0.962946 1.852967 -0.045969 0
M  V30 19 N -0.711903 1.211387 1.134947 0
M  V30 20 C -1.223038 1.811331 2.286298 0
M  V30 21 C -2.717222 1.421742 2.367339 0
M  V30 22 C -2.943483 0.018269 2.368539 0
M  V30 23 N -3.132592 -1.116007 2.351628 0
M  V30 24 C -0.039977 0.137009 0.770278 0
M  V30 25 C 0.487321 -0.891152 1.493244 0
M  V30 26 C 1.054213 -1.150942 -2.745619 0
M  V30 27 N 1.780340 -2.394252 -2.802407 0
M  V30 28 C 1.905792 -2.845061 -1.473499 0
M  V30 29 O 2.509750 -3.913688 -1.364607 0
M  V30 30 H 0.432084 -0.884760 4.930452 0
M  V30 31 H 0.673581 0.591684 4.100927 0
M  V30 32 H -0.985944 -0.306351 4.160482 0
M  V30 33 H 1.250629 -2.630277 5.173254 0
M  V30 34 H 2.453289 -4.669262 5.117730 0
M  V30 35 H 3.139522 -5.577635 2.982325 0
M  V30 36 H 2.630994 -4.467382 0.969682 0
M  V30 37 H -0.186086 1.098666 -3.259001 0
M  V30 38 H -1.339714 3.141145 -3.702247 0
M  V30 39 H -2.308514 4.466861 -1.865034 0
M  V30 40 H -2.081164 3.679814 0.367657 0
M  V30 41 H -0.806841 1.770241 3.250101 0
M  V30 42 H -1.336798 2.955716 2.063572 0
M  V30 43 H -3.190645 1.861234 3.267222 0
M  V30 44 H -3.258149 1.905710 1.504700 0
M  V30 45 H 1.701570 -0.342033 -3.096972 0
M  V30 46 H 0.112471 -1.252039 -3.326751 0
M  V30 47 H 2.053676 -2.699742 -3.745588 0
M  V30 END ATOM
M  V30 BEGIN BOND
M  V30 1 1 1 2
M  V30 2 1 2 3
M  V30 3 2 3 4
M  V30 4 1 4 5
M  V30 5 2 5 6
M  V30 6 1 6 7
M  V30 7 2 7 8
M  V30 8 1 8 9
M  V30 9 2 9 10
M  V30 10 1 10 11
M  V30 11 2 11 12
M  V30 12 1 12 13
M  V30 13 2 13 14
M  V30 14 1 14 15
M  V30 15 2 15 16
M  V30 16 1 16 17
M  V30 17 2 17 18
M  V30 18 1 18 19
M  V30 19 1 19 20
M  V30 20 1 20 21
M  V30 21 1 21 22
M  V30 22 3 22 23
M  V30 23 1 19 24
M  V30 24 2 24 25
M  V30 25 1 11 26
M  V30 26 1 26 27
M  V30 27 1 27 28
M  V30 28 2 28 29
M  V30 29 1 25 2
M  V30 30 1 8 3
M  V30 31 1 25 9
M  V30 32 1 28 10
M  V30 33 1 24 12
M  V30 34 1 18 13
M  V30 35 1 1 30
M  V30 36 1 1 31
M  V30 37 1 1 32
M  V30 38 1 4 33
M  V30 39 1 5 34
M  V30 40 1 6 35
M  V30 41 1 7 36
M  V30 42 1 14 37
M  V30 43 1 15 38
M  V30 44 1 16 39
M  V30 45 1 17 40
M  V30 46 1 20 41
M  V30 47 1 20 42
M  V30 48 1 21 43
M  V30 49 1 21 44
M  V30 50 1 26 45
M  V30 51 1 26 46
M  V30 52 1 27 47
M  V30 END BOND
M  V30 END CTAB
M  END
>  <Dataset>  (799) 
ChEMBL_Kinases

>  <Ligand_Instance>  (799) 
nan

>  <PDB_ID>  (799) 
nan

>  <Standardized_SMILES>  (799) 
Cn1c2ccccc2c2c3c(c4c5ccccc5n(CCC#N)c4c21)CNC3=O

>  <Name>  (799) 
GO-6976

>  <Pocket>  (799) 
nan

>  <ATP_Site>  (799) 
nan

>  <Peripheral>  (799) 
nan

>  <Num_H_Atoms_ProtBoundConf>  (799) 
nan

>  <Num_Resolved_Atoms>  (799) 
nan

>  <Num_Not_Resolved_Atoms>  (799) 
nan

$$$$
CHEMBL3797828
     RDKit          3D

  0  0  0  0  0  0  0  0  0  0999 V3000
M  V30 BEGIN CTAB
M  V30 COUNTS 60 64 0 0 0
M  V30 BEGIN ATOM
M  V30 1 C 2.717285 -3.188442 2.329710 0
M  V30 2 N 2.764969 -1.895759 3.030927 0
M  V30 3 C 2.331446 -1.934402 4.432550 0
M  V30 4 C 3.111278 -0.556498 2.705335 0
M  V30 5 O 3.099572 0.460594 3.500173 0
M  V30 6 C 3.567530 0.163838 1.519485 0
M  V30 7 C 4.813362 0.159653 0.912379 0
M  V30 8 C 5.051505 0.925433 -0.208845 0
M  V30 9 C 4.099640 1.718109 -0.779835 0
M  V30 10 C 2.850062 1.808476 -0.280872 0
M  V30 11 C 1.654779 2.620997 -0.616522 0
M  V30 12 C 1.551578 3.917991 -1.029574 0
M  V30 13 N 0.320615 4.462759 -1.302127 0
M  V30 14 C -0.781300 3.716419 -1.160819 0
M  V30 15 N -2.082328 4.284651 -1.447728 0
M  V30 16 C -0.827491 2.416012 -0.764595 0
M  V30 17 C -1.971184 1.554261 -0.519021 0
M  V30 18 N -3.290237 1.683099 -0.526998 0
M  V30 19 C -3.927261 0.511242 -0.335712 0
M  V30 20 C -5.229981 0.078094 -0.235754 0
M  V30 21 C -5.464093 -1.285914 -0.012048 0
M  V30 22 C -4.467245 -2.218020 0.112940 0
M  V30 23 C -3.139913 -1.807255 0.017486 0
M  V30 24 N -2.120653 -2.823926 0.065134 0
M  V30 25 C -2.392949 -4.085385 0.693588 0
M  V30 26 C -2.442741 -5.155142 -0.387125 0
M  V30 27 N -1.261078 -5.159935 -1.178160 0
M  V30 28 C -0.268556 -4.199142 -0.832481 0
M  V30 29 C -0.771996 -2.827312 -0.516846 0
M  V30 30 C -2.947819 -0.441561 -0.198618 0
M  V30 31 N -1.805271 0.231895 -0.313247 0
M  V30 32 C 0.463921 1.937602 -0.508466 0
M  V30 33 C 2.649659 1.009040 0.866185 0
M  V30 34 H 2.888200 -2.995655 1.269610 0
M  V30 35 H 3.536715 -3.804930 2.795860 0
M  V30 36 H 1.706009 -3.638944 2.541753 0
M  V30 37 H 2.254489 -2.959179 4.768758 0
M  V30 38 H 1.322678 -1.462337 4.530794 0
M  V30 39 H 3.037225 -1.375291 5.101591 0
M  V30 40 H 5.542359 -0.483533 1.391980 0
M  V30 41 H 6.039948 0.896238 -0.670144 0
M  V30 42 H 4.208865 2.336044 -1.651587 0
M  V30 43 H 2.512573 4.426612 -1.097682 0
M  V30 44 H -2.724310 4.468989 -0.640545 0
M  V30 45 H -2.673963 4.441286 -0.576492 0
M  V30 46 H -5.988955 0.815389 -0.338709 0
M  V30 47 H -6.519482 -1.569253 0.058201 0
M  V30 48 H -4.815604 -3.223571 0.281638 0
M  V30 49 H -1.521496 -4.359254 1.335876 0
M  V30 50 H -3.324294 -4.095010 1.276621 0
M  V30 51 H -2.533773 -6.133656 0.142253 0
M  V30 52 H -3.343783 -5.052369 -1.021913 0
M  V30 53 H -0.824375 -6.096402 -1.211515 0
M  V30 54 H 0.408629 -4.059306 -1.726441 0
M  V30 55 H 0.388444 -4.544091 -0.002678 0
M  V30 56 H -0.045417 -2.379322 0.180371 0
M  V30 57 H -0.750649 -2.207619 -1.447559 0
M  V30 58 H -0.896349 -0.273082 -0.231135 0
M  V30 59 H 0.547403 0.898265 -0.198786 0
M  V30 60 H 1.670484 1.003546 1.374252 0
M  V30 END ATOM
M  V30 BEGIN BOND
M  V30 1 1 1 2
M  V30 2 1 2 3
M  V30 3 1 2 4
M  V30 4 2 4 5
M  V30 5 1 4 6
M  V30 6 2 6 7
M  V30 7 1 7 8
M  V30 8 2 8 9
M  V30 9 1 9 10
M  V30 10 1 10 11
M  V30 11 2 11 12
M  V30 12 1 12 13
M  V30 13 2 13 14
M  V30 14 1 14 15
M  V30 15 1 14 16
M  V30 16 1 16 17
M  V30 17 2 17 18
M  V30 18 1 18 19
M  V30 19 2 19 20
M  V30 20 1 20 21
M  V30 21 2 21 22
M  V30 22 1 22 23
M  V30 23 1 23 24
M  V30 24 1 24 25
M  V30 25 1 25 26
M  V30 26 1 26 27
M  V30 27 1 27 28
M  V30 28 1 28 29
M  V30 29 2 23 30
M  V30 30 1 30 31
M  V30 31 2 16 32
M  V30 32 2 10 33
M  V30 33 1 33 6
M  V30 34 1 32 11
M  V30 35 1 31 17
M  V30 36 1 30 19
M  V30 37 1 29 24
M  V30 38 1 1 34
M  V30 39 1 1 35
M  V30 40 1 1 36
M  V30 41 1 3 37
M  V30 42 1 3 38
M  V30 43 1 3 39
M  V30 44 1 7 40
M  V30 45 1 8 41
M  V30 46 1 9 42
M  V30 47 1 12 43
M  V30 48 1 15 44
M  V30 49 1 15 45
M  V30 50 1 20 46
M  V30 51 1 21 47
M  V30 52 1 22 48
M  V30 53 1 25 49
M  V30 54 1 25 50
M  V30 55 1 26 51
M  V30 56 1 26 52
M  V30 57 1 27 53
M  V30 58 1 28 54
M  V30 59 1 28 55
M  V30 60 1 29 56
M  V30 61 1 29 57
M  V30 62 1 31 58
M  V30 63 1 32 59
M  V30 64 1 33 60
M  V30 END BOND
M  V30 END CTAB
M  END
>  <Dataset>  (800) 
ChEMBL_Kinases

>  <Ligand_Instance>  (800) 
nan

>  <PDB_ID>  (800) 
nan

>  <Standardized_SMILES>  (800) 
CN(C)C(=O)c1cccc(-c2cnc(N)c(-c3nc4cccc(N5CCNCC5)c4[nH]3)c2)c1

>  <Name>  (800) 
nan

>  <Pocket>  (800) 
nan

>  <ATP_Site>  (800) 
nan

>  <Peripheral>  (800) 
nan

>  <Num_H_Atoms_ProtBoundConf>  (800) 
nan

>  <Num_Resolved_Atoms>  (800) 
nan

>  <Num_Not_Resolved_Atoms>  (800) 
nan

$$$$
CHEMBL1289494
     RDKit          3D

  0  0  0  0  0  0  0  0  0  0999 V3000
M  V30 BEGIN CTAB
M  V30 COUNTS 51 54 0 0 0
M  V30 BEGIN ATOM
M  V30 1 C 2.745067 -5.722151 4.242141 0
M  V30 2 O 2.149012 -4.991534 3.179244 0
M  V30 3 C 2.639399 -3.774522 2.757343 0
M  V30 4 C 3.745250 -3.181074 3.339658 0
M  V30 5 C 4.227578 -1.962882 2.909824 0
M  V30 6 N 5.299443 -1.341806 3.432650 0
M  V30 7 C 5.711915 -0.147461 2.947712 0
M  V30 8 C 5.025230 0.457582 1.893064 0
M  V30 9 C 3.910401 -0.175243 1.340423 0
M  V30 10 O 3.366948 0.567811 0.316976 0
M  V30 11 C 2.091188 1.104309 0.287059 0
M  V30 12 C 1.911896 1.731965 -0.954028 0
M  V30 13 C 0.707924 2.370622 -1.275909 0
M  V30 14 C -0.315015 2.381816 -0.358712 0
M  V30 15 N -1.597382 2.980281 -0.518254 0
M  V30 16 C -2.528800 2.082800 -1.075716 0
M  V30 17 O -2.174036 0.908845 -1.365792 0
M  V30 18 N -3.886114 2.414921 -1.344518 0
M  V30 19 C -4.836971 1.519688 -1.906539 0
M  V30 20 C -5.600003 0.725940 -1.075027 0
M  V30 21 C -6.447021 -0.056275 -1.833145 0
M  V30 22 C -7.480365 -1.082976 -1.526645 0
M  V30 23 O -6.178698 0.278586 -3.073596 0
M  V30 24 N -5.259640 1.180333 -3.151851 0
M  V30 25 C -0.137415 1.764120 0.861619 0
M  V30 26 Cl -1.362883 1.703332 2.126600 0
M  V30 27 C 1.042722 1.133251 1.188015 0
M  V30 28 C 3.536112 -1.382797 1.868111 0
M  V30 29 C 2.431552 -1.936188 1.257763 0
M  V30 30 C 1.962881 -3.159670 1.703832 0
M  V30 31 O 0.855365 -3.769463 1.131447 0
M  V30 32 C 0.229729 -3.076530 0.068575 0
M  V30 33 H 2.935844 -5.029033 5.104559 0
M  V30 34 H 3.656665 -6.228828 3.907726 0
M  V30 35 H 2.024569 -6.482705 4.625434 0
M  V30 36 H 4.251880 -3.674431 4.151890 0
M  V30 37 H 6.575789 0.223865 3.461386 0
M  V30 38 H 5.513734 1.403705 1.655010 0
M  V30 39 H 2.611757 1.816630 -1.788415 0
M  V30 40 H 0.494847 2.867562 -2.193015 0
M  V30 41 H -1.933033 3.955605 -0.288623 0
M  V30 42 H -4.162429 3.403613 -1.093982 0
M  V30 43 H -5.624526 0.637603 0.020119 0
M  V30 44 H -7.299584 -1.530990 -0.507702 0
M  V30 45 H -8.500784 -0.637856 -1.441176 0
M  V30 46 H -7.430521 -1.943063 -2.220738 0
M  V30 47 H 1.331861 0.612426 2.089451 0
M  V30 48 H 1.908756 -1.484919 0.450477 0
M  V30 49 H -0.724920 -3.556379 -0.244724 0
M  V30 50 H 0.899630 -2.959273 -0.810099 0
M  V30 51 H -0.067101 -2.065870 0.454759 0
M  V30 END ATOM
M  V30 BEGIN BOND
M  V30 1 1 1 2
M  V30 2 1 2 3
M  V30 3 2 3 4
M  V30 4 1 4 5
M  V30 5 2 5 6
M  V30 6 1 6 7
M  V30 7 2 7 8
M  V30 8 1 8 9
M  V30 9 1 9 10
M  V30 10 1 10 11
M  V30 11 2 11 12
M  V30 12 1 12 13
M  V30 13 2 13 14
M  V30 14 1 14 15
M  V30 15 1 15 16
M  V30 16 2 16 17
M  V30 17 1 16 18
M  V30 18 1 18 19
M  V30 19 1 19 20
M  V30 20 2 20 21
M  V30 21 1 21 22
M  V30 22 1 21 23
M  V30 23 1 23 24
M  V30 24 1 14 25
M  V30 25 1 25 26
M  V30 26 2 25 27
M  V30 27 2 9 28
M  V30 28 1 28 29
M  V30 29 2 29 30
M  V30 30 1 30 31
M  V30 31 1 31 32
M  V30 32 1 30 3
M  V30 33 1 28 5
M  V30 34 1 27 11
M  V30 35 2 24 19
M  V30 36 1 1 33
M  V30 37 1 1 34
M  V30 38 1 1 35
M  V30 39 1 4 36
M  V30 40 1 7 37
M  V30 41 1 8 38
M  V30 42 1 12 39
M  V30 43 1 13 40
M  V30 44 1 15 41
M  V30 45 1 18 42
M  V30 46 1 20 43
M  V30 47 1 22 44
M  V30 48 1 22 45
M  V30 49 1 22 46
M  V30 50 1 27 47
M  V30 51 1 29 48
M  V30 52 1 32 49
M  V30 53 1 32 50
M  V30 54 1 32 51
M  V30 END BOND
M  V30 END CTAB
M  END
>  <Dataset>  (801) 
ChEMBL_Kinases

>  <Ligand_Instance>  (801) 
nan

>  <PDB_ID>  (801) 
nan

>  <Standardized_SMILES>  (801) 
COc1cc2nccc(Oc3ccc(NC(=O)Nc4cc(C)on4)c(Cl)c3)c2cc1OC

>  <Name>  (801) 
TIVOZANIB

>  <Pocket>  (801) 
nan

>  <ATP_Site>  (801) 
nan

>  <Peripheral>  (801) 
nan

>  <Num_H_Atoms_ProtBoundConf>  (801) 
nan

>  <Num_Resolved_Atoms>  (801) 
nan

>  <Num_Not_Resolved_Atoms>  (801) 
nan

$$$$
CHEMBL3735890
     RDKit          3D

  0  0  0  0  0  0  0  0  0  0999 V3000
M  V30 BEGIN CTAB
M  V30 COUNTS 53 57 0 0 0
M  V30 BEGIN ATOM
M  V30 1 C 0.476896 1.349508 5.126742 0
M  V30 2 O 0.373158 0.951125 3.781037 0
M  V30 3 C 0.602895 -0.367800 3.447095 0
M  V30 4 C 0.930278 -1.262917 4.439147 0
M  V30 5 C 1.157737 -2.578763 4.105232 0
M  V30 6 C 1.043019 -2.928026 2.778058 0
M  V30 7 C 0.711606 -1.990956 1.818111 0
M  V30 8 C 0.469501 -0.626872 2.115693 0
M  V30 9 C 0.156842 0.206947 0.959121 0
M  V30 10 C 1.440285 0.478714 0.192370 0
M  V30 11 N -0.663598 1.341087 1.111597 0
M  V30 12 C -0.082898 2.571677 1.497494 0
M  V30 13 C -0.191842 3.637328 0.402849 0
M  V30 14 N -1.537732 3.873207 -0.022509 0
M  V30 15 C -2.408443 2.737968 0.151502 0
M  V30 16 C -1.547620 1.503752 -0.024414 0
M  V30 17 O 0.683219 -2.674704 0.610401 0
M  V30 18 C 0.975672 -4.003058 0.720419 0
M  V30 19 C 0.994780 -4.804165 -0.324313 0
M  V30 20 C 0.728167 -4.488465 -1.718961 0
M  V30 21 N 1.471454 -4.851516 -2.777418 0
M  V30 22 N 0.924825 -4.398258 -3.910512 0
M  V30 23 C -0.219987 -3.707005 -3.646277 0
M  V30 24 N -1.124098 -3.072803 -4.418140 0
M  V30 25 C -2.187349 -2.473853 -3.833767 0
M  V30 26 C -2.387907 -2.486715 -2.448555 0
M  V30 27 C -1.422881 -3.153335 -1.723195 0
M  V30 28 C -0.322450 -3.778274 -2.261722 0
M  V30 29 C 1.222787 -4.224040 2.136576 0
M  V30 30 O 1.525455 -5.343558 2.620748 0
M  V30 31 H 0.260529 2.429315 5.267483 0
M  V30 32 H -0.191498 0.744929 5.811047 0
M  V30 33 H 1.503025 1.130105 5.481271 0
M  V30 34 H 0.997387 -0.901525 5.455815 0
M  V30 35 H 1.413324 -3.279602 4.878114 0
M  V30 36 H -0.408038 -0.484884 0.223949 0
M  V30 37 H 2.214945 0.957333 0.795049 0
M  V30 38 H 1.845570 -0.526944 -0.082593 0
M  V30 39 H 1.241223 0.982358 -0.793694 0
M  V30 40 H 0.995946 2.559361 1.749119 0
M  V30 41 H -0.625611 3.006074 2.355804 0
M  V30 42 H 0.495279 3.398295 -0.461339 0
M  V30 43 H 0.176577 4.579875 0.852230 0
M  V30 44 H -1.923394 4.775162 0.266209 0
M  V30 45 H -3.240536 2.706489 -0.587320 0
M  V30 46 H -2.810128 2.769981 1.184689 0
M  V30 47 H -2.156393 0.594838 -0.221289 0
M  V30 48 H -0.855124 1.688216 -0.897833 0
M  V30 49 H 1.240929 -5.858535 -0.142835 0
M  V30 50 H 1.352989 -4.573888 -4.849686 0
M  V30 51 H -2.877675 -1.983804 -4.478558 0
M  V30 52 H -3.247917 -2.003273 -1.981129 0
M  V30 53 H -1.607117 -3.160088 -0.661308 0
M  V30 END ATOM
M  V30 BEGIN BOND
M  V30 1 1 1 2
M  V30 2 1 2 3
M  V30 3 2 3 4
M  V30 4 1 4 5
M  V30 5 2 5 6
M  V30 6 1 6 7
M  V30 7 2 7 8
M  V30 8 1 8 9
M  V30 9 1 9 10
M  V30 10 1 9 11
M  V30 11 1 11 12
M  V30 12 1 12 13
M  V30 13 1 13 14
M  V30 14 1 14 15
M  V30 15 1 15 16
M  V30 16 1 7 17
M  V30 17 1 17 18
M  V30 18 2 18 19
M  V30 19 1 19 20
M  V30 20 2 20 21
M  V30 21 1 21 22
M  V30 22 1 22 23
M  V30 23 2 23 24
M  V30 24 1 24 25
M  V30 25 2 25 26
M  V30 26 1 26 27
M  V30 27 2 27 28
M  V30 28 1 18 29
M  V30 29 2 29 30
M  V30 30 1 8 3
M  V30 31 1 16 11
M  V30 32 1 28 20
M  V30 33 1 29 6
M  V30 34 1 28 23
M  V30 35 1 1 31
M  V30 36 1 1 32
M  V30 37 1 1 33
M  V30 38 1 4 34
M  V30 39 1 5 35
M  V30 40 1 9 36
M  V30 41 1 10 37
M  V30 42 1 10 38
M  V30 43 1 10 39
M  V30 44 1 12 40
M  V30 45 1 12 41
M  V30 46 1 13 42
M  V30 47 1 13 43
M  V30 48 1 14 44
M  V30 49 1 15 45
M  V30 50 1 15 46
M  V30 51 1 16 47
M  V30 52 1 16 48
M  V30 53 1 19 49
M  V30 54 1 22 50
M  V30 55 1 25 51
M  V30 56 1 26 52
M  V30 57 1 27 53
M  V30 END BOND
M  V30 END CTAB
M  END
>  <Dataset>  (802) 
ChEMBL_Kinases

>  <Ligand_Instance>  (802) 
nan

>  <PDB_ID>  (802) 
nan

>  <Standardized_SMILES>  (802) 
COc1ccc2c(c1C(C)N1CCNCC1)O/C(=C\c1n[nH]c3ncccc13)C2=O

>  <Name>  (802) 
nan

>  <Pocket>  (802) 
nan

>  <ATP_Site>  (802) 
nan

>  <Peripheral>  (802) 
nan

>  <Num_H_Atoms_ProtBoundConf>  (802) 
nan

>  <Num_Resolved_Atoms>  (802) 
nan

>  <Num_Not_Resolved_Atoms>  (802) 
nan

$$$$
CHEMBL5083159
     RDKit          3D

  0  0  0  0  0  0  0  0  0  0999 V3000
M  V30 BEGIN CTAB
M  V30 COUNTS 40 43 0 0 0
M  V30 BEGIN ATOM
M  V30 1 C -1.767906 -4.571696 1.425793 0
M  V30 2 C -1.465369 -3.140667 1.608464 0
M  V30 3 N -0.348535 -2.641437 1.090340 0
M  V30 4 C 0.033925 -1.356892 1.190443 0
M  V30 5 N 1.269938 -0.956739 0.641135 0
M  V30 6 C 2.169746 -1.813846 -0.106005 0
M  V30 7 C 1.584037 -2.331256 -1.369881 0
M  V30 8 C 0.940480 -3.515851 -1.600683 0
M  V30 9 C 0.453497 -3.833071 -2.826439 0
M  V30 10 S 0.905424 -2.327544 -3.889282 0
M  V30 11 C 1.705262 -1.450519 -2.521787 0
M  V30 12 C -0.829427 -0.545902 1.887216 0
M  V30 13 C -0.645862 0.796758 2.113867 0
M  V30 14 C 0.270471 1.868027 1.779587 0
M  V30 15 C 0.853884 2.451865 2.914577 0
M  V30 16 C 1.736761 3.523993 2.889387 0
M  V30 17 N 2.035560 4.017181 1.677491 0
M  V30 18 C 1.526462 3.524079 0.537210 0
M  V30 19 N 1.807205 4.006010 -0.771845 0
M  V30 20 C 0.653140 2.462955 0.567321 0
M  V30 21 C -1.782350 1.153582 2.861181 0
M  V30 22 N -2.571017 0.061437 3.044430 0
M  V30 23 C -1.990859 -1.000479 2.443313 0
M  V30 24 N -2.273103 -2.320815 2.277573 0
M  V30 25 H -2.251178 -4.959116 2.336188 0
M  V30 26 H -2.488181 -4.674066 0.586424 0
M  V30 27 H -0.884977 -5.161255 1.148098 0
M  V30 28 H 1.701852 -0.021434 0.709143 0
M  V30 29 H 3.160168 -1.363366 -0.312353 0
M  V30 30 H 2.444484 -2.700621 0.561078 0
M  V30 31 H 0.804605 -4.243493 -0.818632 0
M  V30 32 H -0.049915 -4.647185 -3.210225 0
M  V30 33 H 2.143990 -0.505143 -2.615602 0
M  V30 34 H 0.657548 2.102809 3.941734 0
M  V30 35 H 2.167680 3.950482 3.770779 0
M  V30 36 H 2.216210 3.370036 -1.515679 0
M  V30 37 H 1.744187 4.884436 -1.335730 0
M  V30 38 H 0.151815 1.944087 -0.247381 0
M  V30 39 H -2.107179 2.114997 3.289900 0
M  V30 40 H -3.478994 0.001213 3.554678 0
M  V30 END ATOM
M  V30 BEGIN BOND
M  V30 1 1 1 2
M  V30 2 2 2 3
M  V30 3 1 3 4
M  V30 4 1 4 5
M  V30 5 1 5 6
M  V30 6 1 6 7
M  V30 7 1 7 8
M  V30 8 2 8 9
M  V30 9 1 9 10
M  V30 10 1 10 11
M  V30 11 2 4 12
M  V30 12 1 12 13
M  V30 13 1 13 14
M  V30 14 2 14 15
M  V30 15 1 15 16
M  V30 16 2 16 17
M  V30 17 1 17 18
M  V30 18 1 18 19
M  V30 19 2 18 20
M  V30 20 2 13 21
M  V30 21 1 21 22
M  V30 22 1 22 23
M  V30 23 2 23 24
M  V30 24 1 24 2
M  V30 25 2 11 7
M  V30 26 1 23 12
M  V30 27 1 20 14
M  V30 28 1 1 25
M  V30 29 1 1 26
M  V30 30 1 1 27
M  V30 31 1 5 28
M  V30 32 1 6 29
M  V30 33 1 6 30
M  V30 34 1 8 31
M  V30 35 1 9 32
M  V30 36 1 11 33
M  V30 37 1 15 34
M  V30 38 1 16 35
M  V30 39 1 19 36
M  V30 40 1 19 37
M  V30 41 1 20 38
M  V30 42 1 21 39
M  V30 43 1 22 40
M  V30 END BOND
M  V30 END CTAB
M  END
>  <Dataset>  (803) 
ChEMBL_Kinases

>  <Ligand_Instance>  (803) 
nan

>  <PDB_ID>  (803) 
nan

>  <Standardized_SMILES>  (803) 
Cc1nc(NCc2ccsc2)c2c(-c3ccnc(N)c3)c[nH]c2n1

>  <Name>  (803) 
nan

>  <Pocket>  (803) 
nan

>  <ATP_Site>  (803) 
nan

>  <Peripheral>  (803) 
nan

>  <Num_H_Atoms_ProtBoundConf>  (803) 
nan

>  <Num_Resolved_Atoms>  (803) 
nan

>  <Num_Not_Resolved_Atoms>  (803) 
nan

$$$$
CHEMBL511337
     RDKit          3D

  0  0  0  0  0  0  0  0  0  0999 V3000
M  V30 BEGIN CTAB
M  V30 COUNTS 35 37 0 0 0
M  V30 BEGIN ATOM
M  V30 1 N 3.252236 -5.026125 4.146608 0
M  V30 2 C 2.060675 -4.311898 3.852662 0
M  V30 3 O 1.082412 -4.285561 4.669553 0
M  V30 4 C 1.910620 -3.577186 2.597290 0
M  V30 5 C 0.735126 -2.898660 2.353552 0
M  V30 6 C 0.565962 -2.193091 1.169312 0
M  V30 7 C 1.581149 -2.172139 0.232512 0
M  V30 8 N 1.450423 -1.461589 -0.996376 0
M  V30 9 C 0.209735 -0.786143 -1.165111 0
M  V30 10 C 0.108555 0.537923 -0.725209 0
M  V30 11 C -1.188806 0.981530 -0.994734 0
M  V30 12 C -1.703233 2.323644 -0.684125 0
M  V30 13 C -0.876757 3.261305 -0.079071 0
M  V30 14 C -1.419923 4.512178 0.190125 0
M  V30 15 C -2.748418 4.805310 -0.139453 0
M  V30 16 F -3.144373 6.076795 0.185175 0
M  V30 17 C -3.567581 3.853107 -0.747328 0
M  V30 18 C -3.015872 2.595351 -1.016193 0
M  V30 19 N -1.813015 -0.057372 -1.571984 0
M  V30 20 N -1.004613 -1.096156 -1.676560 0
M  V30 21 C 2.722902 -2.873705 0.549650 0
M  V30 22 C 2.969879 -3.592660 1.690420 0
M  V30 23 H 3.649760 -5.982242 3.929276 0
M  V30 24 H 3.694286 -5.964606 3.959774 0
M  V30 25 H -0.056943 -2.914569 3.083735 0
M  V30 26 H -0.361389 -1.666960 0.994306 0
M  V30 27 H 2.250790 -1.489220 -1.660276 0
M  V30 28 H 0.844847 1.174009 -0.254920 0
M  V30 29 H 0.143755 3.048310 0.178390 0
M  V30 30 H -0.768517 5.239647 0.662557 0
M  V30 31 H -4.575464 4.168145 -0.964097 0
M  V30 32 H -3.699207 1.911697 -1.483513 0
M  V30 33 H -2.809122 -0.055037 -1.899813 0
M  V30 34 H 3.511008 -2.842324 -0.205912 0
M  V30 35 H 3.903276 -4.113162 1.849071 0
M  V30 END ATOM
M  V30 BEGIN BOND
M  V30 1 1 1 2
M  V30 2 2 2 3
M  V30 3 1 2 4
M  V30 4 2 4 5
M  V30 5 1 5 6
M  V30 6 2 6 7
M  V30 7 1 7 8
M  V30 8 1 8 9
M  V30 9 1 9 10
M  V30 10 2 10 11
M  V30 11 1 11 12
M  V30 12 2 12 13
M  V30 13 1 13 14
M  V30 14 2 14 15
M  V30 15 1 15 16
M  V30 16 1 15 17
M  V30 17 2 17 18
M  V30 18 1 11 19
M  V30 19 1 19 20
M  V30 20 1 7 21
M  V30 21 2 21 22
M  V30 22 1 22 4
M  V30 23 2 20 9
M  V30 24 1 18 12
M  V30 25 1 1 23
M  V30 26 1 1 24
M  V30 27 1 5 25
M  V30 28 1 6 26
M  V30 29 1 8 27
M  V30 30 1 10 28
M  V30 31 1 13 29
M  V30 32 1 14 30
M  V30 33 1 17 31
M  V30 34 1 18 32
M  V30 35 1 19 33
M  V30 36 1 21 34
M  V30 37 1 22 35
M  V30 END BOND
M  V30 END CTAB
M  END
>  <Dataset>  (804) 
ChEMBL_Kinases

>  <Ligand_Instance>  (804) 
nan

>  <PDB_ID>  (804) 
nan

>  <Standardized_SMILES>  (804) 
NC(=O)c1ccc(Nc2cc(-c3ccc(F)cc3)[nH]n2)cc1

>  <Name>  (804) 
nan

>  <Pocket>  (804) 
nan

>  <ATP_Site>  (804) 
nan

>  <Peripheral>  (804) 
nan

>  <Num_H_Atoms_ProtBoundConf>  (804) 
nan

>  <Num_Resolved_Atoms>  (804) 
nan

>  <Num_Not_Resolved_Atoms>  (804) 
nan

$$$$
CHEMBL4128457
     RDKit          3D

  0  0  0  0  0  0  0  0  0  0999 V3000
M  V30 BEGIN CTAB
M  V30 COUNTS 74 79 0 0 0
M  V30 BEGIN ATOM
M  V30 1 C 1.735637 -1.884918 1.648644 0
M  V30 2 C 2.575219 -2.987800 1.170365 0 CFG=2
M  V30 3 C 3.431253 -3.629396 2.261786 0
M  V30 4 C 3.736851 -5.013452 1.751359 0
M  V30 5 O 3.448188 -6.145630 2.233963 0
M  V30 6 N 4.478457 -4.980335 0.511923 0
M  V30 7 C 4.248401 -3.868070 -0.344672 0
M  V30 8 N 4.977881 -3.836566 -1.470695 0
M  V30 9 C 4.869008 -2.812883 -2.334055 0
M  V30 10 N 3.996275 -1.835634 -2.003278 0
M  V30 11 C 3.249085 -1.834935 -0.882786 0
M  V30 12 N 2.498744 -0.633961 -0.866048 0
M  V30 13 C 2.395885 0.662904 -0.228487 0
M  V30 14 C 1.029901 1.143710 0.087291 0
M  V30 15 C 0.082526 1.231763 -1.049645 0
M  V30 16 C -1.203923 0.559594 -0.864514 0
M  V30 17 N -1.356499 -0.742054 -0.547976 0
M  V30 18 C -2.664737 -1.037430 -0.479534 0
M  V30 19 C -3.249872 -2.335630 -0.166040 0
M  V30 20 C -4.625994 -2.496243 -0.130710 0
M  V30 21 C -5.179763 -3.745091 0.170322 0
M  V30 22 C -4.330267 -4.816724 0.432098 0
M  V30 23 F -4.784612 -6.065645 0.733526 0
M  V30 24 C -2.965426 -4.631934 0.390836 0
M  V30 25 C -2.049604 -5.784644 0.671175 0
M  V30 26 F -2.247382 -6.292041 1.921784 0
M  V30 27 F -2.392727 -6.765956 -0.267779 0
M  V30 28 F -0.742365 -5.445124 0.408319 0
M  V30 29 C -2.407550 -3.405369 0.095226 0
M  V30 30 C -3.281144 0.135632 -0.765818 0
M  V30 31 N -2.400137 1.155895 -1.011232 0
M  V30 32 C -2.874821 2.465087 -1.298310 0
M  V30 33 C -3.223648 3.332442 -0.145604 0
M  V30 34 N -2.274818 3.689571 0.797807 0
M  V30 35 C -1.215943 4.561295 0.508573 0
M  V30 36 C -0.390776 4.632655 1.799139 0
M  V30 37 C -1.147478 3.792296 2.797845 0
M  V30 38 C -1.946360 2.862845 1.878781 0
M  V30 39 C 0.864979 0.613598 -2.226020 0
M  V30 40 C 1.416147 -0.716351 -1.863353 0
M  V30 41 C 3.361836 -2.863113 -0.025052 0
M  V30 42 H 1.013095 -1.638158 0.842166 0
M  V30 43 H 2.213025 -1.047484 2.147682 0
M  V30 44 H 1.047223 -2.311529 2.455078 0
M  V30 45 H 1.834906 -3.840072 0.942116 0
M  V30 46 H 4.382015 -3.132445 2.431930 0
M  V30 47 H 2.885156 -3.677014 3.218849 0
M  V30 48 H 5.157486 -5.742879 0.242942 0
M  V30 49 H 5.485200 -2.850999 -3.222057 0
M  V30 50 H 2.994295 0.621407 0.703283 0
M  V30 51 H 2.963580 1.384625 -0.880232 0
M  V30 52 H 1.194550 2.215665 0.439824 0
M  V30 53 H 0.594930 0.683487 1.005234 0
M  V30 54 H -0.069941 2.286164 -1.360563 0
M  V30 55 H -5.302808 -1.676169 -0.331244 0
M  V30 56 H -6.242627 -3.946676 0.216719 0
M  V30 57 H -1.341893 -3.249444 0.060756 0
M  V30 58 H -4.375008 0.182818 -0.779907 0
M  V30 59 H -2.193975 3.052320 -1.953221 0
M  V30 60 H -3.814104 2.370535 -1.920307 0
M  V30 61 H -4.142159 2.972199 0.397664 0
M  V30 62 H -3.614138 4.300956 -0.615804 0
M  V30 63 H -0.534147 4.312429 -0.303090 0
M  V30 64 H -1.637764 5.602897 0.392796 0
M  V30 65 H 0.605182 4.184638 1.662240 0
M  V30 66 H -0.239087 5.662752 2.139448 0
M  V30 67 H -1.865754 4.356572 3.398793 0
M  V30 68 H -0.465709 3.173118 3.428434 0
M  V30 69 H -2.809442 2.443334 2.436595 0
M  V30 70 H -1.257096 2.071302 1.595885 0
M  V30 71 H 0.170684 0.507844 -3.074377 0
M  V30 72 H 1.685718 1.298205 -2.464709 0
M  V30 73 H 0.672049 -1.464785 -1.525988 0
M  V30 74 H 1.802342 -1.153179 -2.834625 0
M  V30 END ATOM
M  V30 BEGIN BOND
M  V30 1 1 1 2
M  V30 2 1 2 3
M  V30 3 1 3 4
M  V30 4 2 4 5
M  V30 5 1 4 6
M  V30 6 1 6 7
M  V30 7 2 7 8
M  V30 8 1 8 9
M  V30 9 2 9 10
M  V30 10 1 10 11
M  V30 11 1 11 12
M  V30 12 1 12 13
M  V30 13 1 13 14
M  V30 14 1 14 15
M  V30 15 1 15 16
M  V30 16 2 16 17
M  V30 17 1 17 18
M  V30 18 1 18 19
M  V30 19 2 19 20
M  V30 20 1 20 21
M  V30 21 2 21 22
M  V30 22 1 22 23
M  V30 23 1 22 24
M  V30 24 1 24 25
M  V30 25 1 25 26
M  V30 26 1 25 27
M  V30 27 1 25 28
M  V30 28 2 24 29
M  V30 29 2 18 30
M  V30 30 1 30 31
M  V30 31 1 31 32
M  V30 32 1 32 33
M  V30 33 1 33 34
M  V30 34 1 34 35
M  V30 35 1 35 36
M  V30 36 1 36 37
M  V30 37 1 37 38
M  V30 38 1 15 39
M  V30 39 1 39 40
M  V30 40 2 11 41
M  V30 41 1 41 2
M  V30 42 1 41 7
M  V30 43 1 40 12
M  V30 44 1 31 16
M  V30 45 1 38 34
M  V30 46 1 29 19
M  V30 47 1 1 42
M  V30 48 1 1 43
M  V30 49 1 1 44
M  V30 50 1 2 45 CFG=3
M  V30 51 1 3 46
M  V30 52 1 3 47
M  V30 53 1 6 48
M  V30 54 1 9 49
M  V30 55 1 13 50
M  V30 56 1 13 51
M  V30 57 1 14 52
M  V30 58 1 14 53
M  V30 59 1 15 54
M  V30 60 1 20 55
M  V30 61 1 21 56
M  V30 62 1 29 57
M  V30 63 1 30 58
M  V30 64 1 32 59
M  V30 65 1 32 60
M  V30 66 1 33 61
M  V30 67 1 33 62
M  V30 68 1 35 63
M  V30 69 1 35 64
M  V30 70 1 36 65
M  V30 71 1 36 66
M  V30 72 1 37 67
M  V30 73 1 37 68
M  V30 74 1 38 69
M  V30 75 1 38 70
M  V30 76 1 39 71
M  V30 77 1 39 72
M  V30 78 1 40 73
M  V30 79 1 40 74
M  V30 END BOND
M  V30 END CTAB
M  END
>  <Dataset>  (805) 
ChEMBL_Kinases

>  <Ligand_Instance>  (805) 
nan

>  <PDB_ID>  (805) 
nan

>  <Standardized_SMILES>  (805) 
C[C@@H]1CC(=O)Nc2ncnc(N3CCC(c4nc(-c5ccc(F)c(C(F)(F)F)c5)cn4CCN4CCCC4)CC3)c21

>  <Name>  (805) 
nan

>  <Pocket>  (805) 
nan

>  <ATP_Site>  (805) 
nan

>  <Peripheral>  (805) 
nan

>  <Num_H_Atoms_ProtBoundConf>  (805) 
nan

>  <Num_Resolved_Atoms>  (805) 
nan

>  <Num_Not_Resolved_Atoms>  (805) 
nan

$$$$
CHEMBL5070887
     RDKit          3D

  0  0  0  0  0  0  0  0  0  0999 V3000
M  V30 BEGIN CTAB
M  V30 COUNTS 55 59 0 0 0
M  V30 BEGIN ATOM
M  V30 1 C 0.161992 2.018307 3.340253 0
M  V30 2 C 1.219632 2.362984 2.373843 0
M  V30 3 C 2.192851 3.312502 2.647193 0
M  V30 4 N 3.144919 3.588943 1.715139 0
M  V30 5 C 3.136358 2.935581 0.526903 0
M  V30 6 N 4.122073 3.207063 -0.463863 0
M  V30 7 C 5.388041 2.593458 -0.672555 0
M  V30 8 C 6.286413 2.943511 -1.687020 0
M  V30 9 C 7.354347 2.091525 -1.495210 0
M  V30 10 N 7.103242 1.303410 -0.450853 0
M  V30 11 N 5.917247 1.595148 0.057507 0
M  V30 12 C 5.297680 0.948274 1.203622 0
M  V30 13 N 2.191100 2.029696 0.291426 0
M  V30 14 C 1.215346 1.699211 1.159992 0
M  V30 15 C 0.240530 0.684707 0.770482 0
M  V30 16 C 0.635028 -0.511092 0.156871 0
M  V30 17 C -0.533975 -1.233684 -0.072699 0
M  V30 18 N -1.595546 -0.536140 0.368709 0
M  V30 19 C -1.131664 0.634042 0.883876 0
M  V30 20 C -2.740931 -1.349564 0.093337 0
M  V30 21 O -3.880388 -0.928567 0.409838 0
M  V30 22 N -2.334199 -2.560683 -0.528775 0
M  V30 23 C -3.294741 -3.574023 -0.918516 0 CFG=2
M  V30 24 C -4.147106 -3.077474 -2.057826 0
M  V30 25 O -4.877031 -1.952570 -1.803662 0
M  V30 26 C -4.028672 -4.176751 0.191104 0
M  V30 27 C -3.236782 -4.520773 1.279449 0
M  V30 28 C -3.795955 -5.101966 2.404495 0
M  V30 29 C -5.159766 -5.365541 2.497079 0
M  V30 30 C -5.934233 -5.014494 1.399170 0
M  V30 31 Cl -7.675585 -5.315889 1.436596 0
M  V30 32 C -5.386540 -4.432377 0.267666 0
M  V30 33 C -0.889336 -2.549365 -0.668635 0
M  V30 34 H -0.685531 2.698686 3.378857 0
M  V30 35 H 0.637251 2.066951 4.358985 0
M  V30 36 H -0.203325 0.984997 3.232355 0
M  V30 37 H 2.181251 3.831477 3.618899 0
M  V30 38 H 3.797281 3.976097 -1.086303 0
M  V30 39 H 6.185029 3.695946 -2.445446 0
M  V30 40 H 8.269144 2.009006 -2.044346 0
M  V30 41 H 5.982332 0.161531 1.593905 0
M  V30 42 H 5.108155 1.622832 2.044903 0
M  V30 43 H 4.379063 0.391345 0.897857 0
M  V30 44 H 1.670665 -0.797984 -0.084772 0
M  V30 45 H -1.711058 1.411696 1.315309 0
M  V30 46 H -2.682360 -4.403941 -1.378294 0
M  V30 47 H -4.826916 -3.867506 -2.435917 0
M  V30 48 H -3.440855 -2.862759 -2.900491 0
M  V30 49 H -5.757666 -1.934821 -2.224681 0
M  V30 50 H -2.148169 -4.381742 1.369617 0
M  V30 51 H -3.233848 -5.394787 3.288751 0
M  V30 52 H -5.595170 -5.818992 3.375281 0
M  V30 53 H -5.959764 -4.146576 -0.604728 0
M  V30 54 H -0.399601 -3.362680 -0.083184 0
M  V30 55 H -0.585174 -2.567121 -1.734247 0
M  V30 END ATOM
M  V30 BEGIN BOND
M  V30 1 1 1 2
M  V30 2 2 2 3
M  V30 3 1 3 4
M  V30 4 2 4 5
M  V30 5 1 5 6
M  V30 6 1 6 7
M  V30 7 2 7 8
M  V30 8 1 8 9
M  V30 9 2 9 10
M  V30 10 1 10 11
M  V30 11 1 11 12
M  V30 12 1 5 13
M  V30 13 2 13 14
M  V30 14 1 14 15
M  V30 15 1 15 16
M  V30 16 2 16 17
M  V30 17 1 17 18
M  V30 18 1 18 19
M  V30 19 1 18 20
M  V30 20 2 20 21
M  V30 21 1 20 22
M  V30 22 1 22 23
M  V30 23 1 23 24
M  V30 24 1 24 25
M  V30 25 1 23 26
M  V30 26 2 26 27
M  V30 27 1 27 28
M  V30 28 2 28 29
M  V30 29 1 29 30
M  V30 30 1 30 31
M  V30 31 2 30 32
M  V30 32 1 22 33
M  V30 33 1 14 2
M  V30 34 2 19 15
M  V30 35 1 32 26
M  V30 36 1 11 7
M  V30 37 1 33 17
M  V30 38 1 1 34
M  V30 39 1 1 35
M  V30 40 1 1 36
M  V30 41 1 3 37
M  V30 42 1 6 38
M  V30 43 1 8 39
M  V30 44 1 9 40
M  V30 45 1 12 41
M  V30 46 1 12 42
M  V30 47 1 12 43
M  V30 48 1 16 44
M  V30 49 1 19 45
M  V30 50 1 23 46 CFG=3
M  V30 51 1 24 47
M  V30 52 1 24 48
M  V30 53 1 25 49
M  V30 54 1 27 50
M  V30 55 1 28 51
M  V30 56 1 29 52
M  V30 57 1 32 53
M  V30 58 1 33 54
M  V30 59 1 33 55
M  V30 END BOND
M  V30 END CTAB
M  END
>  <Dataset>  (806) 
ChEMBL_Kinases

>  <Ligand_Instance>  (806) 
nan

>  <PDB_ID>  (806) 
nan

>  <Standardized_SMILES>  (806) 
Cc1cnc(Nc2ccnn2C)nc1-c1cc2n(c1)C(=O)N([C@H](CO)c1cccc(Cl)c1)C2

>  <Name>  (806) 
nan

>  <Pocket>  (806) 
nan

>  <ATP_Site>  (806) 
nan

>  <Peripheral>  (806) 
nan

>  <Num_H_Atoms_ProtBoundConf>  (806) 
nan

>  <Num_Resolved_Atoms>  (806) 
nan

>  <Num_Not_Resolved_Atoms>  (806) 
nan

$$$$
CHEMBL4290222
     RDKit          3D

  0  0  0  0  0  0  0  0  0  0999 V3000
M  V30 BEGIN CTAB
M  V30 COUNTS 65 69 0 0 0
M  V30 BEGIN ATOM
M  V30 1 C -1.451413 2.956458 4.336239 0
M  V30 2 C -0.529721 1.878438 4.712830 0
M  V30 3 O -0.975892 1.062049 5.563522 0
M  V30 4 N 0.789108 1.722791 4.181156 0
M  V30 5 C 1.513834 0.578904 4.705180 0
M  V30 6 C 2.937186 0.548417 4.257984 0
M  V30 7 N 3.116326 1.147099 2.940042 0
M  V30 8 C 2.394124 0.415935 1.923467 0 CFG=1
M  V30 9 C 2.557908 0.952145 0.536615 0
M  V30 10 C 1.776116 0.226832 -0.491656 0
M  V30 11 C 1.608708 -1.237004 -0.330312 0 CFG=2
M  V30 12 N 0.356953 -1.668004 -0.917287 0
M  V30 13 C -0.840905 -1.115648 -0.403850 0
M  V30 14 N -0.810543 -0.213497 0.569957 0
M  V30 15 C -1.863943 0.382897 1.100826 0
M  V30 16 N -3.058944 0.056571 0.623916 0
M  V30 17 N -3.198965 -0.830075 -0.343671 0
M  V30 18 C -4.300503 -1.287947 -0.960297 0
M  V30 19 C -3.886710 -2.204038 -1.903453 0
M  V30 20 C -2.496322 -2.287621 -1.838532 0
M  V30 21 C -1.764482 -3.233596 -2.690119 0
M  V30 22 C -2.629862 -4.422426 -3.063216 0
M  V30 23 C -3.217070 -4.335791 -4.415937 0
M  V30 24 O -2.520284 -3.642000 -5.368145 0
M  V30 25 C -2.229472 -2.334539 -4.910027 0
M  V30 26 C -1.160701 -2.548176 -3.865855 0
M  V30 27 C -2.099836 -1.411637 -0.852222 0
M  V30 28 C 1.645235 -1.727661 1.088593 0
M  V30 29 C 2.723494 -1.038861 1.902501 0
M  V30 30 C 2.715942 2.545202 2.977047 0
M  V30 31 C 1.244682 2.698420 3.204627 0
M  V30 32 H -2.406596 2.532849 3.910538 0
M  V30 33 H -1.714563 3.504705 5.286787 0
M  V30 34 H -1.040796 3.664256 3.579902 0
M  V30 35 H 1.027419 -0.371482 4.404282 0
M  V30 36 H 1.413446 0.658369 5.820029 0
M  V30 37 H 3.487339 1.254121 4.948886 0
M  V30 38 H 3.447519 -0.402062 4.356162 0
M  V30 39 H 1.314672 0.495535 2.216154 0
M  V30 40 H 2.199797 2.022844 0.547507 0
M  V30 41 H 3.648959 1.013550 0.302914 0
M  V30 42 H 2.353475 0.373430 -1.464824 0
M  V30 43 H 0.835078 0.798876 -0.704177 0
M  V30 44 H 2.510792 -1.731064 -0.815726 0
M  V30 45 H 0.640431 -2.327594 -1.647104 0
M  V30 46 H -1.652432 1.099774 1.894630 0
M  V30 47 H -5.315896 -0.948958 -0.706696 0
M  V30 48 H -4.640661 -2.684536 -2.505897 0
M  V30 49 H -0.923570 -3.725699 -2.105006 0
M  V30 50 H -3.487544 -4.421659 -2.326970 0
M  V30 51 H -2.125027 -5.388193 -2.889161 0
M  V30 52 H -3.280677 -5.398413 -4.806358 0
M  V30 53 H -4.270922 -3.984305 -4.471319 0
M  V30 54 H -1.890821 -1.707928 -5.752280 0
M  V30 55 H -3.153723 -1.889195 -4.452787 0
M  V30 56 H -0.425924 -3.272365 -4.319944 0
M  V30 57 H -0.667754 -1.611130 -3.561783 0
M  V30 58 H 0.674897 -1.681912 1.572297 0
M  V30 59 H 1.943113 -2.812718 1.065593 0
M  V30 60 H 2.777825 -1.548903 2.859794 0
M  V30 61 H 3.669483 -1.194654 1.304826 0
M  V30 62 H 3.266846 3.032062 3.819795 0
M  V30 63 H 3.003432 3.018460 2.041410 0
M  V30 64 H 1.077891 3.707151 3.664360 0
M  V30 65 H 0.679380 2.685347 2.269034 0
M  V30 END ATOM
M  V30 BEGIN BOND
M  V30 1 1 1 2
M  V30 2 2 2 3
M  V30 3 1 2 4
M  V30 4 1 4 5
M  V30 5 1 5 6
M  V30 6 1 6 7
M  V30 7 1 7 8
M  V30 8 1 8 9
M  V30 9 1 9 10
M  V30 10 1 10 11
M  V30 11 1 11 12
M  V30 12 1 12 13
M  V30 13 2 13 14
M  V30 14 1 14 15
M  V30 15 2 15 16
M  V30 16 1 16 17
M  V30 17 1 17 18
M  V30 18 2 18 19
M  V30 19 1 19 20
M  V30 20 1 20 21
M  V30 21 1 21 22
M  V30 22 1 22 23
M  V30 23 1 23 24
M  V30 24 1 24 25
M  V30 25 1 25 26
M  V30 26 2 20 27
M  V30 27 1 11 28
M  V30 28 1 28 29
M  V30 29 1 7 30
M  V30 30 1 30 31
M  V30 31 1 31 4
M  V30 32 1 29 8
M  V30 33 1 27 13
M  V30 34 1 27 17
M  V30 35 1 26 21
M  V30 36 1 1 32
M  V30 37 1 1 33
M  V30 38 1 1 34
M  V30 39 1 5 35
M  V30 40 1 5 36
M  V30 41 1 6 37
M  V30 42 1 6 38
M  V30 43 1 8 39 CFG=1
M  V30 44 1 9 40
M  V30 45 1 9 41
M  V30 46 1 10 42
M  V30 47 1 10 43
M  V30 48 1 11 44 CFG=3
M  V30 49 1 12 45
M  V30 50 1 15 46
M  V30 51 1 18 47
M  V30 52 1 19 48
M  V30 53 1 21 49
M  V30 54 1 22 50
M  V30 55 1 22 51
M  V30 56 1 23 52
M  V30 57 1 23 53
M  V30 58 1 25 54
M  V30 59 1 25 55
M  V30 60 1 26 56
M  V30 61 1 26 57
M  V30 62 1 28 58
M  V30 63 1 28 59
M  V30 64 1 29 60
M  V30 65 1 29 61
M  V30 66 1 30 62
M  V30 67 1 30 63
M  V30 68 1 31 64
M  V30 69 1 31 65
M  V30 END BOND
M  V30 END CTAB
M  END
>  <Dataset>  (807) 
ChEMBL_Kinases

>  <Ligand_Instance>  (807) 
nan

>  <PDB_ID>  (807) 
nan

>  <Standardized_SMILES>  (807) 
CC(=O)N1CCN([C@H]2CC[C@H](Nc3ncnn4ccc(C5CCOCC5)c34)CC2)CC1

>  <Name>  (807) 
nan

>  <Pocket>  (807) 
nan

>  <ATP_Site>  (807) 
nan

>  <Peripheral>  (807) 
nan

>  <Num_H_Atoms_ProtBoundConf>  (807) 
nan

>  <Num_Resolved_Atoms>  (807) 
nan

>  <Num_Not_Resolved_Atoms>  (807) 
nan

$$$$
CHEMBL156563
     RDKit          3D

  0  0  0  0  0  0  0  0  0  0999 V3000
M  V30 BEGIN CTAB
M  V30 COUNTS 36 38 0 0 0
M  V30 BEGIN ATOM
M  V30 1 C 0.385516 -6.130473 0.577342 0
M  V30 2 S 2.015398 -5.336338 0.614097 0
M  V30 3 C 1.807733 -3.595947 0.952889 0
M  V30 4 C 1.801704 -3.141551 2.272153 0
M  V30 5 C 1.644614 -1.788306 2.574092 0
M  V30 6 C 1.489249 -0.856241 1.557537 0
M  V30 7 N 1.325596 0.491656 2.021126 0
M  V30 8 C -0.074631 0.729000 1.959135 0
M  V30 9 C -0.747959 1.258587 0.932303 0
M  V30 10 C -0.468848 1.773747 -0.397538 0
M  V30 11 C -1.238853 1.401870 -1.505330 0
M  V30 12 C -0.978847 1.915063 -2.782021 0
M  V30 13 C 0.061732 2.804818 -2.934531 0
M  V30 14 C 0.870083 3.220673 -1.880242 0
M  V30 15 C 0.567640 2.682422 -0.643501 0
M  V30 16 Cl 1.597547 3.257218 0.676473 0
M  V30 17 C -2.146729 1.308994 1.339702 0
M  V30 18 O -3.212320 1.706995 0.775501 0
M  V30 19 N -2.287447 0.786281 2.659640 0
M  V30 20 C -0.995769 0.412296 3.077429 0
M  V30 21 O -0.602440 -0.100796 4.169370 0
M  V30 22 C 1.494696 -1.298563 0.252027 0
M  V30 23 C 1.650486 -2.636122 -0.033428 0
M  V30 24 H -0.232945 -5.719907 1.417023 0
M  V30 25 H 0.473379 -7.234379 0.819418 0
M  V30 26 H -0.121292 -6.019398 -0.395690 0
M  V30 27 H 1.926831 -3.910280 3.036406 0
M  V30 28 H 1.666366 -1.604155 3.643132 0
M  V30 29 H 2.262130 0.865298 2.256525 0
M  V30 30 H -2.059357 0.703101 -1.407848 0
M  V30 31 H -1.593297 1.611162 -3.640343 0
M  V30 32 H 0.306937 3.236733 -3.913132 0
M  V30 33 H 1.687350 3.924608 -2.025146 0
M  V30 34 H -3.078905 0.638611 3.317582 0
M  V30 35 H 1.371161 -0.530151 -0.473708 0
M  V30 36 H 1.647157 -2.953398 -1.073459 0
M  V30 END ATOM
M  V30 BEGIN BOND
M  V30 1 1 1 2
M  V30 2 1 2 3
M  V30 3 2 3 4
M  V30 4 1 4 5
M  V30 5 2 5 6
M  V30 6 1 6 7
M  V30 7 1 7 8
M  V30 8 2 8 9
M  V30 9 1 9 10
M  V30 10 2 10 11
M  V30 11 1 11 12
M  V30 12 2 12 13
M  V30 13 1 13 14
M  V30 14 2 14 15
M  V30 15 1 15 16
M  V30 16 1 9 17
M  V30 17 2 17 18
M  V30 18 1 17 19
M  V30 19 1 19 20
M  V30 20 2 20 21
M  V30 21 1 6 22
M  V30 22 2 22 23
M  V30 23 1 23 3
M  V30 24 1 20 8
M  V30 25 1 15 10
M  V30 26 1 1 24
M  V30 27 1 1 25
M  V30 28 1 1 26
M  V30 29 1 4 27
M  V30 30 1 5 28
M  V30 31 1 7 29
M  V30 32 1 11 30
M  V30 33 1 12 31
M  V30 34 1 13 32
M  V30 35 1 14 33
M  V30 36 1 19 34
M  V30 37 1 22 35
M  V30 38 1 23 36
M  V30 END BOND
M  V30 END CTAB
M  END
>  <Dataset>  (808) 
ChEMBL_Kinases

>  <Ligand_Instance>  (808) 
nan

>  <PDB_ID>  (808) 
nan

>  <Standardized_SMILES>  (808) 
CSc1ccc(NC2=C(c3ccccc3Cl)C(=O)NC2=O)cc1

>  <Name>  (808) 
nan

>  <Pocket>  (808) 
nan

>  <ATP_Site>  (808) 
nan

>  <Peripheral>  (808) 
nan

>  <Num_H_Atoms_ProtBoundConf>  (808) 
nan

>  <Num_Resolved_Atoms>  (808) 
nan

>  <Num_Not_Resolved_Atoms>  (808) 
nan

$$$$
CHEMBL3408213
     RDKit          3D

  0  0  0  0  0  0  0  0  0  0999 V3000
M  V30 BEGIN CTAB
M  V30 COUNTS 54 58 0 0 0
M  V30 BEGIN ATOM
M  V30 1 C 1.500962 -3.293892 6.597233 0
M  V30 2 N 2.130484 -3.012016 5.310103 0
M  V30 3 C 1.684703 -2.311638 4.250621 0
M  V30 4 C 2.670605 -2.341047 3.267229 0
M  V30 5 C 2.486072 -1.663740 1.981925 0
M  V30 6 C 1.715426 -0.498644 1.976314 0
M  V30 7 C 1.488900 0.204552 0.814848 0
M  V30 8 C 2.015121 -0.217619 -0.384379 0
M  V30 9 C 1.961737 0.266894 -1.752469 0
M  V30 10 C 3.095914 0.434532 -2.522475 0
M  V30 11 N 3.035936 0.887407 -3.787421 0
M  V30 12 C 1.851387 1.201097 -4.365484 0
M  V30 13 C 0.684739 1.041312 -3.609527 0
M  V30 14 Cl -0.763825 1.483173 -4.479677 0
M  V30 15 C 0.747517 0.578193 -2.316275 0
M  V30 16 N -0.551757 0.493303 -1.740010 0
M  V30 17 C -1.344855 1.480811 -0.996419 0
M  V30 18 C -2.061704 0.833904 0.137095 0
M  V30 19 C -2.913382 -0.307096 -0.297138 0
M  V30 20 C -4.358752 0.104391 -0.501596 0
M  V30 21 C -4.909352 0.109404 0.887612 0
M  V30 22 N -4.344207 -1.053563 1.530810 0
M  V30 23 C -3.069582 -1.193484 0.912842 0
M  V30 24 O -2.132120 -1.954070 1.284049 0
M  V30 25 C -2.414096 -1.125256 -1.423812 0
M  V30 26 C -1.082975 -0.807976 -1.984450 0
M  V30 27 C 2.789252 -1.387882 -0.378762 0
M  V30 28 C 3.033564 -2.120052 0.791139 0
M  V30 29 C 3.716716 -3.089038 3.792782 0
M  V30 30 N 3.333493 -3.466984 5.027435 0
M  V30 31 H 2.134335 -2.926502 7.421672 0
M  V30 32 H 1.258042 -4.367796 6.685845 0
M  V30 33 H 0.553485 -2.708486 6.590076 0
M  V30 34 H 0.712184 -1.859875 4.294717 0
M  V30 35 H 1.251109 -0.069768 2.854553 0
M  V30 36 H 0.931599 1.102903 0.673984 0
M  V30 37 H 4.061034 0.202548 -2.118602 0
M  V30 38 H 1.912054 1.557969 -5.390179 0
M  V30 39 H -2.046701 1.950768 -1.712326 0
M  V30 40 H -0.711621 2.292193 -0.614477 0
M  V30 41 H -2.751866 1.598477 0.578439 0
M  V30 42 H -1.385736 0.552216 0.949506 0
M  V30 43 H -4.823235 -0.669545 -1.151531 0
M  V30 44 H -4.367406 1.105343 -0.983929 0
M  V30 45 H -6.024350 0.063645 0.848823 0
M  V30 46 H -4.567310 1.055433 1.381930 0
M  V30 47 H -4.704833 -1.693724 2.271557 0
M  V30 48 H -3.149601 -0.997696 -2.274594 0
M  V30 49 H -2.518277 -2.227759 -1.188808 0
M  V30 50 H -1.030026 -1.025710 -3.084428 0
M  V30 51 H -0.361687 -1.557807 -1.537819 0
M  V30 52 H 3.297705 -1.895531 -1.214473 0
M  V30 53 H 3.604427 -3.009758 0.879858 0
M  V30 54 H 4.621712 -3.269964 3.226757 0
M  V30 END ATOM
M  V30 BEGIN BOND
M  V30 1 1 1 2
M  V30 2 1 2 3
M  V30 3 2 3 4
M  V30 4 1 4 5
M  V30 5 2 5 6
M  V30 6 1 6 7
M  V30 7 2 7 8
M  V30 8 1 8 9
M  V30 9 2 9 10
M  V30 10 1 10 11
M  V30 11 2 11 12
M  V30 12 1 12 13
M  V30 13 1 13 14
M  V30 14 2 13 15
M  V30 15 1 15 16
M  V30 16 1 16 17
M  V30 17 1 17 18
M  V30 18 1 18 19
M  V30 19 1 19 20
M  V30 20 1 20 21
M  V30 21 1 21 22
M  V30 22 1 22 23
M  V30 23 2 23 24
M  V30 24 1 19 25
M  V30 25 1 25 26
M  V30 26 1 8 27
M  V30 27 2 27 28
M  V30 28 1 4 29
M  V30 29 2 29 30
M  V30 30 1 30 2
M  V30 31 1 28 5
M  V30 32 1 15 9
M  V30 33 1 26 16
M  V30 34 1 23 19
M  V30 35 1 1 31
M  V30 36 1 1 32
M  V30 37 1 1 33
M  V30 38 1 3 34
M  V30 39 1 6 35
M  V30 40 1 7 36
M  V30 41 1 10 37
M  V30 42 1 12 38
M  V30 43 1 17 39
M  V30 44 1 17 40
M  V30 45 1 18 41
M  V30 46 1 18 42
M  V30 47 1 20 43
M  V30 48 1 20 44
M  V30 49 1 21 45
M  V30 50 1 21 46
M  V30 51 1 22 47
M  V30 52 1 25 48
M  V30 53 1 25 49
M  V30 54 1 26 50
M  V30 55 1 26 51
M  V30 56 1 27 52
M  V30 57 1 28 53
M  V30 58 1 29 54
M  V30 END BOND
M  V30 END CTAB
M  END
>  <Dataset>  (809) 
ChEMBL_Kinases

>  <Ligand_Instance>  (809) 
nan

>  <PDB_ID>  (809) 
nan

>  <Standardized_SMILES>  (809) 
Cn1cc(-c2ccc(-c3cncc(Cl)c3N3CCC4(CCNC4=O)CC3)cc2)cn1

>  <Name>  (809) 
nan

>  <Pocket>  (809) 
nan

>  <ATP_Site>  (809) 
nan

>  <Peripheral>  (809) 
nan

>  <Num_H_Atoms_ProtBoundConf>  (809) 
nan

>  <Num_Resolved_Atoms>  (809) 
nan

>  <Num_Not_Resolved_Atoms>  (809) 
nan

$$$$
CHEMBL3116050
     RDKit          3D

  0  0  0  0  0  0  0  0  0  0999 V3000
M  V30 BEGIN CTAB
M  V30 COUNTS 42 45 0 0 0
M  V30 BEGIN ATOM
M  V30 1 C -1.478144 -4.509694 2.373419 0
M  V30 2 C -1.077028 -3.050823 2.435009 0 CFG=2
M  V30 3 N -1.890679 -2.233771 1.537917 0
M  V30 4 C -1.521153 -0.862952 1.611368 0
M  V30 5 N -0.559511 -0.270791 0.841553 0
M  V30 6 C -0.287868 1.038218 0.991463 0
M  V30 7 N 0.697111 1.673530 0.213654 0
M  V30 8 C 1.537653 1.146623 -0.798343 0
M  V30 9 C 1.522901 0.978160 -2.166624 0
M  V30 10 N 2.665140 0.387901 -2.561951 0
M  V30 11 C 2.948726 0.078048 -3.938441 0
M  V30 12 C 3.407480 0.179584 -1.451525 0
M  V30 13 N 2.726832 0.640397 -0.365008 0
M  V30 14 C -0.970252 1.797459 1.917003 0
M  V30 15 C -0.888283 3.130143 2.263180 0
M  V30 16 C -1.817533 3.337620 3.257503 0
M  V30 17 N -2.430991 2.163552 3.492807 0
M  V30 18 C -1.942300 1.196764 2.694485 0
M  V30 19 N -2.200896 -0.121032 2.528827 0
M  V30 20 C 0.350094 -2.881663 1.998488 0
M  V30 21 N 1.412319 -2.666198 2.786015 0
M  V30 22 C 2.632140 -2.539939 2.201005 0
M  V30 23 C 2.751950 -2.635772 0.811147 0
M  V30 24 F 3.999316 -2.501303 0.283051 0
M  V30 25 C 1.653682 -2.857552 0.008072 0
M  V30 26 N 0.492906 -2.970968 0.648138 0
M  V30 27 H -0.895383 -5.073567 1.634806 0
M  V30 28 H -2.577758 -4.573220 2.228049 0
M  V30 29 H -1.265087 -4.956580 3.378952 0
M  V30 30 H -1.248814 -2.660207 3.457849 0
M  V30 31 H -2.623093 -2.692955 0.959952 0
M  V30 32 H 0.925673 2.679974 0.313178 0
M  V30 33 H 0.648080 1.324807 -2.689389 0
M  V30 34 H 2.408605 0.778302 -4.615574 0
M  V30 35 H 4.027967 0.203283 -4.174903 0
M  V30 36 H 2.629310 -0.944862 -4.187937 0
M  V30 37 H 4.373656 -0.284535 -1.511624 0
M  V30 38 H -0.239726 3.889938 1.859473 0
M  V30 39 H -2.081339 4.237658 3.809863 0
M  V30 40 H -3.186838 1.930576 4.172232 0
M  V30 41 H 3.491771 -2.364039 2.855622 0
M  V30 42 H 1.744258 -2.932661 -1.071048 0
M  V30 END ATOM
M  V30 BEGIN BOND
M  V30 1 1 1 2
M  V30 2 1 2 3
M  V30 3 1 3 4
M  V30 4 2 4 5
M  V30 5 1 5 6
M  V30 6 1 6 7
M  V30 7 1 7 8
M  V30 8 2 8 9
M  V30 9 1 9 10
M  V30 10 1 10 11
M  V30 11 1 10 12
M  V30 12 2 12 13
M  V30 13 2 6 14
M  V30 14 1 14 15
M  V30 15 2 15 16
M  V30 16 1 16 17
M  V30 17 1 17 18
M  V30 18 2 18 19
M  V30 19 1 2 20
M  V30 20 2 20 21
M  V30 21 1 21 22
M  V30 22 2 22 23
M  V30 23 1 23 24
M  V30 24 1 23 25
M  V30 25 2 25 26
M  V30 26 1 19 4
M  V30 27 1 26 20
M  V30 28 1 13 8
M  V30 29 1 18 14
M  V30 30 1 1 27
M  V30 31 1 1 28
M  V30 32 1 1 29
M  V30 33 1 2 30 CFG=1
M  V30 34 1 3 31
M  V30 35 1 7 32
M  V30 36 1 9 33
M  V30 37 1 11 34
M  V30 38 1 11 35
M  V30 39 1 11 36
M  V30 40 1 12 37
M  V30 41 1 15 38
M  V30 42 1 16 39
M  V30 43 1 17 40
M  V30 44 1 22 41
M  V30 45 1 25 42
M  V30 END BOND
M  V30 END CTAB
M  END
>  <Dataset>  (810) 
ChEMBL_Kinases

>  <Ligand_Instance>  (810) 
nan

>  <PDB_ID>  (810) 
nan

>  <Standardized_SMILES>  (810) 
C[C@H](Nc1nc(Nc2cn(C)cn2)c2cc[nH]c2n1)c1ncc(F)cn1

>  <Name>  (810) 
nan

>  <Pocket>  (810) 
nan

>  <ATP_Site>  (810) 
nan

>  <Peripheral>  (810) 
nan

>  <Num_H_Atoms_ProtBoundConf>  (810) 
nan

>  <Num_Resolved_Atoms>  (810) 
nan

>  <Num_Not_Resolved_Atoms>  (810) 
nan

$$$$
CHEMBL3797873
     RDKit          3D

  0  0  0  0  0  0  0  0  0  0999 V3000
M  V30 BEGIN CTAB
M  V30 COUNTS 65 69 0 0 0
M  V30 BEGIN ATOM
M  V30 1 C 1.911398 -0.221844 4.948229 0
M  V30 2 C 3.151220 0.593270 4.646907 0 CFG=1
M  V30 3 C 3.635819 0.435788 3.244722 0
M  V30 4 N 2.979013 1.317363 2.294693 0
M  V30 5 C 3.571334 1.331953 1.015931 0
M  V30 6 C 4.811829 1.989776 0.977032 0
M  V30 7 C 5.555810 2.060174 -0.217343 0
M  V30 8 C 5.061088 1.476427 -1.359861 0
M  V30 9 C 3.834693 0.857066 -1.195266 0
M  V30 10 N 3.065389 0.257825 -1.965086 0
M  V30 11 C 2.006973 -0.294903 -1.987668 0
M  V30 12 C 0.686163 -0.975730 -2.004108 0
M  V30 13 N -0.504543 -0.901033 -1.429907 0
M  V30 14 C -1.581744 -1.582905 -1.818644 0
M  V30 15 C -2.779734 -1.275742 -1.071504 0
M  V30 16 C -2.797180 -0.364678 -0.046090 0
M  V30 17 C -3.926088 -0.006855 0.653555 0
M  V30 18 C -5.145884 -0.567171 0.353613 0
M  V30 19 C -5.164619 -1.475352 -0.657348 0
M  V30 20 C -6.303562 -2.221709 -1.235714 0
M  V30 21 O -6.933990 -1.278997 -1.768981 0
M  V30 22 N -6.458676 -3.637303 -1.122672 0
M  V30 23 C -7.570700 -4.258350 -1.752857 0
M  V30 24 C -5.413429 -4.282741 -0.374929 0
M  V30 25 C -4.001889 -1.825710 -1.357339 0
M  V30 26 C -1.447597 -2.421036 -2.880144 0
M  V30 27 N -0.286852 -2.572171 -3.532859 0
M  V30 28 C 0.777213 -1.847284 -3.092133 0
M  V30 29 N 1.932057 -2.142910 -3.904513 0
M  V30 30 N 1.937925 0.044559 -0.548796 0
M  V30 31 C 1.033408 -0.201630 0.608869 0
M  V30 32 C 3.052865 0.739264 -0.108168 0
M  V30 33 C 1.835324 2.045855 2.860026 0
M  V30 34 C 2.214651 2.764933 4.126447 0
M  V30 35 N 3.036494 1.991497 4.998001 0
M  V30 36 H 1.141235 0.403331 5.387074 0
M  V30 37 H 2.130138 -1.018105 5.683396 0
M  V30 38 H 1.531085 -0.762483 4.035330 0
M  V30 39 H 3.956226 0.165435 5.316599 0
M  V30 40 H 3.514962 -0.641574 2.995446 0
M  V30 41 H 4.754671 0.602862 3.154721 0
M  V30 42 H 5.209248 2.462444 1.872461 0
M  V30 43 H 6.526198 2.578862 -0.268728 0
M  V30 44 H 5.545581 1.466190 -2.339132 0
M  V30 45 H -1.918718 0.148426 0.283598 0
M  V30 46 H -3.932647 0.711088 1.462319 0
M  V30 47 H -6.116215 -0.402971 0.796435 0
M  V30 48 H -7.162648 -4.848590 -2.628194 0
M  V30 49 H -8.240085 -3.496706 -2.192370 0
M  V30 50 H -8.145606 -4.972338 -1.092560 0
M  V30 51 H -5.849701 -5.135241 0.223228 0
M  V30 52 H -4.638951 -4.581570 -1.088990 0
M  V30 53 H -4.915152 -3.586682 0.360872 0
M  V30 54 H -3.977321 -2.566054 -2.192561 0
M  V30 55 H -2.317939 -2.986974 -3.196211 0
M  V30 56 H 2.942581 -2.109791 -3.770381 0
M  V30 57 H 1.895601 -2.489029 -4.879948 0
M  V30 58 H 0.334534 0.585083 0.772345 0
M  V30 59 H 1.690057 -0.474434 1.493110 0
M  V30 60 H 0.540988 -1.217049 0.422175 0
M  V30 61 H 1.452388 2.822876 2.148703 0
M  V30 62 H 0.968863 1.365977 3.008272 0
M  V30 63 H 2.702376 3.733573 3.913941 0
M  V30 64 H 1.248654 3.046066 4.642089 0
M  V30 65 H 2.674354 2.039876 5.985654 0
M  V30 END ATOM
M  V30 BEGIN BOND
M  V30 1 1 1 2
M  V30 2 1 2 3
M  V30 3 1 3 4
M  V30 4 1 4 5
M  V30 5 2 5 6
M  V30 6 1 6 7
M  V30 7 2 7 8
M  V30 8 1 8 9
M  V30 9 1 9 10
M  V30 10 2 10 11
M  V30 11 1 11 12
M  V30 12 2 12 13
M  V30 13 1 13 14
M  V30 14 1 14 15
M  V30 15 2 15 16
M  V30 16 1 16 17
M  V30 17 2 17 18
M  V30 18 1 18 19
M  V30 19 1 19 20
M  V30 20 2 20 21
M  V30 21 1 20 22
M  V30 22 1 22 23
M  V30 23 1 22 24
M  V30 24 2 19 25
M  V30 25 2 14 26
M  V30 26 1 26 27
M  V30 27 2 27 28
M  V30 28 1 28 29
M  V30 29 1 11 30
M  V30 30 1 30 31
M  V30 31 1 30 32
M  V30 32 1 4 33
M  V30 33 1 33 34
M  V30 34 1 34 35
M  V30 35 1 35 2
M  V30 36 1 32 5
M  V30 37 2 32 9
M  V30 38 1 28 12
M  V30 39 1 25 15
M  V30 40 1 1 36
M  V30 41 1 1 37
M  V30 42 1 1 38
M  V30 43 1 2 39 CFG=1
M  V30 44 1 3 40
M  V30 45 1 3 41
M  V30 46 1 6 42
M  V30 47 1 7 43
M  V30 48 1 8 44
M  V30 49 1 16 45
M  V30 50 1 17 46
M  V30 51 1 18 47
M  V30 52 1 23 48
M  V30 53 1 23 49
M  V30 54 1 23 50
M  V30 55 1 24 51
M  V30 56 1 24 52
M  V30 57 1 24 53
M  V30 58 1 25 54
M  V30 59 1 26 55
M  V30 60 1 29 56
M  V30 61 1 29 57
M  V30 62 1 31 58
M  V30 63 1 31 59
M  V30 64 1 31 60
M  V30 65 1 33 61
M  V30 66 1 33 62
M  V30 67 1 34 63
M  V30 68 1 34 64
M  V30 69 1 35 65
M  V30 END BOND
M  V30 END CTAB
M  END
>  <Dataset>  (811) 
ChEMBL_Kinases

>  <Ligand_Instance>  (811) 
nan

>  <PDB_ID>  (811) 
nan

>  <Standardized_SMILES>  (811) 
C[C@H]1CN(c2cccc3nc(-c4nc(-c5cccc(C(=O)N(C)C)c5)cnc4N)n(C)c23)CCN1

>  <Name>  (811) 
nan

>  <Pocket>  (811) 
nan

>  <ATP_Site>  (811) 
nan

>  <Peripheral>  (811) 
nan

>  <Num_H_Atoms_ProtBoundConf>  (811) 
nan

>  <Num_Resolved_Atoms>  (811) 
nan

>  <Num_Not_Resolved_Atoms>  (811) 
nan

$$$$
CHEMBL595944
     RDKit          3D

  0  0  0  0  0  0  0  0  0  0999 V3000
M  V30 BEGIN CTAB
M  V30 COUNTS 63 68 0 0 0
M  V30 BEGIN ATOM
M  V30 1 C 2.540160 1.473076 4.504857 0
M  V30 2 C 3.276029 0.215587 4.214802 0
M  V30 3 O 3.883150 -0.530163 5.098974 0
M  V30 4 C 4.442857 -1.578901 4.523472 0
M  V30 5 C 4.159869 -1.476639 3.166525 0
M  V30 6 C 3.406195 -0.320689 2.955049 0
M  V30 7 C 2.881674 0.195677 1.696942 0
M  V30 8 N 3.189851 1.379874 1.135861 0
M  V30 9 C 2.618960 1.736067 -0.054125 0
M  V30 10 N 3.097771 3.036996 -0.454576 0
M  V30 11 C 1.707586 0.921784 -0.744717 0
M  V30 12 O 1.320200 1.539278 -1.881148 0
M  V30 13 C 0.458570 1.182957 -2.889036 0
M  V30 14 C -0.967837 0.942509 -2.533393 0 CFG=1
M  V30 15 N -1.559718 2.138620 -1.957954 0
M  V30 16 C -1.752640 0.519575 -3.782420 0
M  V30 17 C -3.192946 0.278338 -3.414232 0
M  V30 18 C -4.267945 1.114702 -3.674356 0
M  V30 19 N -5.379757 0.529244 -3.179130 0
M  V30 20 C -5.093644 -0.654168 -2.603613 0
M  V30 21 C -5.869284 -1.617311 -1.965449 0
M  V30 22 C -5.214265 -2.738790 -1.484205 0
M  V30 23 C -3.873090 -2.951867 -1.597272 0
M  V30 24 C -3.141022 -1.955536 -2.245558 0
M  V30 25 C -3.731530 -0.823433 -2.743248 0
M  V30 26 C 1.411470 -0.285708 -0.145039 0
M  V30 27 C 1.990398 -0.641354 1.056978 0
M  V30 28 C 1.520701 -1.965728 1.493580 0
M  V30 29 C 1.715600 -3.146022 0.796053 0
M  V30 30 N 1.217211 -4.295707 1.333281 0
M  V30 31 C 0.563191 -4.218731 2.512712 0
M  V30 32 N -0.021861 -5.200964 3.252485 0
M  V30 33 N -0.559447 -4.703968 4.351312 0
M  V30 34 C -0.349989 -3.366820 4.381296 0
M  V30 35 C -0.705340 -2.280858 5.334010 0
M  V30 36 C 0.352019 -3.062653 3.231754 0
M  V30 37 N 0.854590 -1.945627 2.677321 0
M  V30 38 H 3.304174 2.301251 4.529929 0
M  V30 39 H 2.145244 1.407432 5.524283 0
M  V30 40 H 1.760780 1.682483 3.734464 0
M  V30 41 H 5.009788 -2.351273 5.057257 0
M  V30 42 H 4.474303 -2.175189 2.421734 0
M  V30 43 H 2.517313 3.727521 0.108234 0
M  V30 44 H 3.868332 2.955085 -1.173192 0
M  V30 45 H 0.454333 1.997697 -3.672698 0
M  V30 46 H 0.917000 0.315466 -3.434888 0
M  V30 47 H -1.151182 0.136243 -1.804290 0
M  V30 48 H -1.872905 2.814477 -2.690814 0
M  V30 49 H -2.394701 1.916072 -1.348371 0
M  V30 50 H -1.748791 1.319579 -4.540843 0
M  V30 51 H -1.354238 -0.450508 -4.139601 0
M  V30 52 H -4.240245 2.072011 -4.183210 0
M  V30 53 H -6.356143 0.895574 -3.208326 0
M  V30 54 H -6.937466 -1.459822 -1.869091 0
M  V30 55 H -5.883471 -3.457210 -0.992807 0
M  V30 56 H -3.445104 -3.864626 -1.187964 0
M  V30 57 H -2.078002 -2.119237 -2.338253 0
M  V30 58 H 0.716859 -0.849681 -0.727137 0
M  V30 59 H 2.251264 -3.064299 -0.126540 0
M  V30 60 H -0.041888 -6.224377 2.981054 0
M  V30 61 H 0.164160 -1.806218 5.796692 0
M  V30 62 H -1.387818 -2.622074 6.137706 0
M  V30 63 H -1.274798 -1.471591 4.799171 0
M  V30 END ATOM
M  V30 BEGIN BOND
M  V30 1 1 1 2
M  V30 2 1 2 3
M  V30 3 1 3 4
M  V30 4 2 4 5
M  V30 5 1 5 6
M  V30 6 1 6 7
M  V30 7 2 7 8
M  V30 8 1 8 9
M  V30 9 1 9 10
M  V30 10 2 9 11
M  V30 11 1 11 12
M  V30 12 1 12 13
M  V30 13 1 13 14
M  V30 14 1 14 15
M  V30 15 1 14 16
M  V30 16 1 16 17
M  V30 17 2 17 18
M  V30 18 1 18 19
M  V30 19 1 19 20
M  V30 20 2 20 21
M  V30 21 1 21 22
M  V30 22 2 22 23
M  V30 23 1 23 24
M  V30 24 2 24 25
M  V30 25 1 11 26
M  V30 26 2 26 27
M  V30 27 1 27 28
M  V30 28 2 28 29
M  V30 29 1 29 30
M  V30 30 2 30 31
M  V30 31 1 31 32
M  V30 32 1 32 33
M  V30 33 2 33 34
M  V30 34 1 34 35
M  V30 35 1 34 36
M  V30 36 2 36 37
M  V30 37 2 6 2
M  V30 38 1 27 7
M  V30 39 1 37 28
M  V30 40 1 25 17
M  V30 41 1 36 31
M  V30 42 1 25 20
M  V30 43 1 1 38
M  V30 44 1 1 39
M  V30 45 1 1 40
M  V30 46 1 4 41
M  V30 47 1 5 42
M  V30 48 1 10 43
M  V30 49 1 10 44
M  V30 50 1 13 45
M  V30 51 1 13 46
M  V30 52 1 14 47 CFG=1
M  V30 53 1 15 48
M  V30 54 1 15 49
M  V30 55 1 16 50
M  V30 56 1 16 51
M  V30 57 1 18 52
M  V30 58 1 19 53
M  V30 59 1 21 54
M  V30 60 1 22 55
M  V30 61 1 23 56
M  V30 62 1 24 57
M  V30 63 1 26 58
M  V30 64 1 29 59
M  V30 65 1 32 60
M  V30 66 1 35 61
M  V30 67 1 35 62
M  V30 68 1 35 63
M  V30 END BOND
M  V30 END CTAB
M  END
>  <Dataset>  (812) 
ChEMBL_Kinases

>  <Ligand_Instance>  (812) 
nan

>  <PDB_ID>  (812) 
nan

>  <Standardized_SMILES>  (812) 
Cc1occc1-c1nc(N)c(OC[C@@H](N)Cc2c[nH]c3ccccc23)cc1-c1cnc2[nH]nc(C)c2n1

>  <Name>  (812) 
nan

>  <Pocket>  (812) 
nan

>  <ATP_Site>  (812) 
nan

>  <Peripheral>  (812) 
nan

>  <Num_H_Atoms_ProtBoundConf>  (812) 
nan

>  <Num_Resolved_Atoms>  (812) 
nan

>  <Num_Not_Resolved_Atoms>  (812) 
nan

$$$$
CHEMBL2325986
     RDKit          3D

  0  0  0  0  0  0  0  0  0  0999 V3000
M  V30 BEGIN CTAB
M  V30 COUNTS 51 54 0 0 0
M  V30 BEGIN ATOM
M  V30 1 C -2.020333 -3.092698 4.154824 0
M  V30 2 C -1.137654 -3.277425 2.934702 0
M  V30 3 N -0.881136 -2.046448 2.253572 0
M  V30 4 C 0.413115 -1.513660 2.083698 0
M  V30 5 O 1.326297 -2.231549 2.593136 0
M  V30 6 C 0.619191 -0.227745 1.365634 0
M  V30 7 N 2.020715 0.042552 1.358216 0
M  V30 8 C -0.096967 0.843717 2.148634 0
M  V30 9 C -0.122414 2.176608 1.462132 0
M  V30 10 N 0.299447 1.968099 0.060964 0
M  V30 11 C 1.355766 2.793498 -0.406673 0
M  V30 12 N 1.654969 3.902605 0.291863 0
M  V30 13 C 2.612029 4.760533 -0.089876 0
M  V30 14 N 3.336886 4.562765 -1.202788 0
M  V30 15 C 3.100386 3.474240 -1.959384 0
M  V30 16 N 3.645844 3.008094 -3.087102 0
M  V30 17 C 3.043795 1.855959 -3.427893 0
M  V30 18 C 2.091920 1.617106 -2.461385 0
M  V30 19 C 2.115196 2.616049 -1.542075 0
M  V30 20 C -0.518196 0.935133 -0.527544 0
M  V30 21 C 0.029356 -0.383944 -0.022449 0
M  V30 22 C -1.786974 -4.207882 1.973064 0
M  V30 23 C -2.882638 -5.026562 2.154434 0
M  V30 24 C -3.318510 -5.816638 1.111898 0
M  V30 25 C -2.687767 -5.812934 -0.114880 0
M  V30 26 C -1.588275 -4.998696 -0.314419 0
M  V30 27 C -1.155577 -4.212401 0.725268 0
M  V30 28 H -1.498917 -2.511203 4.939460 0
M  V30 29 H -2.154673 -4.112685 4.608418 0
M  V30 30 H -2.975791 -2.593221 3.940393 0
M  V30 31 H -0.213635 -3.771771 3.316543 0
M  V30 32 H -1.732874 -1.555422 1.881146 0
M  V30 33 H 2.355228 0.674149 2.089264 0
M  V30 34 H 2.638160 -0.735851 1.114085 0
M  V30 35 H 0.437887 0.990301 3.108599 0
M  V30 36 H -1.125658 0.507055 2.452303 0
M  V30 37 H -1.192549 2.503318 1.376366 0
M  V30 38 H 0.450515 2.960719 1.954877 0
M  V30 39 H 2.810303 5.639027 0.512161 0
M  V30 40 H 4.419122 3.435759 -3.650314 0
M  V30 41 H 3.255114 1.224311 -4.293645 0
M  V30 42 H 1.460965 0.747605 -2.480955 0
M  V30 43 H -1.574139 1.059808 -0.127615 0
M  V30 44 H -0.645700 0.997245 -1.608880 0
M  V30 45 H -0.800482 -1.106488 0.039807 0
M  V30 46 H 0.810555 -0.722324 -0.699366 0
M  V30 47 H -3.302274 -4.954913 3.148394 0
M  V30 48 H -4.188086 -6.438287 1.323299 0
M  V30 49 H -3.048565 -6.442808 -0.919951 0
M  V30 50 H -1.116326 -5.018906 -1.287533 0
M  V30 51 H -0.288947 -3.610500 0.472236 0
M  V30 END ATOM
M  V30 BEGIN BOND
M  V30 1 1 1 2
M  V30 2 1 2 3
M  V30 3 1 3 4
M  V30 4 2 4 5
M  V30 5 1 4 6
M  V30 6 1 6 7
M  V30 7 1 6 8
M  V30 8 1 8 9
M  V30 9 1 9 10
M  V30 10 1 10 11
M  V30 11 2 11 12
M  V30 12 1 12 13
M  V30 13 2 13 14
M  V30 14 1 14 15
M  V30 15 1 15 16
M  V30 16 1 16 17
M  V30 17 2 17 18
M  V30 18 1 18 19
M  V30 19 1 10 20
M  V30 20 1 20 21
M  V30 21 1 2 22
M  V30 22 2 22 23
M  V30 23 1 23 24
M  V30 24 2 24 25
M  V30 25 1 25 26
M  V30 26 2 26 27
M  V30 27 1 21 6
M  V30 28 1 27 22
M  V30 29 1 19 11
M  V30 30 2 19 15
M  V30 31 1 1 28
M  V30 32 1 1 29
M  V30 33 1 1 30
M  V30 34 1 2 31
M  V30 35 1 3 32
M  V30 36 1 7 33
M  V30 37 1 7 34
M  V30 38 1 8 35
M  V30 39 1 8 36
M  V30 40 1 9 37
M  V30 41 1 9 38
M  V30 42 1 13 39
M  V30 43 1 16 40
M  V30 44 1 17 41
M  V30 45 1 18 42
M  V30 46 1 20 43
M  V30 47 1 20 44
M  V30 48 1 21 45
M  V30 49 1 21 46
M  V30 50 1 23 47
M  V30 51 1 24 48
M  V30 52 1 25 49
M  V30 53 1 26 50
M  V30 54 1 27 51
M  V30 END BOND
M  V30 END CTAB
M  END
>  <Dataset>  (813) 
ChEMBL_Kinases

>  <Ligand_Instance>  (813) 
nan

>  <PDB_ID>  (813) 
nan

>  <Standardized_SMILES>  (813) 
CC(NC(=O)C1(N)CCN(c2ncnc3[nH]ccc23)CC1)c1ccccc1

>  <Name>  (813) 
nan

>  <Pocket>  (813) 
nan

>  <ATP_Site>  (813) 
nan

>  <Peripheral>  (813) 
nan

>  <Num_H_Atoms_ProtBoundConf>  (813) 
nan

>  <Num_Resolved_Atoms>  (813) 
nan

>  <Num_Not_Resolved_Atoms>  (813) 
nan

$$$$
CHEMBL2325987
     RDKit          3D

  0  0  0  0  0  0  0  0  0  0999 V3000
M  V30 BEGIN CTAB
M  V30 COUNTS 51 54 0 0 0
M  V30 BEGIN ATOM
M  V30 1 C -3.092149 -4.407842 0.946054 0
M  V30 2 C -1.620164 -4.065839 0.908135 0
M  V30 3 N -1.375639 -2.791817 0.259387 0
M  V30 4 C -0.870216 -1.612631 0.853888 0
M  V30 5 O -0.591586 -1.651741 2.098890 0
M  V30 6 C -0.668660 -0.369572 0.062370 0
M  V30 7 N -1.064396 -0.610587 -1.311496 0
M  V30 8 C 0.817072 -0.069558 0.088356 0
M  V30 9 C 1.026586 0.855610 1.273767 0
M  V30 10 N 0.597282 2.161400 0.790559 0
M  V30 11 C 1.241072 3.427053 0.677934 0
M  V30 12 N 1.418325 4.093144 -0.484044 0
M  V30 13 C 2.038277 5.293907 -0.528436 0
M  V30 14 N 2.498595 5.858816 0.601742 0
M  V30 15 C 2.364133 5.264020 1.801907 0
M  V30 16 N 2.727555 5.609344 3.052674 0
M  V30 17 C 2.353084 4.644895 3.931045 0
M  V30 18 C 1.726426 3.660324 3.159862 0
M  V30 19 C 1.729053 4.038063 1.832756 0
M  V30 20 C -0.800143 2.120139 0.332283 0
M  V30 21 C -1.424536 0.791743 0.667493 0
M  V30 22 C -0.797035 -5.148787 0.354743 0
M  V30 23 C -0.698018 -5.238009 -1.031071 0
M  V30 24 C 0.045528 -6.211443 -1.685084 0
M  V30 25 C 0.725394 -7.143813 -0.923402 0
M  V30 26 F 1.462650 -8.110455 -1.525147 0
M  V30 27 C 0.653000 -7.089959 0.455539 0
M  V30 28 C -0.092515 -6.112204 1.055291 0
M  V30 29 H -3.415547 -4.830092 1.935599 0
M  V30 30 H -3.648315 -3.441805 0.851981 0
M  V30 31 H -3.408930 -5.135004 0.184874 0
M  V30 32 H -1.327413 -3.936217 1.988724 0
M  V30 33 H -1.604560 -2.751718 -0.774094 0
M  V30 34 H -0.461580 -0.046393 -1.938466 0
M  V30 35 H -2.073522 -0.496978 -1.475073 0
M  V30 36 H 1.161078 0.440394 -0.853191 0
M  V30 37 H 1.426800 -0.968632 0.296415 0
M  V30 38 H 2.093983 0.831172 1.569032 0
M  V30 39 H 0.389481 0.498784 2.122222 0
M  V30 40 H 2.121395 5.729167 -1.510956 0
M  V30 41 H 3.233179 6.498747 3.336643 0
M  V30 42 H 2.491896 4.608874 5.006710 0
M  V30 43 H 1.316600 2.754091 3.589657 0
M  V30 44 H -1.410426 2.915497 0.758238 0
M  V30 45 H -0.844003 2.215001 -0.777558 0
M  V30 46 H -2.423028 0.796963 0.171657 0
M  V30 47 H -1.612655 0.666674 1.750495 0
M  V30 48 H -1.206560 -4.538249 -1.676368 0
M  V30 49 H 0.108277 -6.261909 -2.758699 0
M  V30 50 H 1.183132 -7.817762 1.074809 0
M  V30 51 H -0.170558 -6.041514 2.136010 0
M  V30 END ATOM
M  V30 BEGIN BOND
M  V30 1 1 1 2
M  V30 2 1 2 3
M  V30 3 1 3 4
M  V30 4 2 4 5
M  V30 5 1 4 6
M  V30 6 1 6 7
M  V30 7 1 6 8
M  V30 8 1 8 9
M  V30 9 1 9 10
M  V30 10 1 10 11
M  V30 11 2 11 12
M  V30 12 1 12 13
M  V30 13 2 13 14
M  V30 14 1 14 15
M  V30 15 1 15 16
M  V30 16 1 16 17
M  V30 17 2 17 18
M  V30 18 1 18 19
M  V30 19 1 10 20
M  V30 20 1 20 21
M  V30 21 1 2 22
M  V30 22 2 22 23
M  V30 23 1 23 24
M  V30 24 2 24 25
M  V30 25 1 25 26
M  V30 26 1 25 27
M  V30 27 2 27 28
M  V30 28 1 21 6
M  V30 29 1 28 22
M  V30 30 1 19 11
M  V30 31 2 19 15
M  V30 32 1 1 29
M  V30 33 1 1 30
M  V30 34 1 1 31
M  V30 35 1 2 32
M  V30 36 1 3 33
M  V30 37 1 7 34
M  V30 38 1 7 35
M  V30 39 1 8 36
M  V30 40 1 8 37
M  V30 41 1 9 38
M  V30 42 1 9 39
M  V30 43 1 13 40
M  V30 44 1 16 41
M  V30 45 1 17 42
M  V30 46 1 18 43
M  V30 47 1 20 44
M  V30 48 1 20 45
M  V30 49 1 21 46
M  V30 50 1 21 47
M  V30 51 1 23 48
M  V30 52 1 24 49
M  V30 53 1 27 50
M  V30 54 1 28 51
M  V30 END BOND
M  V30 END CTAB
M  END
>  <Dataset>  (814) 
ChEMBL_Kinases

>  <Ligand_Instance>  (814) 
nan

>  <PDB_ID>  (814) 
nan

>  <Standardized_SMILES>  (814) 
CC(NC(=O)C1(N)CCN(c2ncnc3[nH]ccc23)CC1)c1ccc(F)cc1

>  <Name>  (814) 
nan

>  <Pocket>  (814) 
nan

>  <ATP_Site>  (814) 
nan

>  <Peripheral>  (814) 
nan

>  <Num_H_Atoms_ProtBoundConf>  (814) 
nan

>  <Num_Resolved_Atoms>  (814) 
nan

>  <Num_Not_Resolved_Atoms>  (814) 
nan

$$$$
CHEMBL2325988
     RDKit          3D

  0  0  0  0  0  0  0  0  0  0999 V3000
M  V30 BEGIN CTAB
M  V30 COUNTS 50 53 0 0 0
M  V30 BEGIN ATOM
M  V30 1 C -2.454063 -4.087055 0.955077 0
M  V30 2 C -1.217171 -3.655286 1.668164 0
M  V30 3 N -0.720610 -2.365321 1.274452 0
M  V30 4 C -0.627681 -1.258016 2.164241 0
M  V30 5 O -1.009008 -1.437884 3.359744 0
M  V30 6 C -0.123822 0.082001 1.811765 0
M  V30 7 N 0.275879 -0.000778 0.402043 0
M  V30 8 C 1.047237 0.530070 2.599467 0
M  V30 9 C 1.571975 1.820851 1.998076 0
M  V30 10 N 0.597617 2.349220 1.016844 0
M  V30 11 C 1.089136 2.586453 -0.294866 0
M  V30 12 N 2.413677 2.681990 -0.457930 0
M  V30 13 C 3.030124 2.938598 -1.619598 0
M  V30 14 N 2.267582 3.115805 -2.716845 0
M  V30 15 C 0.927674 3.042329 -2.676469 0
M  V30 16 N -0.074519 3.160884 -3.577937 0
M  V30 17 C -1.262005 2.977777 -2.970304 0
M  V30 18 C -0.978066 2.737558 -1.644769 0
M  V30 19 C 0.366271 2.775759 -1.449421 0
M  V30 20 C -0.652612 2.503051 1.713393 0
M  V30 21 C -1.227464 1.128461 1.951636 0
M  V30 22 C -0.123496 -4.667777 1.530739 0
M  V30 23 C 0.637136 -4.631156 0.376077 0
M  V30 24 C 1.654285 -5.556269 0.231134 0
M  V30 25 C 1.827257 -6.449533 1.263703 0
M  V30 26 N 1.075644 -6.486971 2.405764 0
M  V30 27 C 0.066400 -5.576062 2.559605 0
M  V30 28 H -3.335559 -4.123725 1.650234 0
M  V30 29 H -2.332300 -5.159158 0.621848 0
M  V30 30 H -2.702511 -3.521430 0.040364 0
M  V30 31 H -1.458086 -3.550556 2.767313 0
M  V30 32 H -0.410779 -2.224308 0.288001 0
M  V30 33 H 0.969309 -0.730985 0.238185 0
M  V30 34 H -0.563507 -0.125150 -0.201220 0
M  V30 35 H 1.867729 -0.217418 2.590166 0
M  V30 36 H 0.748244 0.654741 3.664067 0
M  V30 37 H 1.638213 2.578240 2.803950 0
M  V30 38 H 2.573466 1.705263 1.554790 0
M  V30 39 H 4.097137 2.998992 -1.660545 0
M  V30 40 H 0.075558 3.364848 -4.592629 0
M  V30 41 H -2.247822 3.011163 -3.430265 0
M  V30 42 H -1.741672 2.549253 -0.937434 0
M  V30 43 H -0.415383 2.989729 2.716748 0
M  V30 44 H -1.371068 3.204204 1.215698 0
M  V30 45 H -1.563859 1.067390 3.029563 0
M  V30 46 H -2.097390 0.878634 1.337457 0
M  V30 47 H 0.470817 -3.913463 -0.417289 0
M  V30 48 H 2.302638 -5.607545 -0.633609 0
M  V30 49 H 2.612798 -7.219789 1.233271 0
M  V30 50 H -0.591826 -5.509068 3.416814 0
M  V30 END ATOM
M  V30 BEGIN BOND
M  V30 1 1 1 2
M  V30 2 1 2 3
M  V30 3 1 3 4
M  V30 4 2 4 5
M  V30 5 1 4 6
M  V30 6 1 6 7
M  V30 7 1 6 8
M  V30 8 1 8 9
M  V30 9 1 9 10
M  V30 10 1 10 11
M  V30 11 2 11 12
M  V30 12 1 12 13
M  V30 13 2 13 14
M  V30 14 1 14 15
M  V30 15 1 15 16
M  V30 16 1 16 17
M  V30 17 2 17 18
M  V30 18 1 18 19
M  V30 19 1 10 20
M  V30 20 1 20 21
M  V30 21 1 2 22
M  V30 22 2 22 23
M  V30 23 1 23 24
M  V30 24 2 24 25
M  V30 25 1 25 26
M  V30 26 2 26 27
M  V30 27 1 21 6
M  V30 28 1 27 22
M  V30 29 1 19 11
M  V30 30 2 19 15
M  V30 31 1 1 28
M  V30 32 1 1 29
M  V30 33 1 1 30
M  V30 34 1 2 31
M  V30 35 1 3 32
M  V30 36 1 7 33
M  V30 37 1 7 34
M  V30 38 1 8 35
M  V30 39 1 8 36
M  V30 40 1 9 37
M  V30 41 1 9 38
M  V30 42 1 13 39
M  V30 43 1 16 40
M  V30 44 1 17 41
M  V30 45 1 18 42
M  V30 46 1 20 43
M  V30 47 1 20 44
M  V30 48 1 21 45
M  V30 49 1 21 46
M  V30 50 1 23 47
M  V30 51 1 24 48
M  V30 52 1 25 49
M  V30 53 1 27 50
M  V30 END BOND
M  V30 END CTAB
M  END
>  <Dataset>  (815) 
ChEMBL_Kinases

>  <Ligand_Instance>  (815) 
nan

>  <PDB_ID>  (815) 
nan

>  <Standardized_SMILES>  (815) 
CC(NC(=O)C1(N)CCN(c2ncnc3[nH]ccc23)CC1)c1cccnc1

>  <Name>  (815) 
nan

>  <Pocket>  (815) 
nan

>  <ATP_Site>  (815) 
nan

>  <Peripheral>  (815) 
nan

>  <Num_H_Atoms_ProtBoundConf>  (815) 
nan

>  <Num_Resolved_Atoms>  (815) 
nan

>  <Num_Not_Resolved_Atoms>  (815) 
nan

$$$$
CHEMBL2325990
     RDKit          3D

  0  0  0  0  0  0  0  0  0  0999 V3000
M  V30 BEGIN CTAB
M  V30 COUNTS 57 60 0 0 0
M  V30 BEGIN ATOM
M  V30 1 C -1.955342 -1.349973 3.587358 0
M  V30 2 C -0.831772 -1.951557 2.771660 0
M  V30 3 N 0.101460 -0.984601 2.292823 0
M  V30 4 C 1.479890 -1.071084 2.591854 0
M  V30 5 O 1.992291 -1.996987 3.303875 0
M  V30 6 C 2.723633 -0.322047 2.307469 0
M  V30 7 N 3.773789 -0.835415 3.211607 0
M  V30 8 C 2.568832 1.155407 2.479941 0
M  V30 9 C 2.770770 1.886872 1.182463 0
M  V30 10 N 1.868383 1.297733 0.184431 0
M  V30 11 C 0.819923 2.097869 -0.332002 0
M  V30 12 N 0.574407 3.294174 0.261194 0
M  V30 13 C -0.391531 4.111516 -0.126323 0
M  V30 14 N -1.199009 3.809387 -1.140058 0
M  V30 15 C -1.040512 2.645894 -1.797599 0
M  V30 16 N -1.657756 2.049934 -2.837916 0
M  V30 17 C -1.076010 0.867130 -3.095733 0
M  V30 18 C -0.059719 0.720649 -2.183053 0
M  V30 19 C -0.036083 1.823223 -1.375689 0
M  V30 20 C 2.225230 -0.069469 -0.099722 0
M  V30 21 C 3.210808 -0.590456 0.911000 0
M  V30 22 C -1.395638 -2.646799 1.579729 0
M  V30 23 C -0.559065 -3.079294 0.565387 0
M  V30 24 C -1.022513 -3.733892 -0.576219 0
M  V30 25 C -2.396808 -3.959835 -0.693941 0
M  V30 26 S -2.982528 -4.786896 -2.136980 0
M  V30 27 C -3.338350 -3.566510 -3.358784 0
M  V30 28 O -4.207994 -5.604123 -1.818352 0
M  V30 29 O -1.927433 -5.705024 -2.686424 0
M  V30 30 C -3.240383 -3.531142 0.314748 0
M  V30 31 C -2.764697 -2.882353 1.442601 0
M  V30 32 H -2.417080 -2.120521 4.241565 0
M  V30 33 H -2.673399 -0.811851 2.967947 0
M  V30 34 H -1.470280 -0.616518 4.287343 0
M  V30 35 H -0.262063 -2.696581 3.356594 0
M  V30 36 H -0.026234 -0.127916 1.713806 0
M  V30 37 H 3.372907 -0.964120 4.148961 0
M  V30 38 H 4.146369 -1.715705 2.845434 0
M  V30 39 H 3.293837 1.564512 3.241130 0
M  V30 40 H 1.531080 1.367626 2.821962 0
M  V30 41 H 2.487186 2.957544 1.373328 0
M  V30 42 H 3.818480 1.912915 0.845597 0
M  V30 43 H -0.510482 5.046629 0.410054 0
M  V30 44 H -2.459666 2.463230 -3.346601 0
M  V30 45 H -1.356263 0.171908 -3.869601 0
M  V30 46 H 0.586208 -0.140568 -2.157007 0
M  V30 47 H 1.355033 -0.777494 -0.050158 0
M  V30 48 H 2.733834 -0.160015 -1.099713 0
M  V30 49 H 3.400028 -1.667115 0.723291 0
M  V30 50 H 4.197172 -0.090218 0.817974 0
M  V30 51 H 0.511537 -2.911484 0.642955 0
M  V30 52 H -0.294107 -4.042297 -1.329551 0
M  V30 53 H -4.390294 -3.217416 -3.351331 0
M  V30 54 H -3.178503 -4.035603 -4.359749 0
M  V30 55 H -2.629925 -2.711005 -3.309436 0
M  V30 56 H -4.296878 -3.728899 0.178515 0
M  V30 57 H -3.432758 -2.555120 2.218436 0
M  V30 END ATOM
M  V30 BEGIN BOND
M  V30 1 1 1 2
M  V30 2 1 2 3
M  V30 3 1 3 4
M  V30 4 2 4 5
M  V30 5 1 4 6
M  V30 6 1 6 7
M  V30 7 1 6 8
M  V30 8 1 8 9
M  V30 9 1 9 10
M  V30 10 1 10 11
M  V30 11 2 11 12
M  V30 12 1 12 13
M  V30 13 2 13 14
M  V30 14 1 14 15
M  V30 15 1 15 16
M  V30 16 1 16 17
M  V30 17 2 17 18
M  V30 18 1 18 19
M  V30 19 1 10 20
M  V30 20 1 20 21
M  V30 21 1 2 22
M  V30 22 2 22 23
M  V30 23 1 23 24
M  V30 24 2 24 25
M  V30 25 1 25 26
M  V30 26 1 26 27
M  V30 27 2 26 28
M  V30 28 2 26 29
M  V30 29 1 25 30
M  V30 30 2 30 31
M  V30 31 1 21 6
M  V30 32 1 31 22
M  V30 33 1 19 11
M  V30 34 2 19 15
M  V30 35 1 1 32
M  V30 36 1 1 33
M  V30 37 1 1 34
M  V30 38 1 2 35
M  V30 39 1 3 36
M  V30 40 1 7 37
M  V30 41 1 7 38
M  V30 42 1 8 39
M  V30 43 1 8 40
M  V30 44 1 9 41
M  V30 45 1 9 42
M  V30 46 1 13 43
M  V30 47 1 16 44
M  V30 48 1 17 45
M  V30 49 1 18 46
M  V30 50 1 20 47
M  V30 51 1 20 48
M  V30 52 1 21 49
M  V30 53 1 21 50
M  V30 54 1 23 51
M  V30 55 1 24 52
M  V30 56 1 27 53
M  V30 57 1 27 54
M  V30 58 1 27 55
M  V30 59 1 30 56
M  V30 60 1 31 57
M  V30 END BOND
M  V30 END CTAB
M  END
>  <Dataset>  (816) 
ChEMBL_Kinases

>  <Ligand_Instance>  (816) 
nan

>  <PDB_ID>  (816) 
nan

>  <Standardized_SMILES>  (816) 
CC(NC(=O)C1(N)CCN(c2ncnc3[nH]ccc23)CC1)c1ccc(S(C)(=O)=O)cc1

>  <Name>  (816) 
nan

>  <Pocket>  (816) 
nan

>  <ATP_Site>  (816) 
nan

>  <Peripheral>  (816) 
nan

>  <Num_H_Atoms_ProtBoundConf>  (816) 
nan

>  <Num_Resolved_Atoms>  (816) 
nan

>  <Num_Not_Resolved_Atoms>  (816) 
nan

$$$$
CHEMBL2325991
     RDKit          3D

  0  0  0  0  0  0  0  0  0  0999 V3000
M  V30 BEGIN CTAB
M  V30 COUNTS 59 62 0 0 0
M  V30 BEGIN ATOM
M  V30 1 C 4.381434 -2.064502 6.867765 0
M  V30 2 O 3.353466 -2.302966 5.919865 0
M  V30 3 C 3.404378 -1.665585 4.692480 0
M  V30 4 C 4.425903 -0.801618 4.357220 0
M  V30 5 C 4.455851 -0.177167 3.126923 0
M  V30 6 C 3.451058 -0.413618 2.207216 0
M  V30 7 C 3.307768 0.156610 0.845767 0
M  V30 8 C 4.233789 1.346687 0.724321 0
M  V30 9 N 1.949619 0.598682 0.591134 0
M  V30 10 C 1.113297 0.138535 -0.464533 0
M  V30 11 O 1.690378 -0.730475 -1.192387 0
M  V30 12 C -0.265535 0.634416 -0.665254 0
M  V30 13 N -0.528266 1.614095 0.383083 0
M  V30 14 C -1.187317 -0.530918 -0.382928 0
M  V30 15 C -2.585111 -0.041048 -0.730663 0
M  V30 16 N -2.633810 0.004110 -2.181680 0
M  V30 17 C -3.795594 -0.400134 -2.852568 0
M  V30 18 N -4.529146 0.390121 -3.670239 0
M  V30 19 C -5.643021 -0.060332 -4.289774 0
M  V30 20 N -6.077448 -1.332253 -4.118213 0
M  V30 21 C -5.392230 -2.172687 -3.315878 0
M  V30 22 N -5.589383 -3.463293 -2.969135 0
M  V30 23 C -4.613412 -3.865969 -2.125763 0
M  V30 24 C -3.789699 -2.792939 -1.946503 0
M  V30 25 C -4.248641 -1.698598 -2.684196 0
M  V30 26 C -1.465229 0.470180 -2.868942 0
M  V30 27 C -0.519936 1.247657 -2.002929 0
M  V30 28 C 2.418916 -1.288263 2.549421 0
M  V30 29 C 2.381563 -1.924009 3.792396 0
M  V30 30 O 1.363758 -2.797250 4.151724 0
M  V30 31 C 0.322524 -3.044500 3.203118 0
M  V30 32 H 4.210567 -1.045197 7.296469 0
M  V30 33 H 4.298180 -2.758138 7.727588 0
M  V30 34 H 5.396717 -2.077436 6.426745 0
M  V30 35 H 5.227996 -0.588754 5.042277 0
M  V30 36 H 5.213698 0.512178 2.779626 0
M  V30 37 H 3.631781 -0.608248 0.097182 0
M  V30 38 H 4.153485 1.972599 1.645812 0
M  V30 39 H 5.295121 1.067754 0.639380 0
M  V30 40 H 3.983459 1.989474 -0.133177 0
M  V30 41 H 1.591485 1.321403 1.267938 0
M  V30 42 H -0.845899 1.152576 1.245942 0
M  V30 43 H -1.126118 2.370293 0.035597 0
M  V30 44 H -1.084783 -0.804881 0.683184 0
M  V30 45 H -0.943678 -1.326299 -1.097342 0
M  V30 46 H -2.697524 0.987479 -0.297107 0
M  V30 47 H -3.376083 -0.680179 -0.293326 0
M  V30 48 H -6.163329 0.647561 -4.925300 0
M  V30 49 H -6.386729 -4.069113 -3.305814 0
M  V30 50 H -4.566869 -4.857891 -1.718911 0
M  V30 51 H -2.912998 -2.803771 -1.321168 0
M  V30 52 H -0.947352 -0.391725 -3.366906 0
M  V30 53 H -1.800638 1.135755 -3.693953 0
M  V30 54 H 0.433506 1.371049 -2.557089 0
M  V30 55 H -0.922131 2.285121 -1.881368 0
M  V30 56 H 1.593640 -1.532635 1.896235 0
M  V30 57 H -0.359248 -3.833130 3.581923 0
M  V30 58 H -0.313601 -2.146317 3.070591 0
M  V30 59 H 0.696289 -3.337436 2.213671 0
M  V30 END ATOM
M  V30 BEGIN BOND
M  V30 1 1 1 2
M  V30 2 1 2 3
M  V30 3 2 3 4
M  V30 4 1 4 5
M  V30 5 2 5 6
M  V30 6 1 6 7
M  V30 7 1 7 8
M  V30 8 1 7 9
M  V30 9 1 9 10
M  V30 10 2 10 11
M  V30 11 1 10 12
M  V30 12 1 12 13
M  V30 13 1 12 14
M  V30 14 1 14 15
M  V30 15 1 15 16
M  V30 16 1 16 17
M  V30 17 2 17 18
M  V30 18 1 18 19
M  V30 19 2 19 20
M  V30 20 1 20 21
M  V30 21 1 21 22
M  V30 22 1 22 23
M  V30 23 2 23 24
M  V30 24 1 24 25
M  V30 25 1 16 26
M  V30 26 1 26 27
M  V30 27 1 6 28
M  V30 28 2 28 29
M  V30 29 1 29 30
M  V30 30 1 30 31
M  V30 31 1 29 3
M  V30 32 1 27 12
M  V30 33 1 25 17
M  V30 34 2 25 21
M  V30 35 1 1 32
M  V30 36 1 1 33
M  V30 37 1 1 34
M  V30 38 1 4 35
M  V30 39 1 5 36
M  V30 40 1 7 37
M  V30 41 1 8 38
M  V30 42 1 8 39
M  V30 43 1 8 40
M  V30 44 1 9 41
M  V30 45 1 13 42
M  V30 46 1 13 43
M  V30 47 1 14 44
M  V30 48 1 14 45
M  V30 49 1 15 46
M  V30 50 1 15 47
M  V30 51 1 19 48
M  V30 52 1 22 49
M  V30 53 1 23 50
M  V30 54 1 24 51
M  V30 55 1 26 52
M  V30 56 1 26 53
M  V30 57 1 27 54
M  V30 58 1 27 55
M  V30 59 1 28 56
M  V30 60 1 31 57
M  V30 61 1 31 58
M  V30 62 1 31 59
M  V30 END BOND
M  V30 END CTAB
M  END
>  <Dataset>  (817) 
ChEMBL_Kinases

>  <Ligand_Instance>  (817) 
nan

>  <PDB_ID>  (817) 
nan

>  <Standardized_SMILES>  (817) 
COc1ccc(C(C)NC(=O)C2(N)CCN(c3ncnc4[nH]ccc34)CC2)cc1OC

>  <Name>  (817) 
nan

>  <Pocket>  (817) 
nan

>  <ATP_Site>  (817) 
nan

>  <Peripheral>  (817) 
nan

>  <Num_H_Atoms_ProtBoundConf>  (817) 
nan

>  <Num_Resolved_Atoms>  (817) 
nan

>  <Num_Not_Resolved_Atoms>  (817) 
nan

$$$$
CHEMBL2325992
     RDKit          3D

  0  0  0  0  0  0  0  0  0  0999 V3000
M  V30 BEGIN CTAB
M  V30 COUNTS 62 65 0 0 0
M  V30 BEGIN ATOM
M  V30 1 C 4.028114 -1.367873 5.717548 0
M  V30 2 N 3.167510 -1.740897 4.576809 0
M  V30 3 C 2.911240 -3.184889 4.669350 0
M  V30 4 C 3.866740 -1.448224 3.334223 0
M  V30 5 C 2.915999 -1.644148 2.191421 0
M  V30 6 C 1.778517 -0.678971 2.252250 0
M  V30 7 N 0.838818 -0.851756 1.124726 0
M  V30 8 C 0.602850 0.204639 0.200778 0
M  V30 9 O 1.192543 1.329350 0.315068 0
M  V30 10 C -0.323215 0.092538 -0.943921 0
M  V30 11 N -0.976390 -1.226449 -0.946893 0
M  V30 12 C -1.323541 1.217772 -0.883143 0
M  V30 13 C -1.590840 1.755031 -2.271475 0
M  V30 14 N -1.840314 0.590094 -3.124556 0
M  V30 15 C -3.149888 0.434951 -3.657505 0
M  V30 16 N -4.110863 1.279705 -3.260854 0
M  V30 17 C -5.386349 1.230439 -3.679230 0
M  V30 18 N -5.743504 0.277193 -4.554545 0
M  V30 19 C -4.862764 -0.628966 -5.024781 0
M  V30 20 N -4.924963 -1.667851 -5.887124 0
M  V30 21 C -3.712257 -2.235109 -5.989327 0
M  V30 22 C -2.879906 -1.517574 -5.160501 0
M  V30 23 C -3.572933 -0.519179 -4.553566 0
M  V30 24 C -0.689844 -0.269321 -3.305551 0
M  V30 25 C 0.367712 0.183445 -2.286872 0
M  V30 26 C 0.961710 -0.692216 3.474284 0
M  V30 27 C -0.104540 -1.593004 3.588955 0
M  V30 28 C -0.912303 -1.646777 4.704656 0
M  V30 29 C -0.703344 -0.803857 5.772560 0
M  V30 30 Cl -1.727189 -0.873159 7.185071 0
M  V30 31 C 0.332410 0.095081 5.700716 0
M  V30 32 C 1.140910 0.146952 4.581047 0
M  V30 33 H 3.330737 -1.145950 6.551765 0
M  V30 34 H 4.698395 -2.176368 6.016815 0
M  V30 35 H 4.563785 -0.438955 5.454879 0
M  V30 36 H 3.382929 -3.602498 5.583643 0
M  V30 37 H 3.432607 -3.657828 3.820172 0
M  V30 38 H 1.853153 -3.353524 4.592079 0
M  V30 39 H 4.300823 -0.429133 3.340133 0
M  V30 40 H 4.754020 -2.139042 3.227932 0
M  V30 41 H 2.470603 -2.676332 2.339452 0
M  V30 42 H 3.430911 -1.636730 1.205094 0
M  V30 43 H 2.178462 0.385159 2.185032 0
M  V30 44 H 0.340963 -1.758099 0.999512 0
M  V30 45 H -0.207432 -1.921116 -1.065977 0
M  V30 46 H -1.384599 -1.359672 -0.004520 0
M  V30 47 H -0.884799 2.038546 -0.258960 0
M  V30 48 H -2.286106 0.931559 -0.406194 0
M  V30 49 H -0.760216 2.373159 -2.655871 0
M  V30 50 H -2.517544 2.398745 -2.257258 0
M  V30 51 H -6.123793 1.936122 -3.328497 0
M  V30 52 H -5.825418 -1.918682 -6.357423 0
M  V30 53 H -3.458950 -3.091315 -6.610162 0
M  V30 54 H -1.849130 -1.766771 -5.064966 0
M  V30 55 H -0.239604 -0.219789 -4.309317 0
M  V30 56 H -0.914614 -1.320844 -2.998624 0
M  V30 57 H 1.142328 -0.631583 -2.287634 0
M  V30 58 H 0.810360 1.144061 -2.503789 0
M  V30 59 H -0.371125 -2.305341 2.821439 0
M  V30 60 H -1.739339 -2.344978 4.793268 0
M  V30 61 H 0.522238 0.776024 6.531854 0
M  V30 62 H 1.979046 0.841967 4.470216 0
M  V30 END ATOM
M  V30 BEGIN BOND
M  V30 1 1 1 2
M  V30 2 1 2 3
M  V30 3 1 2 4
M  V30 4 1 4 5
M  V30 5 1 5 6
M  V30 6 1 6 7
M  V30 7 1 7 8
M  V30 8 2 8 9
M  V30 9 1 8 10
M  V30 10 1 10 11
M  V30 11 1 10 12
M  V30 12 1 12 13
M  V30 13 1 13 14
M  V30 14 1 14 15
M  V30 15 2 15 16
M  V30 16 1 16 17
M  V30 17 2 17 18
M  V30 18 1 18 19
M  V30 19 1 19 20
M  V30 20 1 20 21
M  V30 21 2 21 22
M  V30 22 1 22 23
M  V30 23 1 14 24
M  V30 24 1 24 25
M  V30 25 1 6 26
M  V30 26 2 26 27
M  V30 27 1 27 28
M  V30 28 2 28 29
M  V30 29 1 29 30
M  V30 30 1 29 31
M  V30 31 2 31 32
M  V30 32 1 25 10
M  V30 33 1 32 26
M  V30 34 1 23 15
M  V30 35 2 23 19
M  V30 36 1 1 33
M  V30 37 1 1 34
M  V30 38 1 1 35
M  V30 39 1 3 36
M  V30 40 1 3 37
M  V30 41 1 3 38
M  V30 42 1 4 39
M  V30 43 1 4 40
M  V30 44 1 5 41
M  V30 45 1 5 42
M  V30 46 1 6 43
M  V30 47 1 7 44
M  V30 48 1 11 45
M  V30 49 1 11 46
M  V30 50 1 12 47
M  V30 51 1 12 48
M  V30 52 1 13 49
M  V30 53 1 13 50
M  V30 54 1 17 51
M  V30 55 1 20 52
M  V30 56 1 21 53
M  V30 57 1 22 54
M  V30 58 1 24 55
M  V30 59 1 24 56
M  V30 60 1 25 57
M  V30 61 1 25 58
M  V30 62 1 27 59
M  V30 63 1 28 60
M  V30 64 1 31 61
M  V30 65 1 32 62
M  V30 END BOND
M  V30 END CTAB
M  END
>  <Dataset>  (818) 
ChEMBL_Kinases

>  <Ligand_Instance>  (818) 
nan

>  <PDB_ID>  (818) 
nan

>  <Standardized_SMILES>  (818) 
CN(C)CCC(NC(=O)C1(N)CCN(c2ncnc3[nH]ccc23)CC1)c1ccc(Cl)cc1

>  <Name>  (818) 
nan

>  <Pocket>  (818) 
nan

>  <ATP_Site>  (818) 
nan

>  <Peripheral>  (818) 
nan

>  <Num_H_Atoms_ProtBoundConf>  (818) 
nan

>  <Num_Resolved_Atoms>  (818) 
nan

>  <Num_Not_Resolved_Atoms>  (818) 
nan

$$$$
CHEMBL587723
     RDKit          3D

  0  0  0  0  0  0  0  0  0  0999 V3000
M  V30 BEGIN CTAB
M  V30 COUNTS 65 69 0 0 0
M  V30 BEGIN ATOM
M  V30 1 C 5.219250 1.664897 3.718155 0
M  V30 2 C 4.499363 1.415223 2.411689 0
M  V30 3 N 4.302352 2.667186 1.674563 0
M  V30 4 C 3.616239 2.333560 0.457754 0
M  V30 5 C 3.158522 3.586479 -0.235543 0
M  V30 6 N 2.428860 4.479301 0.561598 0
M  V30 7 C 1.016066 4.524575 0.405257 0
M  V30 8 C 0.326921 3.239207 0.681986 0
M  V30 9 C 0.053756 2.268554 -0.249947 0
M  V30 10 C -0.586720 1.081585 0.036807 0
M  V30 11 C -0.993546 0.816121 1.327096 0
M  V30 12 C -1.670166 -0.426228 1.654078 0
M  V30 13 C -1.970138 -1.431378 0.759292 0
M  V30 14 C -2.616407 -2.488917 1.365501 0
M  V30 15 C -3.106392 -3.698799 0.891351 0
M  V30 16 N -2.970914 -4.019005 -0.485611 0
M  V30 17 C -3.445810 -5.254119 -1.079814 0 CFG=2
M  V30 18 C -2.718659 -6.403140 -0.423319 0
M  V30 19 C -3.218301 -5.306946 -2.526053 0
M  V30 20 C -3.583202 -4.102563 -3.130512 0
M  V30 21 C -3.454962 -3.914608 -4.511442 0
M  V30 22 C -2.959085 -4.942702 -5.276076 0
M  V30 23 C -2.596471 -6.133367 -4.691317 0
M  V30 24 C -2.725153 -6.312084 -3.331457 0
M  V30 25 N -3.685306 -4.493705 1.782280 0
M  V30 26 C -3.794609 -4.150981 3.076958 0
M  V30 27 N -3.313792 -2.962856 3.544148 0
M  V30 28 C -2.711859 -2.106466 2.686577 0
M  V30 29 N -2.147471 -0.892786 2.821012 0
M  V30 30 C -0.735561 1.769301 2.289628 0
M  V30 31 C -0.088842 2.961738 1.986620 0
M  V30 32 C 2.901609 4.703382 1.885905 0
M  V30 33 C 3.561527 3.530903 2.533349 0
M  V30 34 H 4.500105 2.035066 4.465422 0
M  V30 35 H 6.099841 2.325103 3.602878 0
M  V30 36 H 5.594638 0.682633 4.072636 0
M  V30 37 H 3.533707 0.922003 2.664733 0
M  V30 38 H 5.096969 0.677262 1.850245 0
M  V30 39 H 4.279791 1.784083 -0.216731 0
M  V30 40 H 2.784530 1.659276 0.740201 0
M  V30 41 H 4.087390 4.084401 -0.630394 0
M  V30 42 H 2.579524 3.290556 -1.130461 0
M  V30 43 H 0.558690 5.265345 1.092792 0
M  V30 44 H 0.820389 4.835107 -0.657622 0
M  V30 45 H 0.354796 2.439989 -1.272918 0
M  V30 46 H -0.762064 0.369825 -0.761850 0
M  V30 47 H -1.739971 -1.426560 -0.307019 0
M  V30 48 H -2.508310 -3.346507 -1.128128 0
M  V30 49 H -4.550712 -5.376570 -0.911256 0
M  V30 50 H -1.639462 -6.260228 -0.680801 0
M  V30 51 H -2.886166 -6.421172 0.667410 0
M  V30 52 H -3.046984 -7.385465 -0.828916 0
M  V30 53 H -3.990261 -3.208235 -2.634117 0
M  V30 54 H -3.728157 -2.995178 -5.010225 0
M  V30 55 H -2.847419 -4.829630 -6.346187 0
M  V30 56 H -2.195007 -6.983552 -5.263266 0
M  V30 57 H -2.473938 -7.195520 -2.771960 0
M  V30 58 H -4.291615 -4.879308 3.736193 0
M  V30 59 H -2.071069 -0.341257 3.725841 0
M  V30 60 H -1.042035 1.600308 3.333635 0
M  V30 61 H 0.075277 3.655775 2.795605 0
M  V30 62 H 2.039831 5.003416 2.517733 0
M  V30 63 H 3.590896 5.574568 1.861541 0
M  V30 64 H 4.278105 3.933433 3.308009 0
M  V30 65 H 2.826532 2.901864 3.111257 0
M  V30 END ATOM
M  V30 BEGIN BOND
M  V30 1 1 1 2
M  V30 2 1 2 3
M  V30 3 1 3 4
M  V30 4 1 4 5
M  V30 5 1 5 6
M  V30 6 1 6 7
M  V30 7 1 7 8
M  V30 8 2 8 9
M  V30 9 1 9 10
M  V30 10 2 10 11
M  V30 11 1 11 12
M  V30 12 2 12 13
M  V30 13 1 13 14
M  V30 14 2 14 15
M  V30 15 1 15 16
M  V30 16 1 16 17
M  V30 17 1 17 18
M  V30 18 1 17 19
M  V30 19 2 19 20
M  V30 20 1 20 21
M  V30 21 2 21 22
M  V30 22 1 22 23
M  V30 23 2 23 24
M  V30 24 1 15 25
M  V30 25 2 25 26
M  V30 26 1 26 27
M  V30 27 2 27 28
M  V30 28 1 28 29
M  V30 29 1 11 30
M  V30 30 2 30 31
M  V30 31 1 6 32
M  V30 32 1 32 33
M  V30 33 1 33 3
M  V30 34 1 31 8
M  V30 35 1 29 12
M  V30 36 1 28 14
M  V30 37 1 24 19
M  V30 38 1 1 34
M  V30 39 1 1 35
M  V30 40 1 1 36
M  V30 41 1 2 37
M  V30 42 1 2 38
M  V30 43 1 4 39
M  V30 44 1 4 40
M  V30 45 1 5 41
M  V30 46 1 5 42
M  V30 47 1 7 43
M  V30 48 1 7 44
M  V30 49 1 9 45
M  V30 50 1 10 46
M  V30 51 1 13 47
M  V30 52 1 16 48
M  V30 53 1 17 49 CFG=3
M  V30 54 1 18 50
M  V30 55 1 18 51
M  V30 56 1 18 52
M  V30 57 1 20 53
M  V30 58 1 21 54
M  V30 59 1 22 55
M  V30 60 1 23 56
M  V30 61 1 24 57
M  V30 62 1 26 58
M  V30 63 1 29 59
M  V30 64 1 30 60
M  V30 65 1 31 61
M  V30 66 1 32 62
M  V30 67 1 32 63
M  V30 68 1 33 64
M  V30 69 1 33 65
M  V30 END BOND
M  V30 END CTAB
M  END
>  <Dataset>  (819) 
ChEMBL_Kinases

>  <Ligand_Instance>  (819) 
nan

>  <PDB_ID>  (819) 
nan

>  <Standardized_SMILES>  (819) 
CCN1CCN(Cc2ccc(-c3cc4c(N[C@H](C)c5ccccc5)ncnc4[nH]3)cc2)CC1

>  <Name>  (819) 
AEE-788

>  <Pocket>  (819) 
nan

>  <ATP_Site>  (819) 
nan

>  <Peripheral>  (819) 
nan

>  <Num_H_Atoms_ProtBoundConf>  (819) 
nan

>  <Num_Resolved_Atoms>  (819) 
nan

>  <Num_Not_Resolved_Atoms>  (819) 
nan

$$$$
CHEMBL2325993
     RDKit          3D

  0  0  0  0  0  0  0  0  0  0999 V3000
M  V30 BEGIN CTAB
M  V30 COUNTS 65 68 0 0 0
M  V30 BEGIN ATOM
M  V30 1 C -0.729265 0.532238 5.031139 0
M  V30 2 N 0.542138 -0.154914 4.917183 0
M  V30 3 C 0.206895 -1.579730 4.784518 0
M  V30 4 C 1.258462 0.213864 3.701744 0
M  V30 5 C 1.732707 1.629201 3.710811 0
M  V30 6 C 2.508928 2.053604 2.498530 0
M  V30 7 C 1.805677 1.982947 1.207914 0
M  V30 8 N 1.321146 0.702326 0.786057 0
M  V30 9 C 0.039984 0.696477 0.153862 0
M  V30 10 O -0.666982 1.729769 -0.051227 0
M  V30 11 C -0.800952 -0.389779 -0.411548 0
M  V30 12 N -1.961399 0.243224 -0.998929 0
M  V30 13 C -1.284983 -1.251524 0.714852 0
M  V30 14 C -1.946849 -2.523662 0.334265 0
M  V30 15 N -1.678541 -2.780098 -1.073777 0
M  V30 16 C -2.691106 -3.206448 -1.962047 0
M  V30 17 N -2.853411 -2.403445 -3.031880 0
M  V30 18 C -3.787710 -2.687077 -3.980035 0
M  V30 19 N -4.561340 -3.780386 -3.852519 0
M  V30 20 C -4.415486 -4.591497 -2.795511 0
M  V30 21 N -5.014320 -5.723253 -2.386712 0
M  V30 22 C -4.476912 -6.156526 -1.205186 0
M  V30 23 C -3.484197 -5.288651 -0.805857 0
M  V30 24 C -3.477208 -4.330173 -1.819504 0
M  V30 25 C -0.297797 -2.569924 -1.555235 0
M  V30 26 C 0.012395 -1.103043 -1.438013 0
M  V30 27 C 2.661835 2.471963 0.065069 0
M  V30 28 C 2.565817 3.777153 -0.423464 0
M  V30 29 C 3.348844 4.226745 -1.481353 0
M  V30 30 C 4.247061 3.362303 -2.066866 0
M  V30 31 Cl 5.285303 3.800984 -3.401381 0
M  V30 32 C 4.369920 2.054377 -1.606729 0
M  V30 33 C 3.581202 1.613101 -0.546114 0
M  V30 34 H -1.188774 0.184976 6.004362 0
M  V30 35 H -0.649825 1.629220 5.077928 0
M  V30 36 H -1.455268 0.254485 4.237062 0
M  V30 37 H 0.122777 -1.878436 3.736441 0
M  V30 38 H -0.762033 -1.828024 5.282760 0
M  V30 39 H 0.979599 -2.208703 5.309397 0
M  V30 40 H 0.460995 0.163747 2.909933 0
M  V30 41 H 2.040451 -0.515195 3.439971 0
M  V30 42 H 2.355151 1.780236 4.623195 0
M  V30 43 H 0.834093 2.293257 3.849203 0
M  V30 44 H 3.461283 1.470496 2.533055 0
M  V30 45 H 2.823601 3.121261 2.712296 0
M  V30 46 H 0.956178 2.702721 1.206452 0
M  V30 47 H 1.678604 -0.274066 0.824169 0
M  V30 48 H -2.491526 0.668548 -0.183810 0
M  V30 49 H -1.746681 1.002613 -1.669815 0
M  V30 50 H -1.996143 -0.676296 1.361640 0
M  V30 51 H -0.439658 -1.492817 1.406745 0
M  V30 52 H -1.547357 -3.371033 0.934530 0
M  V30 53 H -3.030309 -2.500652 0.550543 0
M  V30 54 H -3.951606 -2.066295 -4.858417 0
M  V30 55 H -5.790283 -6.160199 -2.954726 0
M  V30 56 H -4.790405 -7.034117 -0.685218 0
M  V30 57 H -2.835422 -5.292443 0.061157 0
M  V30 58 H 0.356288 -3.176046 -0.886138 0
M  V30 59 H -0.185719 -2.954466 -2.581466 0
M  V30 60 H 1.092807 -1.002499 -1.228785 0
M  V30 61 H -0.176393 -0.634004 -2.422731 0
M  V30 62 H 1.860381 4.453171 0.040807 0
M  V30 63 H 3.267335 5.241710 -1.852506 0
M  V30 64 H 5.057597 1.323128 -2.025266 0
M  V30 65 H 3.649344 0.597769 -0.160037 0
M  V30 END ATOM
M  V30 BEGIN BOND
M  V30 1 1 1 2
M  V30 2 1 2 3
M  V30 3 1 2 4
M  V30 4 1 4 5
M  V30 5 1 5 6
M  V30 6 1 6 7
M  V30 7 1 7 8
M  V30 8 1 8 9
M  V30 9 2 9 10
M  V30 10 1 9 11
M  V30 11 1 11 12
M  V30 12 1 11 13
M  V30 13 1 13 14
M  V30 14 1 14 15
M  V30 15 1 15 16
M  V30 16 2 16 17
M  V30 17 1 17 18
M  V30 18 2 18 19
M  V30 19 1 19 20
M  V30 20 1 20 21
M  V30 21 1 21 22
M  V30 22 2 22 23
M  V30 23 1 23 24
M  V30 24 1 15 25
M  V30 25 1 25 26
M  V30 26 1 7 27
M  V30 27 2 27 28
M  V30 28 1 28 29
M  V30 29 2 29 30
M  V30 30 1 30 31
M  V30 31 1 30 32
M  V30 32 2 32 33
M  V30 33 1 26 11
M  V30 34 1 33 27
M  V30 35 1 24 16
M  V30 36 2 24 20
M  V30 37 1 1 34
M  V30 38 1 1 35
M  V30 39 1 1 36
M  V30 40 1 3 37
M  V30 41 1 3 38
M  V30 42 1 3 39
M  V30 43 1 4 40
M  V30 44 1 4 41
M  V30 45 1 5 42
M  V30 46 1 5 43
M  V30 47 1 6 44
M  V30 48 1 6 45
M  V30 49 1 7 46
M  V30 50 1 8 47
M  V30 51 1 12 48
M  V30 52 1 12 49
M  V30 53 1 13 50
M  V30 54 1 13 51
M  V30 55 1 14 52
M  V30 56 1 14 53
M  V30 57 1 18 54
M  V30 58 1 21 55
M  V30 59 1 22 56
M  V30 60 1 23 57
M  V30 61 1 25 58
M  V30 62 1 25 59
M  V30 63 1 26 60
M  V30 64 1 26 61
M  V30 65 1 28 62
M  V30 66 1 29 63
M  V30 67 1 32 64
M  V30 68 1 33 65
M  V30 END BOND
M  V30 END CTAB
M  END
>  <Dataset>  (820) 
ChEMBL_Kinases

>  <Ligand_Instance>  (820) 
nan

>  <PDB_ID>  (820) 
nan

>  <Standardized_SMILES>  (820) 
CN(C)CCCC(NC(=O)C1(N)CCN(c2ncnc3[nH]ccc23)CC1)c1ccc(Cl)cc1

>  <Name>  (820) 
nan

>  <Pocket>  (820) 
nan

>  <ATP_Site>  (820) 
nan

>  <Peripheral>  (820) 
nan

>  <Num_H_Atoms_ProtBoundConf>  (820) 
nan

>  <Num_Resolved_Atoms>  (820) 
nan

>  <Num_Not_Resolved_Atoms>  (820) 
nan

$$$$
CHEMBL2325994
     RDKit          3D

  0  0  0  0  0  0  0  0  0  0999 V3000
M  V30 BEGIN CTAB
M  V30 COUNTS 69 73 0 0 0
M  V30 BEGIN ATOM
M  V30 1 N 1.761797 -1.724294 4.622038 0
M  V30 2 C 0.785025 -1.761294 3.511929 0
M  V30 3 C 1.423236 -0.889963 2.484713 0
M  V30 4 O 2.426088 -0.593112 3.180836 0
M  V30 5 N 0.898715 -0.628730 1.223700 0
M  V30 6 C 1.603355 0.255105 0.257521 0
M  V30 7 C 1.896999 -0.476414 -0.980463 0
M  V30 8 C 2.612215 0.210543 -2.053704 0
M  V30 9 C 2.018685 1.408720 -2.701049 0
M  V30 10 N 2.894998 1.915767 -3.790970 0
M  V30 11 C 2.212052 3.082740 -4.306822 0
M  V30 12 C 1.459723 2.548791 -5.506806 0
M  V30 13 C 2.567005 1.688690 -6.131674 0
M  V30 14 C 3.044075 0.980605 -4.856873 0
M  V30 15 C 0.642190 1.372172 0.091278 0
M  V30 16 C 0.737805 2.747821 0.347249 0
M  V30 17 C -0.324440 3.589594 0.105558 0
M  V30 18 C -1.512555 3.116055 -0.393005 0
M  V30 19 Cl -2.711043 4.370113 -0.618359 0
M  V30 20 C -1.623587 1.773030 -0.649458 0
M  V30 21 C -0.579174 0.906067 -0.417763 0
M  V30 22 C -0.437601 -1.127497 4.092415 0
M  V30 23 C -1.734017 -1.632160 3.543436 0
M  V30 24 N -1.734709 -3.074391 3.451448 0
M  V30 25 C -2.901171 -3.859826 3.628597 0
M  V30 26 N -2.871023 -4.756832 4.624791 0
M  V30 27 C -3.895439 -5.575861 4.920171 0
M  V30 28 N -4.997313 -5.464776 4.155879 0
M  V30 29 C -5.120668 -4.600945 3.141137 0
M  V30 30 N -6.104548 -4.308745 2.245388 0
M  V30 31 C -5.639741 -3.337606 1.455739 0
M  V30 32 C -4.345237 -2.951486 1.791616 0
M  V30 33 C -4.045537 -3.777260 2.870368 0
M  V30 34 C -0.582585 -3.881773 3.175255 0
M  V30 35 C 0.707304 -3.160585 3.067556 0
M  V30 36 H 2.614567 -2.177319 4.244025 0
M  V30 37 H 1.320596 -2.246970 5.402954 0
M  V30 38 H -0.007567 -1.069936 0.965007 0
M  V30 39 H 2.526173 0.635837 0.726672 0
M  V30 40 H 2.544872 -1.383027 -0.717453 0
M  V30 41 H 0.932060 -0.854455 -1.421088 0
M  V30 42 H 3.687819 0.394419 -1.761029 0
M  V30 43 H 2.744007 -0.552097 -2.892083 0
M  V30 44 H 2.064883 2.245829 -1.972039 0
M  V30 45 H 1.052604 1.248685 -3.170448 0
M  V30 46 H 1.562675 3.527624 -3.551300 0
M  V30 47 H 2.934008 3.859057 -4.635561 0
M  V30 48 H 1.097662 3.324736 -6.192496 0
M  V30 49 H 0.664198 1.859088 -5.143116 0
M  V30 50 H 2.170368 0.959229 -6.849420 0
M  V30 51 H 3.347529 2.344573 -6.547801 0
M  V30 52 H 4.108700 0.653924 -4.990964 0
M  V30 53 H 2.428273 0.089408 -4.772326 0
M  V30 54 H 1.730658 2.963880 0.734828 0
M  V30 55 H -0.001593 4.593923 0.383210 0
M  V30 56 H -2.599160 1.489146 -1.042356 0
M  V30 57 H -0.854529 -0.113381 -0.678305 0
M  V30 58 H -0.380785 -0.038402 3.871566 0
M  V30 59 H -0.504883 -1.182709 5.201000 0
M  V30 60 H -2.542183 -1.352826 4.258069 0
M  V30 61 H -1.978538 -1.111229 2.607537 0
M  V30 62 H -3.769057 -6.261362 5.743293 0
M  V30 63 H -7.029980 -4.775699 2.214588 0
M  V30 64 H -6.186740 -2.871212 0.622805 0
M  V30 65 H -3.701630 -2.210721 1.360870 0
M  V30 66 H -0.847907 -4.480643 2.256081 0
M  V30 67 H -0.534939 -4.677397 3.975422 0
M  V30 68 H 1.502608 -3.825825 3.522329 0
M  V30 69 H 0.983184 -3.192191 1.970181 0
M  V30 END ATOM
M  V30 BEGIN BOND
M  V30 1 1 1 2
M  V30 2 1 2 3
M  V30 3 2 3 4
M  V30 4 1 3 5
M  V30 5 1 5 6
M  V30 6 1 6 7
M  V30 7 1 7 8
M  V30 8 1 8 9
M  V30 9 1 9 10
M  V30 10 1 10 11
M  V30 11 1 11 12
M  V30 12 1 12 13
M  V30 13 1 13 14
M  V30 14 1 6 15
M  V30 15 2 15 16
M  V30 16 1 16 17
M  V30 17 2 17 18
M  V30 18 1 18 19
M  V30 19 1 18 20
M  V30 20 2 20 21
M  V30 21 1 2 22
M  V30 22 1 22 23
M  V30 23 1 23 24
M  V30 24 1 24 25
M  V30 25 2 25 26
M  V30 26 1 26 27
M  V30 27 2 27 28
M  V30 28 1 28 29
M  V30 29 1 29 30
M  V30 30 1 30 31
M  V30 31 2 31 32
M  V30 32 1 32 33
M  V30 33 1 24 34
M  V30 34 1 34 35
M  V30 35 1 35 2
M  V30 36 1 14 10
M  V30 37 1 21 15
M  V30 38 1 33 25
M  V30 39 2 33 29
M  V30 40 1 1 36
M  V30 41 1 1 37
M  V30 42 1 5 38
M  V30 43 1 6 39
M  V30 44 1 7 40
M  V30 45 1 7 41
M  V30 46 1 8 42
M  V30 47 1 8 43
M  V30 48 1 9 44
M  V30 49 1 9 45
M  V30 50 1 11 46
M  V30 51 1 11 47
M  V30 52 1 12 48
M  V30 53 1 12 49
M  V30 54 1 13 50
M  V30 55 1 13 51
M  V30 56 1 14 52
M  V30 57 1 14 53
M  V30 58 1 16 54
M  V30 59 1 17 55
M  V30 60 1 20 56
M  V30 61 1 21 57
M  V30 62 1 22 58
M  V30 63 1 22 59
M  V30 64 1 23 60
M  V30 65 1 23 61
M  V30 66 1 27 62
M  V30 67 1 30 63
M  V30 68 1 31 64
M  V30 69 1 32 65
M  V30 70 1 34 66
M  V30 71 1 34 67
M  V30 72 1 35 68
M  V30 73 1 35 69
M  V30 END BOND
M  V30 END CTAB
M  END
>  <Dataset>  (821) 
ChEMBL_Kinases

>  <Ligand_Instance>  (821) 
nan

>  <PDB_ID>  (821) 
nan

>  <Standardized_SMILES>  (821) 
NC1(C(=O)NC(CCCN2CCCC2)c2ccc(Cl)cc2)CCN(c2ncnc3[nH]ccc23)CC1

>  <Name>  (821) 
nan

>  <Pocket>  (821) 
nan

>  <ATP_Site>  (821) 
nan

>  <Peripheral>  (821) 
nan

>  <Num_H_Atoms_ProtBoundConf>  (821) 
nan

>  <Num_Resolved_Atoms>  (821) 
nan

>  <Num_Not_Resolved_Atoms>  (821) 
nan

$$$$
CHEMBL2325995
     RDKit          3D

  0  0  0  0  0  0  0  0  0  0999 V3000
M  V30 BEGIN CTAB
M  V30 COUNTS 70 74 0 0 0
M  V30 BEGIN ATOM
M  V30 1 N 2.892927 -4.538009 2.532280 0
M  V30 2 C 1.705825 -3.960647 1.875470 0
M  V30 3 C 1.995841 -2.489243 1.825598 0
M  V30 4 O 3.113825 -2.219663 2.339111 0
M  V30 5 N 1.082682 -1.560476 1.255995 0
M  V30 6 C 1.196721 -0.150552 1.127699 0
M  V30 7 C 1.212691 0.364591 -0.277390 0
M  V30 8 C 1.338863 1.875986 -0.203809 0
M  V30 9 C 1.352277 2.364535 -1.629708 0
M  V30 10 N 1.466575 3.789564 -1.774115 0
M  V30 11 C 1.459146 4.034746 -3.220041 0
M  V30 12 C 1.020401 5.420330 -3.581140 0
M  V30 13 O 1.342975 6.243459 -2.505668 0
M  V30 14 C 0.500454 5.963200 -1.413770 0
M  V30 15 C 0.284304 4.480302 -1.246903 0
M  V30 16 C 0.172023 0.588747 1.930768 0
M  V30 17 C -1.154747 0.164214 1.907932 0
M  V30 18 C -2.080423 0.875917 2.666925 0
M  V30 19 C -1.714544 1.972266 3.426138 0
M  V30 20 Cl -2.863390 2.886438 4.391830 0
M  V30 21 C -0.397560 2.405265 3.457699 0
M  V30 22 C 0.505494 1.689722 2.700963 0
M  V30 23 C 0.558629 -4.209961 2.792540 0
M  V30 24 C -0.793251 -4.216694 2.171107 0
M  V30 25 N -0.825273 -4.486565 0.765463 0
M  V30 26 C -1.809989 -4.041125 -0.147583 0
M  V30 27 N -1.324106 -3.256979 -1.142704 0
M  V30 28 C -2.159191 -2.766343 -2.077674 0
M  V30 29 N -3.501033 -3.010281 -2.094711 0
M  V30 30 C -4.000599 -3.790818 -1.108582 0
M  V30 31 N -5.242676 -4.251649 -0.786785 0
M  V30 32 C -5.170181 -5.014452 0.330352 0
M  V30 33 C -3.855076 -5.055775 0.750857 0
M  V30 34 C -3.160461 -4.298901 -0.147033 0
M  V30 35 C 0.297101 -5.303642 0.298184 0
M  V30 36 C 1.610543 -4.591457 0.529800 0
M  V30 37 H 3.218919 -3.897858 3.287225 0
M  V30 38 H 2.624583 -5.432889 3.026907 0
M  V30 39 H 0.174640 -1.878877 0.851994 0
M  V30 40 H 2.189790 0.133489 1.578953 0
M  V30 41 H 2.138346 -0.026479 -0.760431 0
M  V30 42 H 0.304570 0.170478 -0.846226 0
M  V30 43 H 2.227387 2.207061 0.368939 0
M  V30 44 H 0.410641 2.240891 0.284610 0
M  V30 45 H 2.202301 1.909152 -2.171806 0
M  V30 46 H 0.364349 2.069343 -2.073211 0
M  V30 47 H 0.697577 3.339020 -3.639374 0
M  V30 48 H 2.472443 3.788160 -3.629177 0
M  V30 49 H -0.077485 5.450216 -3.808394 0
M  V30 50 H 1.604505 5.756723 -4.450434 0
M  V30 51 H -0.481675 6.505200 -1.544951 0
M  V30 52 H 0.985569 6.360954 -0.494907 0
M  V30 53 H -0.585397 4.173049 -1.845813 0
M  V30 54 H 0.131011 4.270867 -0.174868 0
M  V30 55 H -1.479644 -0.689293 1.326068 0
M  V30 56 H -3.123445 0.600293 2.693757 0
M  V30 57 H 0.004079 3.242010 4.009145 0
M  V30 58 H 1.561428 1.969930 2.674861 0
M  V30 59 H 0.616519 -3.435649 3.609584 0
M  V30 60 H 0.717869 -5.178388 3.329780 0
M  V30 61 H -1.487539 -4.905752 2.725333 0
M  V30 62 H -1.270672 -3.210312 2.302907 0
M  V30 63 H -1.866371 -2.130186 -2.912996 0
M  V30 64 H -6.055474 -3.992307 -1.382958 0
M  V30 65 H -6.037029 -5.479429 0.761363 0
M  V30 66 H -3.493191 -5.581448 1.605663 0
M  V30 67 H 0.133651 -5.550234 -0.762944 0
M  V30 68 H 0.262688 -6.240962 0.882284 0
M  V30 69 H 2.438877 -5.297109 0.322710 0
M  V30 70 H 1.701156 -3.800037 -0.244183 0
M  V30 END ATOM
M  V30 BEGIN BOND
M  V30 1 1 1 2
M  V30 2 1 2 3
M  V30 3 2 3 4
M  V30 4 1 3 5
M  V30 5 1 5 6
M  V30 6 1 6 7
M  V30 7 1 7 8
M  V30 8 1 8 9
M  V30 9 1 9 10
M  V30 10 1 10 11
M  V30 11 1 11 12
M  V30 12 1 12 13
M  V30 13 1 13 14
M  V30 14 1 14 15
M  V30 15 1 6 16
M  V30 16 2 16 17
M  V30 17 1 17 18
M  V30 18 2 18 19
M  V30 19 1 19 20
M  V30 20 1 19 21
M  V30 21 2 21 22
M  V30 22 1 2 23
M  V30 23 1 23 24
M  V30 24 1 24 25
M  V30 25 1 25 26
M  V30 26 2 26 27
M  V30 27 1 27 28
M  V30 28 2 28 29
M  V30 29 1 29 30
M  V30 30 1 30 31
M  V30 31 1 31 32
M  V30 32 2 32 33
M  V30 33 1 33 34
M  V30 34 1 25 35
M  V30 35 1 35 36
M  V30 36 1 36 2
M  V30 37 1 15 10
M  V30 38 1 22 16
M  V30 39 1 34 26
M  V30 40 2 34 30
M  V30 41 1 1 37
M  V30 42 1 1 38
M  V30 43 1 5 39
M  V30 44 1 6 40
M  V30 45 1 7 41
M  V30 46 1 7 42
M  V30 47 1 8 43
M  V30 48 1 8 44
M  V30 49 1 9 45
M  V30 50 1 9 46
M  V30 51 1 11 47
M  V30 52 1 11 48
M  V30 53 1 12 49
M  V30 54 1 12 50
M  V30 55 1 14 51
M  V30 56 1 14 52
M  V30 57 1 15 53
M  V30 58 1 15 54
M  V30 59 1 17 55
M  V30 60 1 18 56
M  V30 61 1 21 57
M  V30 62 1 22 58
M  V30 63 1 23 59
M  V30 64 1 23 60
M  V30 65 1 24 61
M  V30 66 1 24 62
M  V30 67 1 28 63
M  V30 68 1 31 64
M  V30 69 1 32 65
M  V30 70 1 33 66
M  V30 71 1 35 67
M  V30 72 1 35 68
M  V30 73 1 36 69
M  V30 74 1 36 70
M  V30 END BOND
M  V30 END CTAB
M  END
>  <Dataset>  (822) 
ChEMBL_Kinases

>  <Ligand_Instance>  (822) 
nan

>  <PDB_ID>  (822) 
nan

>  <Standardized_SMILES>  (822) 
NC1(C(=O)NC(CCCN2CCOCC2)c2ccc(Cl)cc2)CCN(c2ncnc3[nH]ccc23)CC1

>  <Name>  (822) 
nan

>  <Pocket>  (822) 
nan

>  <ATP_Site>  (822) 
nan

>  <Peripheral>  (822) 
nan

>  <Num_H_Atoms_ProtBoundConf>  (822) 
nan

>  <Num_Resolved_Atoms>  (822) 
nan

>  <Num_Not_Resolved_Atoms>  (822) 
nan

$$$$
CHEMBL2325996
     RDKit          3D

  0  0  0  0  0  0  0  0  0  0999 V3000
M  V30 BEGIN CTAB
M  V30 COUNTS 72 76 0 0 0
M  V30 BEGIN ATOM
M  V30 1 N 2.743544 -2.343429 4.183341 0
M  V30 2 C 1.789157 -2.562940 3.072729 0
M  V30 3 C 1.638629 -1.241136 2.441587 0
M  V30 4 O 2.539873 -0.872297 3.271136 0
M  V30 5 N 0.882738 -0.624326 1.416396 0
M  V30 6 C 1.027177 0.795861 1.060578 0
M  V30 7 C 1.638523 0.964219 -0.264421 0
M  V30 8 C 1.875206 2.282359 -0.837603 0
M  V30 9 C 0.822914 3.233605 -1.200397 0
M  V30 10 N -0.115098 2.909829 -2.219841 0
M  V30 11 C -1.078287 1.926945 -2.004313 0
M  V30 12 C -1.755016 1.593759 -3.337728 0
M  V30 13 C -2.539226 2.800013 -3.750472 0
M  V30 14 C -1.652509 4.025332 -3.809216 0
M  V30 15 C -0.753318 4.149644 -2.629762 0
M  V30 16 C -0.194244 1.451936 1.447735 0
M  V30 17 C -1.511968 1.055337 1.192997 0
M  V30 18 C -2.663918 1.683112 1.609323 0
M  V30 19 C -2.509654 2.827352 2.359043 0
M  V30 20 Cl -3.937643 3.662459 2.912151 0
M  V30 21 C -1.273973 3.335136 2.687029 0
M  V30 22 C -0.189053 2.627694 2.218699 0
M  V30 23 C 0.539031 -3.066956 3.711913 0
M  V30 24 C -0.421832 -3.708166 2.794710 0
M  V30 25 N 0.092734 -4.291723 1.594428 0
M  V30 26 C -0.928361 -5.086997 0.955928 0
M  V30 27 N -2.055403 -5.482120 1.570372 0
M  V30 28 C -2.986409 -6.245133 0.987211 0
M  V30 29 N -2.874200 -6.686651 -0.275918 0
M  V30 30 C -1.770680 -6.329700 -0.954585 0
M  V30 31 N -1.420868 -6.624677 -2.216576 0
M  V30 32 C -0.235116 -6.038493 -2.459413 0
M  V30 33 C 0.121859 -5.382247 -1.311548 0
M  V30 34 C -0.825890 -5.543184 -0.332448 0
M  V30 35 C 1.440547 -4.101824 1.153539 0
M  V30 36 C 2.393299 -3.620700 2.223202 0
M  V30 37 H 3.720958 -2.291687 3.830364 0
M  V30 38 H 2.724938 -3.159120 4.835332 0
M  V30 39 H 0.270629 -1.376732 1.042874 0
M  V30 40 H 1.825853 1.144183 1.811488 0
M  V30 41 H 1.255533 0.256086 -1.044113 0
M  V30 42 H 2.714728 0.511178 -0.128197 0
M  V30 43 H 2.552842 2.155690 -1.744841 0
M  V30 44 H 2.588607 2.826968 -0.104708 0
M  V30 45 H 0.233397 3.631329 -0.328995 0
M  V30 46 H 1.394612 4.198593 -1.501569 0
M  V30 47 H -0.812201 0.973658 -1.565870 0
M  V30 48 H -1.904181 2.372187 -1.388580 0
M  V30 49 H -2.458368 0.755743 -3.134332 0
M  V30 50 H -1.043946 1.244794 -4.091614 0
M  V30 51 H -2.921268 2.600498 -4.775895 0
M  V30 52 H -3.382442 2.908548 -3.033913 0
M  V30 53 H -1.133308 4.073925 -4.778507 0
M  V30 54 H -2.337770 4.904827 -3.786028 0
M  V30 55 H -1.293119 4.569213 -1.752474 0
M  V30 56 H 0.053241 4.876698 -2.896749 0
M  V30 57 H -1.613202 0.152874 0.601803 0
M  V30 58 H -3.615343 1.256993 1.333599 0
M  V30 59 H -1.106178 4.225657 3.270362 0
M  V30 60 H 0.806070 3.021851 2.473006 0
M  V30 61 H 0.860770 -3.788420 4.515678 0
M  V30 62 H 0.062716 -2.184288 4.229358 0
M  V30 63 H -0.974821 -4.484942 3.406528 0
M  V30 64 H -1.260810 -3.017416 2.481660 0
M  V30 65 H -3.823923 -6.454943 1.654400 0
M  V30 66 H -1.987429 -7.213695 -2.886709 0
M  V30 67 H 0.245696 -6.131777 -3.400771 0
M  V30 68 H 1.039616 -4.843314 -1.305258 0
M  V30 69 H 1.450966 -3.311013 0.377889 0
M  V30 70 H 1.893786 -5.071179 0.808977 0
M  V30 71 H 2.700559 -4.454267 2.897934 0
M  V30 72 H 3.302497 -3.268725 1.688696 0
M  V30 END ATOM
M  V30 BEGIN BOND
M  V30 1 1 1 2
M  V30 2 1 2 3
M  V30 3 2 3 4
M  V30 4 1 3 5
M  V30 5 1 5 6
M  V30 6 1 6 7
M  V30 7 1 7 8
M  V30 8 1 8 9
M  V30 9 1 9 10
M  V30 10 1 10 11
M  V30 11 1 11 12
M  V30 12 1 12 13
M  V30 13 1 13 14
M  V30 14 1 14 15
M  V30 15 1 6 16
M  V30 16 2 16 17
M  V30 17 1 17 18
M  V30 18 2 18 19
M  V30 19 1 19 20
M  V30 20 1 19 21
M  V30 21 2 21 22
M  V30 22 1 2 23
M  V30 23 1 23 24
M  V30 24 1 24 25
M  V30 25 1 25 26
M  V30 26 2 26 27
M  V30 27 1 27 28
M  V30 28 2 28 29
M  V30 29 1 29 30
M  V30 30 1 30 31
M  V30 31 1 31 32
M  V30 32 2 32 33
M  V30 33 1 33 34
M  V30 34 1 25 35
M  V30 35 1 35 36
M  V30 36 1 36 2
M  V30 37 1 15 10
M  V30 38 1 22 16
M  V30 39 1 34 26
M  V30 40 2 34 30
M  V30 41 1 1 37
M  V30 42 1 1 38
M  V30 43 1 5 39
M  V30 44 1 6 40
M  V30 45 1 7 41
M  V30 46 1 7 42
M  V30 47 1 8 43
M  V30 48 1 8 44
M  V30 49 1 9 45
M  V30 50 1 9 46
M  V30 51 1 11 47
M  V30 52 1 11 48
M  V30 53 1 12 49
M  V30 54 1 12 50
M  V30 55 1 13 51
M  V30 56 1 13 52
M  V30 57 1 14 53
M  V30 58 1 14 54
M  V30 59 1 15 55
M  V30 60 1 15 56
M  V30 61 1 17 57
M  V30 62 1 18 58
M  V30 63 1 21 59
M  V30 64 1 22 60
M  V30 65 1 23 61
M  V30 66 1 23 62
M  V30 67 1 24 63
M  V30 68 1 24 64
M  V30 69 1 28 65
M  V30 70 1 31 66
M  V30 71 1 32 67
M  V30 72 1 33 68
M  V30 73 1 35 69
M  V30 74 1 35 70
M  V30 75 1 36 71
M  V30 76 1 36 72
M  V30 END BOND
M  V30 END CTAB
M  END
>  <Dataset>  (823) 
ChEMBL_Kinases

>  <Ligand_Instance>  (823) 
nan

>  <PDB_ID>  (823) 
nan

>  <Standardized_SMILES>  (823) 
NC1(C(=O)NC(CCCN2CCCCC2)c2ccc(Cl)cc2)CCN(c2ncnc3[nH]ccc23)CC1

>  <Name>  (823) 
nan

>  <Pocket>  (823) 
nan

>  <ATP_Site>  (823) 
nan

>  <Peripheral>  (823) 
nan

>  <Num_H_Atoms_ProtBoundConf>  (823) 
nan

>  <Num_Resolved_Atoms>  (823) 
nan

>  <Num_Not_Resolved_Atoms>  (823) 
nan

$$$$
CHEMBL594755
     RDKit          3D

  0  0  0  0  0  0  0  0  0  0999 V3000
M  V30 BEGIN CTAB
M  V30 COUNTS 59 63 0 0 0
M  V30 BEGIN ATOM
M  V30 1 C 4.567301 -3.036111 -0.650648 0
M  V30 2 C 4.374456 -3.188971 0.813764 0
M  V30 3 O 4.797910 -4.079108 1.650175 0
M  V30 4 C 4.398193 -3.848444 2.876247 0
M  V30 5 C 3.633643 -2.692592 2.858179 0
M  V30 6 C 3.625699 -2.279215 1.530427 0
M  V30 7 C 2.920783 -1.087801 1.092776 0
M  V30 8 N 3.470233 0.015948 0.516109 0
M  V30 9 C 2.656131 1.063676 0.158708 0
M  V30 10 N 3.565844 2.036052 -0.410306 0
M  V30 11 C 1.252770 1.071522 0.354894 0
M  V30 12 O 0.904153 2.268746 -0.134257 0
M  V30 13 C -0.238295 2.971652 -0.307420 0
M  V30 14 C -1.295732 2.513442 -1.238597 0 CFG=1
M  V30 15 N -0.761372 2.445761 -2.606446 0
M  V30 16 C -2.010554 1.240280 -0.903757 0
M  V30 17 C -3.056033 0.984872 -1.954322 0
M  V30 18 C -2.889872 0.274849 -3.122615 0
M  V30 19 C -3.916366 0.108506 -4.003904 0
M  V30 20 C -5.147347 0.662807 -3.719821 0
M  V30 21 C -5.369117 1.383118 -2.564834 0
M  V30 22 C -4.307404 1.535029 -1.689193 0
M  V30 23 C 0.774833 -0.077416 0.942776 0
M  V30 24 C 1.563523 -1.142654 1.311187 0
M  V30 25 C 0.793816 -2.226595 1.910503 0
M  V30 26 C 0.805680 -3.446922 1.233310 0
M  V30 27 N 0.113219 -4.505484 1.727899 0
M  V30 28 C -0.594043 -4.405006 2.871100 0
M  V30 29 N -1.370319 -5.236011 3.617391 0
M  V30 30 N -1.826382 -4.585893 4.670331 0
M  V30 31 C -1.388809 -3.311793 4.684669 0
M  V30 32 C -1.669644 -2.251789 5.689216 0
M  V30 33 C -0.608843 -3.184729 3.552692 0
M  V30 34 N 0.078963 -2.139246 3.058189 0
M  V30 35 H 4.526318 -1.980699 -0.968915 0
M  V30 36 H 3.808071 -3.670061 -1.173338 0
M  V30 37 H 5.564502 -3.433620 -0.923969 0
M  V30 38 H 4.601395 -4.424376 3.769202 0
M  V30 39 H 3.162452 -2.246907 3.728986 0
M  V30 40 H 3.797552 2.754224 0.291999 0
M  V30 41 H 3.940523 2.020306 -1.394049 0
M  V30 42 H -0.757297 3.028202 0.718989 0
M  V30 43 H -0.015404 4.086386 -0.479694 0
M  V30 44 H -2.085554 3.319735 -1.260369 0
M  V30 45 H -1.537672 2.352875 -3.301564 0
M  V30 46 H -0.211330 1.535754 -2.635431 0
M  V30 47 H -2.490343 1.244441 0.073832 0
M  V30 48 H -1.252728 0.408437 -0.987316 0
M  V30 49 H -1.885162 -0.133117 -3.275741 0
M  V30 50 H -3.739860 -0.463360 -4.920461 0
M  V30 51 H -5.979433 0.535645 -4.421254 0
M  V30 52 H -6.354077 1.821467 -2.346153 0
M  V30 53 H -4.487096 2.100368 -0.785271 0
M  V30 54 H -0.274089 0.039041 1.059910 0
M  V30 55 H 1.352632 -3.597609 0.309802 0
M  V30 56 H -1.489408 -6.211954 3.274031 0
M  V30 57 H -0.747306 -1.847357 6.158445 0
M  V30 58 H -2.268995 -1.408361 5.237392 0
M  V30 59 H -2.355838 -2.694874 6.446063 0
M  V30 END ATOM
M  V30 BEGIN BOND
M  V30 1 1 1 2
M  V30 2 1 2 3
M  V30 3 1 3 4
M  V30 4 2 4 5
M  V30 5 1 5 6
M  V30 6 1 6 7
M  V30 7 2 7 8
M  V30 8 1 8 9
M  V30 9 1 9 10
M  V30 10 2 9 11
M  V30 11 1 11 12
M  V30 12 1 12 13
M  V30 13 1 13 14
M  V30 14 1 14 15
M  V30 15 1 14 16
M  V30 16 1 16 17
M  V30 17 2 17 18
M  V30 18 1 18 19
M  V30 19 2 19 20
M  V30 20 1 20 21
M  V30 21 2 21 22
M  V30 22 1 11 23
M  V30 23 2 23 24
M  V30 24 1 24 25
M  V30 25 2 25 26
M  V30 26 1 26 27
M  V30 27 2 27 28
M  V30 28 1 28 29
M  V30 29 1 29 30
M  V30 30 2 30 31
M  V30 31 1 31 32
M  V30 32 1 31 33
M  V30 33 2 33 34
M  V30 34 2 6 2
M  V30 35 1 24 7
M  V30 36 1 34 25
M  V30 37 1 22 17
M  V30 38 1 33 28
M  V30 39 1 1 35
M  V30 40 1 1 36
M  V30 41 1 1 37
M  V30 42 1 4 38
M  V30 43 1 5 39
M  V30 44 1 10 40
M  V30 45 1 10 41
M  V30 46 1 13 42
M  V30 47 1 13 43
M  V30 48 1 14 44 CFG=3
M  V30 49 1 15 45
M  V30 50 1 15 46
M  V30 51 1 16 47
M  V30 52 1 16 48
M  V30 53 1 18 49
M  V30 54 1 19 50
M  V30 55 1 20 51
M  V30 56 1 21 52
M  V30 57 1 22 53
M  V30 58 1 23 54
M  V30 59 1 26 55
M  V30 60 1 29 56
M  V30 61 1 32 57
M  V30 62 1 32 58
M  V30 63 1 32 59
M  V30 END BOND
M  V30 END CTAB
M  END
>  <Dataset>  (824) 
ChEMBL_Kinases

>  <Ligand_Instance>  (824) 
nan

>  <PDB_ID>  (824) 
nan

>  <Standardized_SMILES>  (824) 
Cc1occc1-c1nc(N)c(OC[C@@H](N)Cc2ccccc2)cc1-c1cnc2[nH]nc(C)c2n1

>  <Name>  (824) 
nan

>  <Pocket>  (824) 
nan

>  <ATP_Site>  (824) 
nan

>  <Peripheral>  (824) 
nan

>  <Num_H_Atoms_ProtBoundConf>  (824) 
nan

>  <Num_Resolved_Atoms>  (824) 
nan

>  <Num_Not_Resolved_Atoms>  (824) 
nan

$$$$
CHEMBL2325997
     RDKit          3D

  0  0  0  0  0  0  0  0  0  0999 V3000
M  V30 BEGIN CTAB
M  V30 COUNTS 51 54 0 0 0
M  V30 BEGIN ATOM
M  V30 1 C 0.652792 -4.544899 2.581943 0
M  V30 2 C 0.610795 -4.180322 1.137166 0
M  V30 3 N 0.496804 -2.747165 0.892708 0
M  V30 4 C 1.450422 -2.029789 0.153065 0
M  V30 5 O 2.424407 -2.688679 -0.297937 0
M  V30 6 C 1.397505 -0.570468 -0.133686 0
M  V30 7 N 2.593783 -0.290081 -0.932846 0
M  V30 8 C 1.474578 0.110872 1.210972 0
M  V30 9 C 0.157765 0.829714 1.422519 0
M  V30 10 N 0.200423 1.909351 0.441526 0
M  V30 11 C 0.422317 3.300093 0.656744 0
M  V30 12 N 1.512074 3.792565 -0.004047 0
M  V30 13 C 1.834512 5.099117 0.114394 0
M  V30 14 N 1.094338 5.914020 0.874084 0
M  V30 15 C 0.022205 5.453221 1.530590 0
M  V30 16 N -0.914067 6.000833 2.361302 0
M  V30 17 C -1.806957 5.052445 2.755563 0
M  V30 18 C -1.477571 3.820323 2.182043 0
M  V30 19 C -0.357932 4.122070 1.447510 0
M  V30 20 C -0.026111 1.349822 -0.878285 0
M  V30 21 C 0.189838 -0.146047 -0.870784 0
M  V30 22 C -0.502340 -4.944749 0.487326 0
M  V30 23 C -1.799928 -4.436155 0.619165 0
M  V30 24 C -2.788144 -5.179313 0.002740 0
M  V30 25 C -2.591734 -6.349667 -0.710514 0
M  V30 26 Cl -3.921028 -7.214064 -1.453386 0
M  V30 27 C -1.296258 -6.817295 -0.816747 0
M  V30 28 C -0.271088 -6.112804 -0.219438 0
M  V30 29 H 1.260152 -3.798311 3.162637 0
M  V30 30 H 1.209426 -5.521486 2.667842 0
M  V30 31 H -0.339244 -4.740222 3.031379 0
M  V30 32 H 1.551708 -4.559877 0.650445 0
M  V30 33 H -0.316031 -2.237313 1.277292 0
M  V30 34 H 3.217785 0.341819 -0.408073 0
M  V30 35 H 3.085904 -1.150339 -1.245770 0
M  V30 36 H 2.316783 0.862418 1.135044 0
M  V30 37 H 1.682274 -0.586664 2.050047 0
M  V30 38 H 0.094693 1.253133 2.455076 0
M  V30 39 H -0.681845 0.133489 1.270768 0
M  V30 40 H 2.721844 5.430167 -0.442534 0
M  V30 41 H -0.934131 7.015831 2.650796 0
M  V30 42 H -2.650705 5.226508 3.417927 0
M  V30 43 H -1.956468 2.870796 2.274238 0
M  V30 44 H -1.024961 1.604012 -1.274640 0
M  V30 45 H 0.743320 1.780257 -1.575380 0
M  V30 46 H 0.365643 -0.409512 -1.958357 0
M  V30 47 H -0.751207 -0.660497 -0.596196 0
M  V30 48 H -2.009641 -3.534422 1.159927 0
M  V30 49 H -3.820345 -4.815573 0.081636 0
M  V30 50 H -1.064556 -7.727254 -1.359686 0
M  V30 51 H 0.765904 -6.406618 -0.253450 0
M  V30 END ATOM
M  V30 BEGIN BOND
M  V30 1 1 1 2
M  V30 2 1 2 3
M  V30 3 1 3 4
M  V30 4 2 4 5
M  V30 5 1 4 6
M  V30 6 1 6 7
M  V30 7 1 6 8
M  V30 8 1 8 9
M  V30 9 1 9 10
M  V30 10 1 10 11
M  V30 11 2 11 12
M  V30 12 1 12 13
M  V30 13 2 13 14
M  V30 14 1 14 15
M  V30 15 1 15 16
M  V30 16 1 16 17
M  V30 17 2 17 18
M  V30 18 1 18 19
M  V30 19 1 10 20
M  V30 20 1 20 21
M  V30 21 1 2 22
M  V30 22 2 22 23
M  V30 23 1 23 24
M  V30 24 2 24 25
M  V30 25 1 25 26
M  V30 26 1 25 27
M  V30 27 2 27 28
M  V30 28 1 21 6
M  V30 29 1 28 22
M  V30 30 1 19 11
M  V30 31 2 19 15
M  V30 32 1 1 29
M  V30 33 1 1 30
M  V30 34 1 1 31
M  V30 35 1 2 32
M  V30 36 1 3 33
M  V30 37 1 7 34
M  V30 38 1 7 35
M  V30 39 1 8 36
M  V30 40 1 8 37
M  V30 41 1 9 38
M  V30 42 1 9 39
M  V30 43 1 13 40
M  V30 44 1 16 41
M  V30 45 1 17 42
M  V30 46 1 18 43
M  V30 47 1 20 44
M  V30 48 1 20 45
M  V30 49 1 21 46
M  V30 50 1 21 47
M  V30 51 1 23 48
M  V30 52 1 24 49
M  V30 53 1 27 50
M  V30 54 1 28 51
M  V30 END BOND
M  V30 END CTAB
M  END
>  <Dataset>  (825) 
ChEMBL_Kinases

>  <Ligand_Instance>  (825) 
nan

>  <PDB_ID>  (825) 
nan

>  <Standardized_SMILES>  (825) 
CC(NC(=O)C1(N)CCN(c2ncnc3[nH]ccc23)CC1)c1ccc(Cl)cc1

>  <Name>  (825) 
nan

>  <Pocket>  (825) 
nan

>  <ATP_Site>  (825) 
nan

>  <Peripheral>  (825) 
nan

>  <Num_H_Atoms_ProtBoundConf>  (825) 
nan

>  <Num_Resolved_Atoms>  (825) 
nan

>  <Num_Not_Resolved_Atoms>  (825) 
nan

$$$$
CHEMBL594523
     RDKit          3D

  0  0  0  0  0  0  0  0  0  0999 V3000
M  V30 BEGIN CTAB
M  V30 COUNTS 61 66 0 0 0
M  V30 BEGIN ATOM
M  V30 1 C 2.387545 -4.751712 2.182607 0
M  V30 2 C 1.933159 -3.361240 1.805553 0
M  V30 3 N 2.624178 -2.482939 2.601961 0
M  V30 4 C 2.409435 -1.161366 2.481642 0
M  V30 5 C 3.061172 -0.105523 3.244617 0
M  V30 6 C 2.767147 0.918969 4.123520 0
M  V30 7 C 3.979304 1.531663 4.442656 0
M  V30 8 O 4.931443 0.913631 3.797679 0
M  V30 9 C 4.449429 -0.076215 3.062666 0
M  V30 10 C 1.498298 -0.689219 1.562103 0
M  V30 11 C 1.147133 0.702256 1.294497 0
M  V30 12 C 1.903315 1.696392 0.733560 0
M  V30 13 N 1.387551 2.927829 0.578625 0
M  V30 14 C 0.135053 3.229116 0.959262 0
M  V30 15 N -0.636653 4.335154 0.934855 0
M  V30 16 N -1.841442 4.087083 1.452694 0
M  V30 17 C -1.868949 2.775264 1.832444 0
M  V30 18 C -2.991846 2.020162 2.464428 0
M  V30 19 C -0.635690 2.209795 1.532751 0
M  V30 20 N -0.118004 0.987952 1.684200 0
M  V30 21 C 0.811666 -1.574121 0.769108 0
M  V30 22 C 0.987180 -2.937489 0.844217 0
M  V30 23 O 0.553781 -4.081533 0.293430 0
M  V30 24 C -0.317913 -4.510869 -0.643216 0
M  V30 25 C -1.772203 -4.279370 -0.472535 0 CFG=1
M  V30 26 N -2.285428 -4.884429 0.758067 0
M  V30 27 C -2.281941 -2.894746 -0.569986 0
M  V30 28 C -2.010222 -2.255792 -1.872009 0
M  V30 29 C -1.785606 -2.940002 -3.037626 0
M  V30 30 N -1.556852 -2.092374 -4.079602 0
M  V30 31 C -1.639906 -0.842705 -3.557200 0
M  V30 32 C -1.495188 0.400475 -4.181839 0
M  V30 33 C -1.633649 1.567911 -3.426832 0
M  V30 34 C -1.912003 1.470645 -2.073072 0
M  V30 35 C -2.045705 0.228397 -1.501978 0
M  V30 36 C -1.915497 -0.940571 -2.215139 0
M  V30 37 H 1.854431 -5.455613 1.509314 0
M  V30 38 H 2.028313 -4.909823 3.241676 0
M  V30 39 H 3.480409 -4.796977 2.134041 0
M  V30 40 H 1.703851 0.998265 4.345244 0
M  V30 41 H 3.916639 2.363441 5.129417 0
M  V30 42 H 5.277014 -0.551085 2.552149 0
M  V30 43 H 2.895931 1.377517 0.455806 0
M  V30 44 H -0.327391 5.251233 0.562066 0
M  V30 45 H -2.981837 0.995994 2.036666 0
M  V30 46 H -3.972785 2.472282 2.219866 0
M  V30 47 H -2.843252 1.905737 3.554925 0
M  V30 48 H 0.084954 -1.375164 0.000390 0
M  V30 49 H -0.201303 -5.643951 -0.723475 0
M  V30 50 H -0.008881 -4.172663 -1.688282 0
M  V30 51 H -2.306829 -4.859739 -1.306835 0
M  V30 52 H -2.333600 -5.915565 0.685785 0
M  V30 53 H -1.838747 -4.515333 1.609319 0
M  V30 54 H -3.421306 -2.976871 -0.536668 0
M  V30 55 H -2.060433 -2.236927 0.290230 0
M  V30 56 H -1.757787 -4.005514 -3.288347 0
M  V30 57 H -1.353399 -2.271624 -5.085786 0
M  V30 58 H -1.277112 0.463499 -5.238610 0
M  V30 59 H -1.529753 2.529304 -3.871706 0
M  V30 60 H -2.013160 2.398517 -1.515292 0
M  V30 61 H -2.263873 0.129970 -0.442572 0
M  V30 END ATOM
M  V30 BEGIN BOND
M  V30 1 1 1 2
M  V30 2 2 2 3
M  V30 3 1 3 4
M  V30 4 1 4 5
M  V30 5 1 5 6
M  V30 6 2 6 7
M  V30 7 1 7 8
M  V30 8 1 8 9
M  V30 9 2 4 10
M  V30 10 1 10 11
M  V30 11 2 11 12
M  V30 12 1 12 13
M  V30 13 2 13 14
M  V30 14 1 14 15
M  V30 15 1 15 16
M  V30 16 2 16 17
M  V30 17 1 17 18
M  V30 18 1 17 19
M  V30 19 2 19 20
M  V30 20 1 10 21
M  V30 21 2 21 22
M  V30 22 1 22 23
M  V30 23 1 23 24
M  V30 24 1 24 25
M  V30 25 1 25 26
M  V30 26 1 25 27
M  V30 27 1 27 28
M  V30 28 2 28 29
M  V30 29 1 29 30
M  V30 30 1 30 31
M  V30 31 2 31 32
M  V30 32 1 32 33
M  V30 33 2 33 34
M  V30 34 1 34 35
M  V30 35 2 35 36
M  V30 36 1 22 2
M  V30 37 1 36 28
M  V30 38 2 9 5
M  V30 39 1 20 11
M  V30 40 1 36 31
M  V30 41 1 19 14
M  V30 42 1 1 37
M  V30 43 1 1 38
M  V30 44 1 1 39
M  V30 45 1 6 40
M  V30 46 1 7 41
M  V30 47 1 9 42
M  V30 48 1 12 43
M  V30 49 1 15 44
M  V30 50 1 18 45
M  V30 51 1 18 46
M  V30 52 1 18 47
M  V30 53 1 21 48
M  V30 54 1 24 49
M  V30 55 1 24 50
M  V30 56 1 25 51 CFG=3
M  V30 57 1 26 52
M  V30 58 1 26 53
M  V30 59 1 27 54
M  V30 60 1 27 55
M  V30 61 1 29 56
M  V30 62 1 30 57
M  V30 63 1 32 58
M  V30 64 1 33 59
M  V30 65 1 34 60
M  V30 66 1 35 61
M  V30 END BOND
M  V30 END CTAB
M  END
>  <Dataset>  (826) 
ChEMBL_Kinases

>  <Ligand_Instance>  (826) 
nan

>  <PDB_ID>  (826) 
nan

>  <Standardized_SMILES>  (826) 
Cc1nc(-c2ccoc2)c(-c2cnc3[nH]nc(C)c3n2)cc1OC[C@@H](N)Cc1c[nH]c2ccccc12

>  <Name>  (826) 
nan

>  <Pocket>  (826) 
nan

>  <ATP_Site>  (826) 
nan

>  <Peripheral>  (826) 
nan

>  <Num_H_Atoms_ProtBoundConf>  (826) 
nan

>  <Num_Resolved_Atoms>  (826) 
nan

>  <Num_Not_Resolved_Atoms>  (826) 
nan

$$$$
CHEMBL3338840
     RDKit          3D

  0  0  0  0  0  0  0  0  0  0999 V3000
M  V30 BEGIN CTAB
M  V30 COUNTS 43 47 0 0 0
M  V30 BEGIN ATOM
M  V30 1 C 0.835000 -4.061381 4.238117 0
M  V30 2 C 1.265837 -4.583723 3.052609 0
M  V30 3 C 1.258779 -3.815125 1.920690 0
M  V30 4 C 0.805151 -2.516556 2.034917 0
M  V30 5 C 0.808354 -1.763761 0.880033 0
M  V30 6 N 1.232783 -2.195332 -0.412157 0
M  V30 7 C 0.810065 -3.256989 -1.331734 0
M  V30 8 C 0.404566 -2.709795 -2.682016 0
M  V30 9 N 0.852901 -1.341983 -2.784634 0
M  V30 10 C 2.259474 -1.287412 -2.459603 0
M  V30 11 C 2.330761 -1.405358 -0.934532 0
M  V30 12 N 0.367906 -0.491904 0.974359 0
M  V30 13 C -0.061066 0.043473 2.131543 0
M  V30 14 C -0.521245 1.434326 2.136696 0
M  V30 15 C -0.968057 2.011306 3.312784 0
M  V30 16 C -1.391334 3.343021 3.238792 0
M  V30 17 C -1.377465 4.063719 2.084533 0
M  V30 18 N -1.706971 5.316431 1.700092 0
M  V30 19 N -1.478939 5.486489 0.396898 0
M  V30 20 C -0.989634 4.334399 -0.103827 0
M  V30 21 C -0.919634 3.427938 0.946856 0
M  V30 22 C -0.479716 2.112654 0.919678 0
M  V30 23 N -0.063049 -0.694245 3.258041 0
M  V30 24 C 0.369686 -1.986104 3.229380 0
M  V30 25 C 0.381501 -2.773661 4.368181 0
M  V30 26 H 0.849717 -4.683333 5.112931 0
M  V30 27 H 1.614298 -5.610103 3.008615 0
M  V30 28 H 1.594363 -4.220291 0.995019 0
M  V30 29 H -0.074602 -3.803452 -0.943079 0
M  V30 30 H 1.650200 -3.972510 -1.392618 0
M  V30 31 H 0.883088 -3.370354 -3.454117 0
M  V30 32 H -0.692119 -2.724310 -2.853934 0
M  V30 33 H 0.592657 -0.884995 -3.663177 0
M  V30 34 H 2.671593 -0.303407 -2.813124 0
M  V30 35 H 2.869484 -2.060722 -2.959341 0
M  V30 36 H 2.332095 -0.353720 -0.579267 0
M  V30 37 H 3.291792 -1.877847 -0.634980 0
M  V30 38 H -0.981978 1.443410 4.236004 0
M  V30 39 H -1.754257 3.839664 4.151653 0
M  V30 40 H -2.090324 6.017870 2.396818 0
M  V30 41 H -0.716399 4.204377 -1.160243 0
M  V30 42 H -0.133878 1.666811 0.008220 0
M  V30 43 H 0.043581 -2.376898 5.317718 0
M  V30 END ATOM
M  V30 BEGIN BOND
M  V30 1 2 1 2
M  V30 2 1 2 3
M  V30 3 2 3 4
M  V30 4 1 4 5
M  V30 5 1 5 6
M  V30 6 1 6 7
M  V30 7 1 7 8
M  V30 8 1 8 9
M  V30 9 1 9 10
M  V30 10 1 10 11
M  V30 11 2 5 12
M  V30 12 1 12 13
M  V30 13 1 13 14
M  V30 14 2 14 15
M  V30 15 1 15 16
M  V30 16 2 16 17
M  V30 17 1 17 18
M  V30 18 1 18 19
M  V30 19 2 19 20
M  V30 20 1 20 21
M  V30 21 2 21 22
M  V30 22 2 13 23
M  V30 23 1 23 24
M  V30 24 2 24 25
M  V30 25 1 25 1
M  V30 26 1 24 4
M  V30 27 1 11 6
M  V30 28 1 22 14
M  V30 29 1 21 17
M  V30 30 1 1 26
M  V30 31 1 2 27
M  V30 32 1 3 28
M  V30 33 1 7 29
M  V30 34 1 7 30
M  V30 35 1 8 31
M  V30 36 1 8 32
M  V30 37 1 9 33
M  V30 38 1 10 34
M  V30 39 1 10 35
M  V30 40 1 11 36
M  V30 41 1 11 37
M  V30 42 1 15 38
M  V30 43 1 16 39
M  V30 44 1 18 40
M  V30 45 1 20 41
M  V30 46 1 22 42
M  V30 47 1 25 43
M  V30 END BOND
M  V30 END CTAB
M  END
>  <Dataset>  (827) 
ChEMBL_Kinases

>  <Ligand_Instance>  (827) 
nan

>  <PDB_ID>  (827) 
nan

>  <Standardized_SMILES>  (827) 
c1ccc2c(N3CCNCC3)nc(-c3ccc4[nH]ncc4c3)nc2c1

>  <Name>  (827) 
nan

>  <Pocket>  (827) 
nan

>  <ATP_Site>  (827) 
nan

>  <Peripheral>  (827) 
nan

>  <Num_H_Atoms_ProtBoundConf>  (827) 
nan

>  <Num_Resolved_Atoms>  (827) 
nan

>  <Num_Not_Resolved_Atoms>  (827) 
nan

$$$$
CHEMBL595459
     RDKit          3D

  0  0  0  0  0  0  0  0  0  0999 V3000
M  V30 BEGIN CTAB
M  V30 COUNTS 64 69 0 0 0
M  V30 BEGIN ATOM
M  V30 1 C 4.472760 1.349173 1.484609 0
M  V30 2 C 3.862522 0.558349 2.583066 0
M  V30 3 O 4.058428 0.803331 3.854975 0
M  V30 4 C 3.404940 -0.041775 4.613438 0
M  V30 5 C 2.712057 -0.928634 3.816307 0
M  V30 6 C 3.017724 -0.528093 2.524391 0
M  V30 7 C 2.527055 -1.150945 1.301647 0
M  V30 8 N 2.799175 -2.425471 0.903867 0
M  V30 9 C 2.274969 -2.890864 -0.271927 0
M  V30 10 N 2.714860 -4.237878 -0.440415 0
M  V30 11 C 1.454629 -2.119089 -1.114397 0
M  V30 12 O 1.124145 -2.890684 -2.174757 0
M  V30 13 C 0.349337 -2.665094 -3.288420 0
M  V30 14 C -1.075374 -2.371844 -2.893970 0 CFG=1
M  V30 15 N -1.800423 -2.153475 -4.157411 0
M  V30 16 C -1.685508 -3.597687 -2.243542 0
M  V30 17 C -3.092614 -3.382596 -1.826099 0
M  V30 18 C -4.334184 -3.765064 -2.319309 0
M  V30 19 N -5.283448 -3.263231 -1.500245 0
M  V30 20 C -4.727256 -2.572462 -0.496890 0
M  V30 21 C -5.272981 -1.890652 0.566451 0
M  V30 22 C -4.496397 -1.238146 1.497402 0
M  V30 23 C -3.130056 -1.288884 1.329479 0
M  V30 24 C -2.603337 -1.975712 0.260055 0
M  V30 25 C -3.365538 -2.638530 -0.687273 0
M  V30 26 C 1.208232 -0.839414 -0.671579 0
M  V30 27 C 1.727062 -0.354857 0.508484 0
M  V30 28 C 1.319663 1.025831 0.753386 0
M  V30 29 C 0.550641 1.353752 1.874543 0
M  V30 30 C 0.146209 2.661203 2.131005 0
M  V30 31 C -0.587288 3.299322 3.104344 0
M  V30 32 C -1.193562 2.621739 4.264339 0
M  V30 33 N -0.621113 4.618508 2.770005 0
M  V30 34 N 0.051451 4.798012 1.652973 0
M  V30 35 C 0.549563 3.625157 1.209442 0
M  V30 36 C 1.301706 3.313329 0.110489 0
M  V30 37 N 1.656730 2.052249 -0.081459 0
M  V30 38 H 4.097319 2.379164 1.422651 0
M  V30 39 H 5.564262 1.411148 1.730583 0
M  V30 40 H 4.427047 0.804376 0.511455 0
M  V30 41 H 3.440920 -0.001585 5.695667 0
M  V30 42 H 2.078520 -1.745471 4.154366 0
M  V30 43 H 2.252870 -4.985189 0.149752 0
M  V30 44 H 3.470733 -4.307052 -1.159298 0
M  V30 45 H 0.747570 -1.864521 -3.950607 0
M  V30 46 H 0.352362 -3.588391 -3.928249 0
M  V30 47 H -1.202675 -1.474503 -2.299029 0
M  V30 48 H -2.712654 -1.698398 -4.010693 0
M  V30 49 H -1.195756 -1.564992 -4.787835 0
M  V30 50 H -1.633346 -4.439791 -2.966659 0
M  V30 51 H -1.055041 -3.851546 -1.370206 0
M  V30 52 H -4.374184 -4.364214 -3.218485 0
M  V30 53 H -6.288278 -3.438773 -1.697526 0
M  V30 54 H -6.337380 -1.835428 0.719858 0
M  V30 55 H -4.843023 -0.682021 2.358424 0
M  V30 56 H -2.462325 -0.790330 2.035018 0
M  V30 57 H -1.517664 -1.986973 0.170612 0
M  V30 58 H 0.586486 -0.310278 -1.365271 0
M  V30 59 H 0.253214 0.569718 2.576401 0
M  V30 60 H -1.941082 1.855681 3.978648 0
M  V30 61 H -0.447632 2.195004 4.952935 0
M  V30 62 H -1.788628 3.401079 4.822352 0
M  V30 63 H 0.138327 5.753052 1.233878 0
M  V30 64 H 1.585725 4.105981 -0.572028 0
M  V30 END ATOM
M  V30 BEGIN BOND
M  V30 1 1 1 2
M  V30 2 1 2 3
M  V30 3 1 3 4
M  V30 4 2 4 5
M  V30 5 1 5 6
M  V30 6 1 6 7
M  V30 7 2 7 8
M  V30 8 1 8 9
M  V30 9 1 9 10
M  V30 10 2 9 11
M  V30 11 1 11 12
M  V30 12 1 12 13
M  V30 13 1 13 14
M  V30 14 1 14 15
M  V30 15 1 14 16
M  V30 16 1 16 17
M  V30 17 2 17 18
M  V30 18 1 18 19
M  V30 19 1 19 20
M  V30 20 2 20 21
M  V30 21 1 21 22
M  V30 22 2 22 23
M  V30 23 1 23 24
M  V30 24 2 24 25
M  V30 25 1 11 26
M  V30 26 2 26 27
M  V30 27 1 27 28
M  V30 28 2 28 29
M  V30 29 1 29 30
M  V30 30 1 30 31
M  V30 31 1 31 32
M  V30 32 2 31 33
M  V30 33 1 33 34
M  V30 34 1 34 35
M  V30 35 1 35 36
M  V30 36 2 36 37
M  V30 37 2 6 2
M  V30 38 1 27 7
M  V30 39 1 37 28
M  V30 40 1 25 17
M  V30 41 2 35 30
M  V30 42 1 25 20
M  V30 43 1 1 38
M  V30 44 1 1 39
M  V30 45 1 1 40
M  V30 46 1 4 41
M  V30 47 1 5 42
M  V30 48 1 10 43
M  V30 49 1 10 44
M  V30 50 1 13 45
M  V30 51 1 13 46
M  V30 52 1 14 47 CFG=1
M  V30 53 1 15 48
M  V30 54 1 15 49
M  V30 55 1 16 50
M  V30 56 1 16 51
M  V30 57 1 18 52
M  V30 58 1 19 53
M  V30 59 1 21 54
M  V30 60 1 22 55
M  V30 61 1 23 56
M  V30 62 1 24 57
M  V30 63 1 26 58
M  V30 64 1 29 59
M  V30 65 1 32 60
M  V30 66 1 32 61
M  V30 67 1 32 62
M  V30 68 1 34 63
M  V30 69 1 36 64
M  V30 END BOND
M  V30 END CTAB
M  END
>  <Dataset>  (828) 
ChEMBL_Kinases

>  <Ligand_Instance>  (828) 
nan

>  <PDB_ID>  (828) 
nan

>  <Standardized_SMILES>  (828) 
Cc1occc1-c1nc(N)c(OC[C@@H](N)Cc2c[nH]c3ccccc23)cc1-c1cc2c(C)n[nH]c2cn1

>  <Name>  (828) 
nan

>  <Pocket>  (828) 
nan

>  <ATP_Site>  (828) 
nan

>  <Peripheral>  (828) 
nan

>  <Num_H_Atoms_ProtBoundConf>  (828) 
nan

>  <Num_Resolved_Atoms>  (828) 
nan

>  <Num_Not_Resolved_Atoms>  (828) 
nan

$$$$
CHEMBL2321965
     RDKit          3D

  0  0  0  0  0  0  0  0  0  0999 V3000
M  V30 BEGIN CTAB
M  V30 COUNTS 36 39 0 0 0
M  V30 BEGIN ATOM
M  V30 1 O -1.846415 -3.844610 0.731797 0
M  V30 2 C -0.616112 -3.746133 0.877782 0
M  V30 3 N 0.204653 -4.873079 1.156068 0
M  V30 4 C 1.548955 -4.354977 1.253318 0
M  V30 5 C 2.656070 -5.133692 1.516246 0
M  V30 6 Br 2.585324 -7.014450 1.792264 0
M  V30 7 C 3.872921 -4.493435 1.578307 0
M  V30 8 C 3.934456 -3.107882 1.376206 0
M  V30 9 C 2.765776 -2.432264 1.120859 0
M  V30 10 C 1.550719 -2.999345 1.047931 0
M  V30 11 C 0.204646 -2.571912 0.807038 0
M  V30 12 C -0.137726 -1.357378 0.578054 0
M  V30 13 N -1.493388 -1.004590 0.347245 0
M  V30 14 C -1.641703 0.389459 0.116363 0
M  V30 15 C -2.749249 1.185660 -0.149271 0
M  V30 16 C -2.513328 2.528700 -0.322177 0
M  V30 17 C -1.290348 3.135862 -0.254356 0
M  V30 18 C -0.994519 4.542305 -0.429061 0
M  V30 19 N -1.840600 5.483244 -0.682490 0
M  V30 20 O -3.179034 5.213999 -0.816696 0
M  V30 21 C -0.229740 2.312027 0.009339 0
M  V30 22 C -0.360329 0.948797 0.199083 0
M  V30 23 C 0.573335 -0.121516 0.483558 0
M  V30 24 N 1.767926 0.108597 0.604853 0
M  V30 25 O 2.409698 1.289913 0.509577 0
M  V30 26 H -0.139518 -5.872889 1.262693 0
M  V30 27 H 4.744076 -5.094624 1.783446 0
M  V30 28 H 4.968067 -2.742266 1.455957 0
M  V30 29 H 3.052168 -1.438993 1.007682 0
M  V30 30 H -2.320150 -1.628417 0.333761 0
M  V30 31 H -3.714841 0.739923 -0.207926 0
M  V30 32 H -3.391072 3.079219 -0.520492 0
M  V30 33 H -0.006064 4.952864 -0.362077 0
M  V30 34 H -3.644558 5.146126 -1.713621 0
M  V30 35 H 0.752822 2.761200 0.069701 0
M  V30 36 H 2.730749 1.887686 1.234026 0
M  V30 END ATOM
M  V30 BEGIN BOND
M  V30 1 2 1 2
M  V30 2 1 2 3
M  V30 3 1 3 4
M  V30 4 2 4 5
M  V30 5 1 5 6
M  V30 6 1 5 7
M  V30 7 2 7 8
M  V30 8 1 8 9
M  V30 9 2 9 10
M  V30 10 1 10 11
M  V30 11 2 11 12
M  V30 12 1 12 13
M  V30 13 1 13 14
M  V30 14 2 14 15
M  V30 15 1 15 16
M  V30 16 2 16 17
M  V30 17 1 17 18
M  V30 18 2 18 19
M  V30 19 1 19 20
M  V30 20 1 17 21
M  V30 21 2 21 22
M  V30 22 1 22 23
M  V30 23 2 23 24
M  V30 24 1 24 25
M  V30 25 1 11 2
M  V30 26 1 23 12
M  V30 27 1 10 4
M  V30 28 1 22 14
M  V30 29 1 3 26
M  V30 30 1 7 27
M  V30 31 1 8 28
M  V30 32 1 9 29
M  V30 33 1 13 30
M  V30 34 1 15 31
M  V30 35 1 16 32
M  V30 36 1 18 33
M  V30 37 1 20 34
M  V30 38 1 21 35
M  V30 39 1 25 36
M  V30 END BOND
M  V30 END CTAB
M  END
>  <Dataset>  (829) 
ChEMBL_Kinases

>  <Ligand_Instance>  (829) 
nan

>  <PDB_ID>  (829) 
nan

>  <Standardized_SMILES>  (829) 
O=C1Nc2c(Br)cccc2/C1=C1/Nc2ccc(/C=N\O)cc2/C1=N\O

>  <Name>  (829) 
nan

>  <Pocket>  (829) 
nan

>  <ATP_Site>  (829) 
nan

>  <Peripheral>  (829) 
nan

>  <Num_H_Atoms_ProtBoundConf>  (829) 
nan

>  <Num_Resolved_Atoms>  (829) 
nan

>  <Num_Not_Resolved_Atoms>  (829) 
nan

$$$$
CHEMBL598194
     RDKit          3D

  0  0  0  0  0  0  0  0  0  0999 V3000
M  V30 BEGIN CTAB
M  V30 COUNTS 48 51 0 0 0
M  V30 BEGIN ATOM
M  V30 1 N 0.876674 -3.181994 4.091143 0
M  V30 2 C 0.224572 -2.257379 3.133886 0
M  V30 3 C 0.985171 -2.427033 1.882754 0
M  V30 4 O 1.631408 -3.529772 1.833593 0
M  V30 5 N 1.111477 -1.575754 0.742140 0
M  V30 6 C 1.801308 -1.669684 -0.508868 0
M  V30 7 C 2.355512 -0.413109 -0.988158 0
M  V30 8 C 1.489846 0.323877 -1.817832 0
M  V30 9 C 1.756514 1.546180 -2.432407 0
M  V30 10 C 2.996685 2.085016 -2.197526 0
M  V30 11 Cl 3.367468 3.623754 -2.950094 0
M  V30 12 C 3.872929 1.404050 -1.395050 0
M  V30 13 C 3.594080 0.199730 -0.798571 0
M  V30 14 C 0.272289 -0.895840 3.710986 0
M  V30 15 C -0.735918 0.050844 3.063426 0
M  V30 16 N -1.679453 -0.687942 2.220195 0
M  V30 17 C -2.048788 -0.680644 0.847609 0
M  V30 18 N -2.393513 -1.923561 0.325285 0
M  V30 19 C -2.667704 -1.999541 -0.997817 0
M  V30 20 N -2.635408 -0.959848 -1.827015 0
M  V30 21 C -2.311717 0.243013 -1.327930 0
M  V30 22 N -2.195022 1.471264 -1.853068 0
M  V30 23 C -1.844638 2.407891 -0.944741 0
M  V30 24 C -1.730645 1.733076 0.244562 0
M  V30 25 C -2.014249 0.408010 0.003576 0
M  V30 26 C -2.259500 -1.725915 3.072221 0
M  V30 27 C -1.174963 -2.818471 3.024715 0
M  V30 28 H 1.765428 -2.792309 4.455772 0
M  V30 29 H 0.200453 -3.349022 4.857867 0
M  V30 30 H 0.649161 -0.656339 0.819097 0
M  V30 31 H 1.061694 -2.064334 -1.265451 0
M  V30 32 H 2.651815 -2.421529 -0.440291 0
M  V30 33 H 0.476853 -0.051632 -2.046785 0
M  V30 34 H 1.034727 2.041064 -3.064115 0
M  V30 35 H 4.833031 1.857177 -1.231529 0
M  V30 36 H 4.235873 -0.362993 -0.165021 0
M  V30 37 H 1.296528 -0.479021 3.551680 0
M  V30 38 H 0.165499 -0.947156 4.809229 0
M  V30 39 H -0.225744 0.870904 2.543056 0
M  V30 40 H -1.322903 0.469957 3.895751 0
M  V30 41 H -2.933166 -2.968576 -1.390390 0
M  V30 42 H -2.337249 1.766070 -2.847344 0
M  V30 43 H -1.670141 3.467306 -1.052354 0
M  V30 44 H -1.474758 2.202365 1.185109 0
M  V30 45 H -2.418926 -1.440320 4.103241 0
M  V30 46 H -3.158075 -2.106157 2.552758 0
M  V30 47 H -1.279672 -3.481995 2.155858 0
M  V30 48 H -1.450816 -3.470891 3.911575 0
M  V30 END ATOM
M  V30 BEGIN BOND
M  V30 1 1 1 2
M  V30 2 1 2 3
M  V30 3 2 3 4
M  V30 4 1 3 5
M  V30 5 1 5 6
M  V30 6 1 6 7
M  V30 7 2 7 8
M  V30 8 1 8 9
M  V30 9 2 9 10
M  V30 10 1 10 11
M  V30 11 1 10 12
M  V30 12 2 12 13
M  V30 13 1 2 14
M  V30 14 1 14 15
M  V30 15 1 15 16
M  V30 16 1 16 17
M  V30 17 2 17 18
M  V30 18 1 18 19
M  V30 19 2 19 20
M  V30 20 1 20 21
M  V30 21 1 21 22
M  V30 22 1 22 23
M  V30 23 2 23 24
M  V30 24 1 24 25
M  V30 25 1 16 26
M  V30 26 1 26 27
M  V30 27 1 27 2
M  V30 28 1 13 7
M  V30 29 1 25 17
M  V30 30 2 25 21
M  V30 31 1 1 28
M  V30 32 1 1 29
M  V30 33 1 5 30
M  V30 34 1 6 31
M  V30 35 1 6 32
M  V30 36 1 8 33
M  V30 37 1 9 34
M  V30 38 1 12 35
M  V30 39 1 13 36
M  V30 40 1 14 37
M  V30 41 1 14 38
M  V30 42 1 15 39
M  V30 43 1 15 40
M  V30 44 1 19 41
M  V30 45 1 22 42
M  V30 46 1 23 43
M  V30 47 1 24 44
M  V30 48 1 26 45
M  V30 49 1 26 46
M  V30 50 1 27 47
M  V30 51 1 27 48
M  V30 END BOND
M  V30 END CTAB
M  END
>  <Dataset>  (830) 
ChEMBL_Kinases

>  <Ligand_Instance>  (830) 
nan

>  <PDB_ID>  (830) 
nan

>  <Standardized_SMILES>  (830) 
NC1(C(=O)NCc2ccc(Cl)cc2)CCN(c2ncnc3[nH]ccc23)CC1

>  <Name>  (830) 
nan

>  <Pocket>  (830) 
nan

>  <ATP_Site>  (830) 
nan

>  <Peripheral>  (830) 
nan

>  <Num_H_Atoms_ProtBoundConf>  (830) 
nan

>  <Num_Resolved_Atoms>  (830) 
nan

>  <Num_Not_Resolved_Atoms>  (830) 
nan

$$$$
CHEMBL4877727
     RDKit          3D

  0  0  0  0  0  0  0  0  0  0999 V3000
M  V30 BEGIN CTAB
M  V30 COUNTS 40 43 0 0 0
M  V30 BEGIN ATOM
M  V30 1 C 2.073670 -7.025121 2.129894 0
M  V30 2 N 2.559057 -6.099832 1.128173 0
M  V30 3 C 1.701037 -4.981102 0.939358 0
M  V30 4 O 0.722651 -5.091712 1.715332 0
M  V30 5 C 2.110412 -3.995165 -0.057108 0
M  V30 6 C 1.403107 -2.871779 -0.361190 0
M  V30 7 C 1.855235 -2.008988 -1.302626 0
M  V30 8 N 1.211352 -0.800559 -1.716017 0
M  V30 9 N 0.787524 -0.451359 -2.924931 0
M  V30 10 C 0.226419 0.778076 -2.896392 0
M  V30 11 C 0.340723 1.163854 -1.552983 0
M  V30 12 C -0.076993 2.343706 -0.968767 0
M  V30 13 C 0.132022 2.529969 0.382560 0
M  V30 14 N -0.217166 3.644483 1.201178 0
M  V30 15 C -1.452946 3.390003 1.903059 0
M  V30 16 C -1.135847 2.838271 3.148259 0
M  V30 17 F 0.111663 2.570813 3.648137 0
M  V30 18 C -2.128130 2.488627 4.050217 0
M  V30 19 C -3.449037 2.698644 3.688096 0
M  V30 20 C -3.740514 3.243866 2.454839 0
M  V30 21 C -2.770932 3.591651 1.561103 0
M  V30 22 Cl -2.942255 4.288102 -0.031418 0
M  V30 23 N 0.734942 1.564161 1.100708 0
M  V30 24 C 1.139684 0.416529 0.529324 0
M  V30 25 C 0.961196 0.166558 -0.817179 0
M  V30 26 C 3.041572 -2.304120 -1.934209 0
M  V30 27 S 3.584204 -3.934593 -1.149356 0
M  V30 28 H 2.786281 -7.844511 2.334563 0
M  V30 29 H 1.720357 -6.561021 3.056774 0
M  V30 30 H 1.179056 -7.519187 1.685846 0
M  V30 31 H 3.469221 -6.302436 0.629251 0
M  V30 32 H 0.451537 -2.644171 0.153958 0
M  V30 33 H -0.219820 1.375679 -3.680104 0
M  V30 34 H -0.560810 3.169187 -1.448044 0
M  V30 35 H 0.324113 4.522674 1.295685 0
M  V30 36 H -1.963386 2.058987 5.029162 0
M  V30 37 H -4.254283 2.441342 4.360220 0
M  V30 38 H -4.746630 3.439978 2.096014 0
M  V30 39 H 1.634778 -0.405747 1.068196 0
M  V30 40 H 3.600415 -1.732205 -2.743753 0
M  V30 END ATOM
M  V30 BEGIN BOND
M  V30 1 1 1 2
M  V30 2 1 2 3
M  V30 3 2 3 4
M  V30 4 1 3 5
M  V30 5 2 5 6
M  V30 6 1 6 7
M  V30 7 1 7 8
M  V30 8 1 8 9
M  V30 9 2 9 10
M  V30 10 1 10 11
M  V30 11 2 11 12
M  V30 12 1 12 13
M  V30 13 1 13 14
M  V30 14 1 14 15
M  V30 15 2 15 16
M  V30 16 1 16 17
M  V30 17 1 16 18
M  V30 18 2 18 19
M  V30 19 1 19 20
M  V30 20 2 20 21
M  V30 21 1 21 22
M  V30 22 2 13 23
M  V30 23 1 23 24
M  V30 24 2 24 25
M  V30 25 2 7 26
M  V30 26 1 26 27
M  V30 27 1 27 5
M  V30 28 1 25 8
M  V30 29 1 25 11
M  V30 30 1 21 15
M  V30 31 1 1 28
M  V30 32 1 1 29
M  V30 33 1 1 30
M  V30 34 1 2 31
M  V30 35 1 6 32
M  V30 36 1 10 33
M  V30 37 1 12 34
M  V30 38 1 14 35
M  V30 39 1 18 36
M  V30 40 1 19 37
M  V30 41 1 20 38
M  V30 42 1 24 39
M  V30 43 1 26 40
M  V30 END BOND
M  V30 END CTAB
M  END
>  <Dataset>  (831) 
ChEMBL_Kinases

>  <Ligand_Instance>  (831) 
nan

>  <PDB_ID>  (831) 
nan

>  <Standardized_SMILES>  (831) 
CNC(=O)c1cc(-n2ncc3cc(Nc4c(F)cccc4Cl)ncc32)cs1

>  <Name>  (831) 
nan

>  <Pocket>  (831) 
nan

>  <ATP_Site>  (831) 
nan

>  <Peripheral>  (831) 
nan

>  <Num_H_Atoms_ProtBoundConf>  (831) 
nan

>  <Num_Resolved_Atoms>  (831) 
nan

>  <Num_Not_Resolved_Atoms>  (831) 
nan

$$$$
CHEMBL2325728
     RDKit          3D

  0  0  0  0  0  0  0  0  0  0999 V3000
M  V30 BEGIN CTAB
M  V30 COUNTS 66 70 0 0 0
M  V30 BEGIN ATOM
M  V30 1 N 2.384715 -2.599557 -1.145913 0
M  V30 2 C 1.255658 -1.923223 -0.486763 0
M  V30 3 C 1.840288 -0.872747 0.340372 0
M  V30 4 O 3.109393 -1.020824 0.213415 0
M  V30 5 N 1.293747 0.154011 1.159339 0
M  V30 6 C 2.232119 0.993968 1.830991 0 CFG=1
M  V30 7 C 2.030028 2.444765 1.506603 0
M  V30 8 C 2.161347 2.812332 0.077460 0
M  V30 9 N 1.203431 2.171219 -0.805534 0
M  V30 10 C 1.461017 2.612318 -2.189250 0
M  V30 11 C 0.185438 2.241158 -2.882721 0
M  V30 12 C -0.878305 2.220749 -1.806697 0
M  V30 13 C -0.134364 2.725808 -0.593383 0
M  V30 14 C 2.008508 0.802427 3.296007 0
M  V30 15 C 1.916842 1.733893 4.286863 0
M  V30 16 C 1.707115 1.343001 5.586449 0
M  V30 17 C 1.578803 0.020200 5.964565 0
M  V30 18 Cl 1.310185 -0.385503 7.657354 0
M  V30 19 C 1.667554 -0.952715 4.978925 0
M  V30 20 C 1.881155 -0.542686 3.659986 0
M  V30 21 C 0.241413 -1.570093 -1.477296 0
M  V30 22 C -1.203038 -1.630263 -1.024340 0
M  V30 23 N -1.496660 -2.903503 -0.403862 0
M  V30 24 C -2.683770 -3.387502 0.151726 0
M  V30 25 N -2.554608 -3.683645 1.474232 0
M  V30 26 C -3.617603 -4.163874 2.174838 0
M  V30 27 N -4.826677 -4.370250 1.621336 0
M  V30 28 C -4.978832 -4.087000 0.323044 0
M  V30 29 N -5.985509 -4.151708 -0.564520 0
M  V30 30 C -5.597210 -3.729276 -1.802138 0
M  V30 31 C -4.249627 -3.362402 -1.728422 0
M  V30 32 C -3.926060 -3.601303 -0.410621 0
M  V30 33 C -0.328806 -3.774695 -0.380707 0
M  V30 34 C 0.697769 -3.004594 0.453788 0
M  V30 35 H 2.068362 -3.564428 -1.465582 0
M  V30 36 H 3.116816 -2.837848 -0.412950 0
M  V30 37 H 0.279184 0.125252 1.134944 0
M  V30 38 H 3.293679 0.735675 1.569155 0
M  V30 39 H 2.750099 3.085352 2.086798 0
M  V30 40 H 0.984554 2.748541 1.819423 0
M  V30 41 H 2.111733 3.887134 -0.084115 0
M  V30 42 H 3.173219 2.465955 -0.281223 0
M  V30 43 H 1.597906 3.719046 -2.161858 0
M  V30 44 H 2.371038 2.153972 -2.601991 0
M  V30 45 H -0.055734 3.043083 -3.626760 0
M  V30 46 H 0.233727 1.288454 -3.451591 0
M  V30 47 H -1.214373 1.180725 -1.706427 0
M  V30 48 H -1.703043 2.907962 -2.098417 0
M  V30 49 H -0.036693 3.828203 -0.692235 0
M  V30 50 H -0.590810 2.401452 0.356757 0
M  V30 51 H 2.020807 2.743481 3.951354 0
M  V30 52 H 1.646616 2.141451 6.312455 0
M  V30 53 H 1.568937 -1.971675 5.265487 0
M  V30 54 H 1.934347 -1.378808 2.970171 0
M  V30 55 H 0.367747 -0.593904 -1.981066 0
M  V30 56 H 0.329365 -2.311268 -2.326795 0
M  V30 57 H -1.437378 -0.775757 -0.357770 0
M  V30 58 H -1.771407 -1.594683 -1.975902 0
M  V30 59 H -3.508399 -4.399785 3.236268 0
M  V30 60 H -6.959900 -4.492738 -0.315842 0
M  V30 61 H -6.246320 -3.697408 -2.664187 0
M  V30 62 H -3.632984 -2.985333 -2.528176 0
M  V30 63 H 0.037257 -4.073921 -1.358956 0
M  V30 64 H -0.514794 -4.710663 0.197555 0
M  V30 65 H 0.158312 -2.514418 1.272123 0
M  V30 66 H 1.479455 -3.685884 0.781462 0
M  V30 END ATOM
M  V30 BEGIN BOND
M  V30 1 1 1 2
M  V30 2 1 2 3
M  V30 3 2 3 4
M  V30 4 1 3 5
M  V30 5 1 5 6
M  V30 6 1 6 7
M  V30 7 1 7 8
M  V30 8 1 8 9
M  V30 9 1 9 10
M  V30 10 1 10 11
M  V30 11 1 11 12
M  V30 12 1 12 13
M  V30 13 1 6 14
M  V30 14 2 14 15
M  V30 15 1 15 16
M  V30 16 2 16 17
M  V30 17 1 17 18
M  V30 18 1 17 19
M  V30 19 2 19 20
M  V30 20 1 2 21
M  V30 21 1 21 22
M  V30 22 1 22 23
M  V30 23 1 23 24
M  V30 24 2 24 25
M  V30 25 1 25 26
M  V30 26 2 26 27
M  V30 27 1 27 28
M  V30 28 1 28 29
M  V30 29 1 29 30
M  V30 30 2 30 31
M  V30 31 1 31 32
M  V30 32 1 23 33
M  V30 33 1 33 34
M  V30 34 1 34 2
M  V30 35 1 13 9
M  V30 36 1 20 14
M  V30 37 1 32 24
M  V30 38 2 32 28
M  V30 39 1 1 35
M  V30 40 1 1 36
M  V30 41 1 5 37
M  V30 42 1 6 38 CFG=1
M  V30 43 1 7 39
M  V30 44 1 7 40
M  V30 45 1 8 41
M  V30 46 1 8 42
M  V30 47 1 10 43
M  V30 48 1 10 44
M  V30 49 1 11 45
M  V30 50 1 11 46
M  V30 51 1 12 47
M  V30 52 1 12 48
M  V30 53 1 13 49
M  V30 54 1 13 50
M  V30 55 1 15 51
M  V30 56 1 16 52
M  V30 57 1 19 53
M  V30 58 1 20 54
M  V30 59 1 21 55
M  V30 60 1 21 56
M  V30 61 1 22 57
M  V30 62 1 22 58
M  V30 63 1 26 59
M  V30 64 1 29 60
M  V30 65 1 30 61
M  V30 66 1 31 62
M  V30 67 1 33 63
M  V30 68 1 33 64
M  V30 69 1 34 65
M  V30 70 1 34 66
M  V30 END BOND
M  V30 END CTAB
M  END
>  <Dataset>  (832) 
ChEMBL_Kinases

>  <Ligand_Instance>  (832) 
nan

>  <PDB_ID>  (832) 
nan

>  <Standardized_SMILES>  (832) 
NC1(C(=O)N[C@@H](CCN2CCCC2)c2ccc(Cl)cc2)CCN(c2ncnc3[nH]ccc23)CC1

>  <Name>  (832) 
nan

>  <Pocket>  (832) 
nan

>  <ATP_Site>  (832) 
nan

>  <Peripheral>  (832) 
nan

>  <Num_H_Atoms_ProtBoundConf>  (832) 
nan

>  <Num_Resolved_Atoms>  (832) 
nan

>  <Num_Not_Resolved_Atoms>  (832) 
nan

$$$$
CHEMBL2325729
     RDKit          3D

  0  0  0  0  0  0  0  0  0  0999 V3000
M  V30 BEGIN CTAB
M  V30 COUNTS 69 73 0 0 0
M  V30 BEGIN ATOM
M  V30 1 N 1.488385 -3.106591 0.783385 0
M  V30 2 C 0.421964 -2.688054 1.707935 0
M  V30 3 C -0.037407 -1.381795 1.214562 0
M  V30 4 O -0.959210 -0.827068 1.867732 0
M  V30 5 N 0.486355 -0.719117 0.065827 0
M  V30 6 C -0.038162 0.577979 -0.342954 0 CFG=1
M  V30 7 C 0.946885 1.683168 -0.239899 0
M  V30 8 C 2.187398 1.574736 -1.042603 0
M  V30 9 N 1.999062 1.508109 -2.471936 0
M  V30 10 C 3.261785 1.390829 -3.179551 0
M  V30 11 C 2.918864 1.084811 -4.623249 0
M  V30 12 C 2.448074 2.373291 -5.244850 0
M  V30 13 C 2.091559 3.331626 -4.141012 0
M  V30 14 C 1.359014 2.701113 -2.991554 0
M  V30 15 C -0.682784 0.401128 -1.655753 0
M  V30 16 C -1.867923 1.041658 -1.955856 0
M  V30 17 C -2.522986 0.898410 -3.181165 0
M  V30 18 C -1.973954 0.078456 -4.156948 0
M  V30 19 Cl -2.816331 -0.076462 -5.671217 0
M  V30 20 C -0.804802 -0.571435 -3.898926 0
M  V30 21 C -0.199274 -0.395421 -2.672834 0
M  V30 22 C 0.903528 -2.556668 3.111895 0
M  V30 23 C 0.093370 -3.250705 4.149050 0
M  V30 24 N -1.296529 -3.370374 3.850075 0
M  V30 25 C -2.375890 -3.369546 4.776881 0
M  V30 26 N -3.146818 -4.489746 4.785950 0
M  V30 27 C -4.206490 -4.637974 5.609145 0
M  V30 28 N -4.546772 -3.644737 6.479995 0
M  V30 29 C -3.804035 -2.519203 6.498295 0
M  V30 30 N -3.843213 -1.364678 7.204641 0
M  V30 31 C -2.850061 -0.533673 6.836287 0
M  V30 32 C -2.110375 -1.160244 5.836246 0
M  V30 33 C -2.717924 -2.363210 5.656838 0
M  V30 34 C -1.815739 -3.516740 2.484631 0
M  V30 35 C -0.639206 -3.758639 1.590592 0
M  V30 36 H 0.989198 -3.395705 -0.110972 0
M  V30 37 H 1.872426 -3.978628 1.180090 0
M  V30 38 H 1.246213 -1.179534 -0.469780 0
M  V30 39 H -0.846825 0.842063 0.417354 0
M  V30 40 H 1.273820 1.721703 0.841285 0
M  V30 41 H 0.498438 2.687904 -0.408368 0
M  V30 42 H 2.748764 2.541603 -0.872770 0
M  V30 43 H 2.888898 0.802280 -0.676436 0
M  V30 44 H 3.879497 2.306960 -3.140768 0
M  V30 45 H 3.899770 0.588812 -2.758736 0
M  V30 46 H 3.750562 0.615693 -5.181409 0
M  V30 47 H 2.028805 0.389404 -4.623878 0
M  V30 48 H 1.601727 2.215975 -5.948820 0
M  V30 49 H 3.300124 2.776262 -5.833346 0
M  V30 50 H 2.943735 3.984872 -3.822037 0
M  V30 51 H 1.370208 4.060840 -4.607820 0
M  V30 52 H 0.321193 2.561924 -3.297309 0
M  V30 53 H 1.395438 3.458580 -2.158496 0
M  V30 54 H -2.293364 1.689876 -1.173281 0
M  V30 55 H -3.442559 1.460291 -3.275667 0
M  V30 56 H -0.371015 -1.214527 -4.659750 0
M  V30 57 H 0.718676 -0.940061 -2.523235 0
M  V30 58 H 1.063008 -1.484877 3.395177 0
M  V30 59 H 1.942842 -2.997471 3.140707 0
M  V30 60 H 0.532616 -4.244830 4.382282 0
M  V30 61 H 0.208392 -2.673303 5.110169 0
M  V30 62 H -4.817280 -5.538528 5.609111 0
M  V30 63 H -4.580013 -1.209589 7.927368 0
M  V30 64 H -2.681228 0.445774 7.261671 0
M  V30 65 H -1.249398 -0.769524 5.324858 0
M  V30 66 H -2.459095 -4.417177 2.440568 0
M  V30 67 H -2.400850 -2.620556 2.275762 0
M  V30 68 H -0.157698 -4.700746 1.958429 0
M  V30 69 H -0.916543 -3.934774 0.542719 0
M  V30 END ATOM
M  V30 BEGIN BOND
M  V30 1 1 1 2
M  V30 2 1 2 3
M  V30 3 2 3 4
M  V30 4 1 3 5
M  V30 5 1 5 6
M  V30 6 1 6 7
M  V30 7 1 7 8
M  V30 8 1 8 9
M  V30 9 1 9 10
M  V30 10 1 10 11
M  V30 11 1 11 12
M  V30 12 1 12 13
M  V30 13 1 13 14
M  V30 14 1 6 15
M  V30 15 2 15 16
M  V30 16 1 16 17
M  V30 17 2 17 18
M  V30 18 1 18 19
M  V30 19 1 18 20
M  V30 20 2 20 21
M  V30 21 1 2 22
M  V30 22 1 22 23
M  V30 23 1 23 24
M  V30 24 1 24 25
M  V30 25 2 25 26
M  V30 26 1 26 27
M  V30 27 2 27 28
M  V30 28 1 28 29
M  V30 29 1 29 30
M  V30 30 1 30 31
M  V30 31 2 31 32
M  V30 32 1 32 33
M  V30 33 1 24 34
M  V30 34 1 34 35
M  V30 35 1 35 2
M  V30 36 1 14 9
M  V30 37 1 21 15
M  V30 38 1 33 25
M  V30 39 2 33 29
M  V30 40 1 1 36
M  V30 41 1 1 37
M  V30 42 1 5 38
M  V30 43 1 6 39 CFG=1
M  V30 44 1 7 40
M  V30 45 1 7 41
M  V30 46 1 8 42
M  V30 47 1 8 43
M  V30 48 1 10 44
M  V30 49 1 10 45
M  V30 50 1 11 46
M  V30 51 1 11 47
M  V30 52 1 12 48
M  V30 53 1 12 49
M  V30 54 1 13 50
M  V30 55 1 13 51
M  V30 56 1 14 52
M  V30 57 1 14 53
M  V30 58 1 16 54
M  V30 59 1 17 55
M  V30 60 1 20 56
M  V30 61 1 21 57
M  V30 62 1 22 58
M  V30 63 1 22 59
M  V30 64 1 23 60
M  V30 65 1 23 61
M  V30 66 1 27 62
M  V30 67 1 30 63
M  V30 68 1 31 64
M  V30 69 1 32 65
M  V30 70 1 34 66
M  V30 71 1 34 67
M  V30 72 1 35 68
M  V30 73 1 35 69
M  V30 END BOND
M  V30 END CTAB
M  END
>  <Dataset>  (833) 
ChEMBL_Kinases

>  <Ligand_Instance>  (833) 
nan

>  <PDB_ID>  (833) 
nan

>  <Standardized_SMILES>  (833) 
NC1(C(=O)N[C@@H](CCN2CCCCC2)c2ccc(Cl)cc2)CCN(c2ncnc3[nH]ccc23)CC1

>  <Name>  (833) 
nan

>  <Pocket>  (833) 
nan

>  <ATP_Site>  (833) 
nan

>  <Peripheral>  (833) 
nan

>  <Num_H_Atoms_ProtBoundConf>  (833) 
nan

>  <Num_Resolved_Atoms>  (833) 
nan

>  <Num_Not_Resolved_Atoms>  (833) 
nan

$$$$
CHEMBL2325730
     RDKit          3D

  0  0  0  0  0  0  0  0  0  0999 V3000
M  V30 BEGIN CTAB
M  V30 COUNTS 52 55 0 0 0
M  V30 BEGIN ATOM
M  V30 1 N 2.486283 -2.615242 2.621703 0
M  V30 2 C 2.648552 -3.527183 1.535882 0
M  V30 3 O 3.159164 -4.684804 1.505719 0
M  V30 4 C 2.163871 -3.129343 0.179508 0
M  V30 5 N 1.587805 -1.820879 0.218353 0
M  V30 6 C 2.070025 -0.703923 -0.471529 0
M  V30 7 O 3.089402 -0.696396 -1.229452 0
M  V30 8 C 1.704997 0.694230 -0.616416 0
M  V30 9 N 2.763985 1.263704 -1.481135 0
M  V30 10 C 1.738387 1.543190 0.614917 0
M  V30 11 C 0.694504 2.649557 0.380047 0
M  V30 12 N -0.579480 1.938422 0.551002 0
M  V30 13 C -1.397245 2.262737 1.657467 0
M  V30 14 N -0.930878 3.175230 2.540278 0
M  V30 15 C -1.618727 3.546973 3.619678 0
M  V30 16 N -2.831086 3.037000 3.906329 0
M  V30 17 C -3.378012 2.110818 3.070264 0
M  V30 18 N -4.530877 1.419141 3.053098 0
M  V30 19 C -4.568554 0.619542 1.972481 0
M  V30 20 C -3.383162 0.838352 1.305965 0
M  V30 21 C -2.637073 1.754355 1.968481 0
M  V30 22 C -0.776735 0.973190 -0.505388 0
M  V30 23 C 0.433731 0.914362 -1.402519 0
M  V30 24 C 1.180494 -4.169668 -0.238221 0
M  V30 25 C 1.387222 -5.192795 -1.154816 0
M  V30 26 C 0.332715 -6.049027 -1.391474 0
M  V30 27 C -0.896521 -5.957331 -0.786182 0
M  V30 28 Cl -2.191383 -7.090413 -1.142803 0
M  V30 29 C -1.067520 -4.925082 0.122406 0
M  V30 30 C -0.047345 -4.030495 0.404917 0
M  V30 31 H 2.102392 -2.397972 3.569451 0
M  V30 32 H 2.035988 -2.541883 3.582298 0
M  V30 33 H 3.058174 -3.185650 -0.474125 0
M  V30 34 H 0.748728 -1.550991 0.763964 0
M  V30 35 H 2.630298 2.297556 -1.511706 0
M  V30 36 H 2.692543 0.783209 -2.394756 0
M  V30 37 H 2.702643 2.071544 0.777906 0
M  V30 38 H 1.451932 1.071360 1.548776 0
M  V30 39 H 0.783810 3.420806 1.146238 0
M  V30 40 H 0.803116 3.122356 -0.596392 0
M  V30 41 H -1.232964 4.277551 4.317222 0
M  V30 42 H -5.300488 1.480329 3.768563 0
M  V30 43 H -5.370956 -0.053606 1.693875 0
M  V30 44 H -3.145261 0.325569 0.395640 0
M  V30 45 H -0.890468 -0.072980 -0.118474 0
M  V30 46 H -1.633653 1.298310 -1.136413 0
M  V30 47 H 0.513980 1.773748 -2.096839 0
M  V30 48 H 0.284646 0.028543 -2.080567 0
M  V30 49 H 2.355420 -5.218336 -1.593647 0
M  V30 50 H 0.499555 -6.842566 -2.105225 0
M  V30 51 H -2.040042 -4.853043 0.600804 0
M  V30 52 H -0.291588 -3.278617 1.118536 0
M  V30 END ATOM
M  V30 BEGIN BOND
M  V30 1 1 1 2
M  V30 2 2 2 3
M  V30 3 1 2 4
M  V30 4 1 4 5
M  V30 5 1 5 6
M  V30 6 2 6 7
M  V30 7 1 6 8
M  V30 8 1 8 9
M  V30 9 1 8 10
M  V30 10 1 10 11
M  V30 11 1 11 12
M  V30 12 1 12 13
M  V30 13 2 13 14
M  V30 14 1 14 15
M  V30 15 2 15 16
M  V30 16 1 16 17
M  V30 17 1 17 18
M  V30 18 1 18 19
M  V30 19 2 19 20
M  V30 20 1 20 21
M  V30 21 1 12 22
M  V30 22 1 22 23
M  V30 23 1 4 24
M  V30 24 2 24 25
M  V30 25 1 25 26
M  V30 26 2 26 27
M  V30 27 1 27 28
M  V30 28 1 27 29
M  V30 29 2 29 30
M  V30 30 1 23 8
M  V30 31 1 30 24
M  V30 32 1 21 13
M  V30 33 2 21 17
M  V30 34 1 1 31
M  V30 35 1 1 32
M  V30 36 1 4 33
M  V30 37 1 5 34
M  V30 38 1 9 35
M  V30 39 1 9 36
M  V30 40 1 10 37
M  V30 41 1 10 38
M  V30 42 1 11 39
M  V30 43 1 11 40
M  V30 44 1 15 41
M  V30 45 1 18 42
M  V30 46 1 19 43
M  V30 47 1 20 44
M  V30 48 1 22 45
M  V30 49 1 22 46
M  V30 50 1 23 47
M  V30 51 1 23 48
M  V30 52 1 25 49
M  V30 53 1 26 50
M  V30 54 1 29 51
M  V30 55 1 30 52
M  V30 END BOND
M  V30 END CTAB
M  END
>  <Dataset>  (834) 
ChEMBL_Kinases

>  <Ligand_Instance>  (834) 
nan

>  <PDB_ID>  (834) 
nan

>  <Standardized_SMILES>  (834) 
NC(=O)C(NC(=O)C1(N)CCN(c2ncnc3[nH]ccc23)CC1)c1ccc(Cl)cc1

>  <Name>  (834) 
nan

>  <Pocket>  (834) 
nan

>  <ATP_Site>  (834) 
nan

>  <Peripheral>  (834) 
nan

>  <Num_H_Atoms_ProtBoundConf>  (834) 
nan

>  <Num_Resolved_Atoms>  (834) 
nan

>  <Num_Not_Resolved_Atoms>  (834) 
nan

$$$$
CHEMBL2325736
     RDKit          3D

  0  0  0  0  0  0  0  0  0  0999 V3000
M  V30 BEGIN CTAB
M  V30 COUNTS 62 65 0 0 0
M  V30 BEGIN ATOM
M  V30 1 C 4.426140 -1.836050 5.654624 0
M  V30 2 S 3.580769 -0.314297 5.497066 0
M  V30 3 O 2.832576 -0.047011 6.773215 0
M  V30 4 O 4.502189 0.849284 5.257281 0
M  V30 5 N 2.393695 -0.337946 4.229475 0
M  V30 6 C 2.967465 -0.574466 2.952908 0
M  V30 7 C 2.111333 -0.640560 1.763977 0
M  V30 8 C 1.302552 0.535909 1.384427 0
M  V30 9 N 0.549319 0.245495 0.142160 0
M  V30 10 C 0.716821 1.098317 -0.951116 0
M  V30 11 O 1.488208 2.092864 -0.887376 0
M  V30 12 C 0.085112 1.034337 -2.306790 0
M  V30 13 N 0.553267 2.190034 -3.068300 0
M  V30 14 C -1.402727 1.015231 -2.244293 0
M  V30 15 C -1.943951 -0.180820 -3.002891 0
M  V30 16 N -1.471478 -1.401210 -2.396347 0
M  V30 17 C -2.058307 -2.466570 -1.627247 0
M  V30 18 N -1.699535 -2.812390 -0.400416 0
M  V30 19 C -2.297045 -3.822668 0.255431 0
M  V30 20 N -3.295355 -4.539024 -0.302112 0
M  V30 21 C -3.713045 -4.234101 -1.564260 0
M  V30 22 N -4.673486 -4.786461 -2.333644 0
M  V30 23 C -4.696915 -4.122780 -3.504678 0
M  V30 24 C -3.729086 -3.139964 -3.454641 0
M  V30 25 C -3.079801 -3.180666 -2.229884 0
M  V30 26 C -0.077285 -1.463954 -2.694479 0
M  V30 27 C 0.582528 -0.176137 -3.029289 0
M  V30 28 C 0.194933 0.833779 2.355932 0
M  V30 29 C -0.701286 -0.242197 2.436195 0
M  V30 30 C -1.845000 -0.213050 3.244658 0
M  V30 31 C -2.109619 0.904827 3.991073 0
M  V30 32 Cl -3.502309 1.071594 5.041408 0
M  V30 33 C -1.234463 1.963665 3.916681 0
M  V30 34 C -0.106819 1.960266 3.132404 0
M  V30 35 H 5.446670 -1.662859 6.052616 0
M  V30 36 H 3.934128 -2.544521 6.371183 0
M  V30 37 H 4.539879 -2.396371 4.710802 0
M  V30 38 H 2.062084 0.676982 4.213220 0
M  V30 39 H 3.617841 -1.502602 3.069289 0
M  V30 40 H 3.764164 0.214317 2.733861 0
M  V30 41 H 1.391306 -1.488858 1.900266 0
M  V30 42 H 2.798235 -0.867605 0.895742 0
M  V30 43 H 1.890675 1.435610 1.187089 0
M  V30 44 H -0.112086 -0.541428 -0.019209 0
M  V30 45 H 0.101412 3.054048 -2.720127 0
M  V30 46 H 1.585452 2.275870 -2.924741 0
M  V30 47 H -1.804417 0.986455 -1.208672 0
M  V30 48 H -1.792399 1.914880 -2.762240 0
M  V30 49 H -3.049547 -0.143175 -2.856152 0
M  V30 50 H -1.760646 -0.122586 -4.077273 0
M  V30 51 H -1.914508 -4.016869 1.266699 0
M  V30 52 H -5.256737 -5.590059 -2.003892 0
M  V30 53 H -5.351961 -4.324112 -4.327580 0
M  V30 54 H -3.458625 -2.414827 -4.207441 0
M  V30 55 H 0.072800 -2.158818 -3.554117 0
M  V30 56 H 0.432737 -1.987006 -1.838680 0
M  V30 57 H 1.673140 -0.279203 -2.775212 0
M  V30 58 H 0.579140 0.008674 -4.127704 0
M  V30 59 H -0.621958 -1.198951 1.898413 0
M  V30 60 H -2.540276 -1.017439 3.322351 0
M  V30 61 H -1.332987 2.904760 4.458716 0
M  V30 62 H 0.655907 2.700172 2.975350 0
M  V30 END ATOM
M  V30 BEGIN BOND
M  V30 1 1 1 2
M  V30 2 2 2 3
M  V30 3 2 2 4
M  V30 4 1 2 5
M  V30 5 1 5 6
M  V30 6 1 6 7
M  V30 7 1 7 8
M  V30 8 1 8 9
M  V30 9 1 9 10
M  V30 10 2 10 11
M  V30 11 1 10 12
M  V30 12 1 12 13
M  V30 13 1 12 14
M  V30 14 1 14 15
M  V30 15 1 15 16
M  V30 16 1 16 17
M  V30 17 2 17 18
M  V30 18 1 18 19
M  V30 19 2 19 20
M  V30 20 1 20 21
M  V30 21 1 21 22
M  V30 22 1 22 23
M  V30 23 2 23 24
M  V30 24 1 24 25
M  V30 25 1 16 26
M  V30 26 1 26 27
M  V30 27 1 8 28
M  V30 28 2 28 29
M  V30 29 1 29 30
M  V30 30 2 30 31
M  V30 31 1 31 32
M  V30 32 1 31 33
M  V30 33 2 33 34
M  V30 34 1 27 12
M  V30 35 1 34 28
M  V30 36 1 25 17
M  V30 37 2 25 21
M  V30 38 1 1 35
M  V30 39 1 1 36
M  V30 40 1 1 37
M  V30 41 1 5 38
M  V30 42 1 6 39
M  V30 43 1 6 40
M  V30 44 1 7 41
M  V30 45 1 7 42
M  V30 46 1 8 43
M  V30 47 1 9 44
M  V30 48 1 13 45
M  V30 49 1 13 46
M  V30 50 1 14 47
M  V30 51 1 14 48
M  V30 52 1 15 49
M  V30 53 1 15 50
M  V30 54 1 19 51
M  V30 55 1 22 52
M  V30 56 1 23 53
M  V30 57 1 24 54
M  V30 58 1 26 55
M  V30 59 1 26 56
M  V30 60 1 27 57
M  V30 61 1 27 58
M  V30 62 1 29 59
M  V30 63 1 30 60
M  V30 64 1 33 61
M  V30 65 1 34 62
M  V30 END BOND
M  V30 END CTAB
M  END
>  <Dataset>  (835) 
ChEMBL_Kinases

>  <Ligand_Instance>  (835) 
nan

>  <PDB_ID>  (835) 
nan

>  <Standardized_SMILES>  (835) 
CS(=O)(=O)NCCC(NC(=O)C1(N)CCN(c2ncnc3[nH]ccc23)CC1)c1ccc(Cl)cc1

>  <Name>  (835) 
nan

>  <Pocket>  (835) 
nan

>  <ATP_Site>  (835) 
nan

>  <Peripheral>  (835) 
nan

>  <Num_H_Atoms_ProtBoundConf>  (835) 
nan

>  <Num_Resolved_Atoms>  (835) 
nan

>  <Num_Not_Resolved_Atoms>  (835) 
nan

$$$$
CHEMBL2325985
     RDKit          3D

  0  0  0  0  0  0  0  0  0  0999 V3000
M  V30 BEGIN CTAB
M  V30 COUNTS 61 65 0 0 0
M  V30 BEGIN ATOM
M  V30 1 N 0.125696 -1.981136 0.070371 0
M  V30 2 C -0.349492 -2.353149 1.402351 0
M  V30 3 C -0.249402 -1.148239 2.253385 0
M  V30 4 O -0.641502 -1.392911 3.418364 0
M  V30 5 N 0.215622 0.119359 1.854228 0
M  V30 6 C 0.290348 1.265484 2.737501 0
M  V30 7 C 1.731441 1.681061 2.886139 0
M  V30 8 C 2.383541 2.063932 1.618602 0
M  V30 9 C 3.042047 1.172205 0.793313 0
M  V30 10 C 3.620723 1.649501 -0.371024 0
M  V30 11 C 3.556962 2.981846 -0.725007 0
M  V30 12 C 2.901009 3.893308 0.089017 0
M  V30 13 C 2.326534 3.412826 1.247211 0
M  V30 14 C -0.571408 2.316407 2.143618 0
M  V30 15 C -1.399129 3.040699 2.964432 0
M  V30 16 C -2.249486 4.039362 2.537476 0
M  V30 17 C -2.243061 4.303525 1.184920 0
M  V30 18 Cl -3.287203 5.553452 0.543063 0
M  V30 19 C -1.423749 3.593864 0.335756 0
M  V30 20 C -0.577806 2.591579 0.804024 0
M  V30 21 C -1.781717 -2.777884 1.386750 0
M  V30 22 C -1.963076 -4.206718 0.996324 0
M  V30 23 N -0.847309 -4.632803 0.185421 0
M  V30 24 C -0.891638 -5.148811 -1.132752 0
M  V30 25 N -0.393072 -6.388018 -1.256365 0
M  V30 26 C -0.374625 -7.002319 -2.467858 0
M  V30 27 N -0.851923 -6.399479 -3.588404 0
M  V30 28 C -1.358881 -5.153538 -3.492679 0
M  V30 29 N -1.907715 -4.262203 -4.360351 0
M  V30 30 C -2.250487 -3.139745 -3.700995 0
M  V30 31 C -1.932442 -3.255406 -2.347079 0
M  V30 32 C -1.378690 -4.522715 -2.252958 0
M  V30 33 C 0.484034 -4.534783 0.754503 0
M  V30 34 C 0.507899 -3.499301 1.863347 0
M  V30 35 H -0.498421 -1.236167 -0.311835 0
M  V30 36 H 1.071618 -1.582334 0.116018 0
M  V30 37 H 0.518664 0.228572 0.874391 0
M  V30 38 H -0.065941 1.004477 3.767817 0
M  V30 39 H 2.279504 0.796423 3.280592 0
M  V30 40 H 1.762472 2.529975 3.625264 0
M  V30 41 H 3.085672 0.129891 1.081042 0
M  V30 42 H 4.141163 0.967151 -1.031100 0
M  V30 43 H 4.008459 3.365535 -1.637387 0
M  V30 44 H 2.836306 4.926791 -0.159274 0
M  V30 45 H 1.815973 4.125025 1.879830 0
M  V30 46 H -1.389402 2.815365 4.036645 0
M  V30 47 H -2.883526 4.579770 3.238170 0
M  V30 48 H -1.420122 3.805256 -0.738483 0
M  V30 49 H 0.044948 2.057961 0.112228 0
M  V30 50 H -2.355722 -2.059323 0.772540 0
M  V30 51 H -2.194443 -2.649530 2.428075 0
M  V30 52 H -2.935267 -4.383720 0.526982 0
M  V30 53 H -1.952149 -4.834167 1.924835 0
M  V30 54 H 0.024481 -8.008708 -2.597442 0
M  V30 55 H -2.003633 -4.504246 -5.356632 0
M  V30 56 H -2.712998 -2.253702 -4.145794 0
M  V30 57 H -2.080150 -2.536518 -1.563474 0
M  V30 58 H 0.838560 -5.532704 1.118906 0
M  V30 59 H 1.169836 -4.154518 -0.035460 0
M  V30 60 H 0.051795 -3.927166 2.783663 0
M  V30 61 H 1.552464 -3.209256 2.070670 0
M  V30 END ATOM
M  V30 BEGIN BOND
M  V30 1 1 1 2
M  V30 2 1 2 3
M  V30 3 2 3 4
M  V30 4 1 3 5
M  V30 5 1 5 6
M  V30 6 1 6 7
M  V30 7 1 7 8
M  V30 8 2 8 9
M  V30 9 1 9 10
M  V30 10 2 10 11
M  V30 11 1 11 12
M  V30 12 2 12 13
M  V30 13 1 6 14
M  V30 14 2 14 15
M  V30 15 1 15 16
M  V30 16 2 16 17
M  V30 17 1 17 18
M  V30 18 1 17 19
M  V30 19 2 19 20
M  V30 20 1 2 21
M  V30 21 1 21 22
M  V30 22 1 22 23
M  V30 23 1 23 24
M  V30 24 2 24 25
M  V30 25 1 25 26
M  V30 26 2 26 27
M  V30 27 1 27 28
M  V30 28 1 28 29
M  V30 29 1 29 30
M  V30 30 2 30 31
M  V30 31 1 31 32
M  V30 32 1 23 33
M  V30 33 1 33 34
M  V30 34 1 34 2
M  V30 35 1 13 8
M  V30 36 1 20 14
M  V30 37 1 32 24
M  V30 38 2 32 28
M  V30 39 1 1 35
M  V30 40 1 1 36
M  V30 41 1 5 37
M  V30 42 1 6 38
M  V30 43 1 7 39
M  V30 44 1 7 40
M  V30 45 1 9 41
M  V30 46 1 10 42
M  V30 47 1 11 43
M  V30 48 1 12 44
M  V30 49 1 13 45
M  V30 50 1 15 46
M  V30 51 1 16 47
M  V30 52 1 19 48
M  V30 53 1 20 49
M  V30 54 1 21 50
M  V30 55 1 21 51
M  V30 56 1 22 52
M  V30 57 1 22 53
M  V30 58 1 26 54
M  V30 59 1 29 55
M  V30 60 1 30 56
M  V30 61 1 31 57
M  V30 62 1 33 58
M  V30 63 1 33 59
M  V30 64 1 34 60
M  V30 65 1 34 61
M  V30 END BOND
M  V30 END CTAB
M  END
>  <Dataset>  (836) 
ChEMBL_Kinases

>  <Ligand_Instance>  (836) 
nan

>  <PDB_ID>  (836) 
nan

>  <Standardized_SMILES>  (836) 
NC1(C(=O)NC(Cc2ccccc2)c2ccc(Cl)cc2)CCN(c2ncnc3[nH]ccc23)CC1

>  <Name>  (836) 
nan

>  <Pocket>  (836) 
nan

>  <ATP_Site>  (836) 
nan

>  <Peripheral>  (836) 
nan

>  <Num_H_Atoms_ProtBoundConf>  (836) 
nan

>  <Num_Resolved_Atoms>  (836) 
nan

>  <Num_Not_Resolved_Atoms>  (836) 
nan

$$$$
CHEMBL2325738
     RDKit          3D

  0  0  0  0  0  0  0  0  0  0999 V3000
M  V30 BEGIN CTAB
M  V30 COUNTS 55 58 0 0 0
M  V30 BEGIN ATOM
M  V30 1 N -1.707062 1.149029 1.614256 0
M  V30 2 C -1.408503 -0.147711 1.028185 0
M  V30 3 C 0.038769 -0.350143 1.118418 0
M  V30 4 O 0.672737 -1.369481 0.708613 0
M  V30 5 N 0.917066 0.593260 1.687971 0
M  V30 6 C 2.349284 0.551673 1.853843 0
M  V30 7 C 2.826075 0.517702 3.242595 0
M  V30 8 C 2.465984 1.630621 4.150277 0
M  V30 9 O 1.107214 1.816565 4.340249 0
M  V30 10 C 2.959708 1.521534 0.944082 0
M  V30 11 C 3.994133 2.416779 1.123908 0
M  V30 12 C 4.416583 3.260023 0.116830 0
M  V30 13 C 3.827930 3.256397 -1.130580 0
M  V30 14 Cl 4.466025 4.378577 -2.309082 0
M  V30 15 C 2.793447 2.367102 -1.324787 0
M  V30 16 C 2.365779 1.522191 -0.324686 0
M  V30 17 C -2.054434 -1.165359 1.945315 0
M  V30 18 C -2.233591 -2.513621 1.315930 0
M  V30 19 N -2.835332 -2.345321 0.015121 0
M  V30 20 C -3.065946 -3.373233 -0.938272 0
M  V30 21 N -4.365710 -3.571074 -1.295371 0
M  V30 22 C -4.691527 -4.529107 -2.198378 0
M  V30 23 N -3.798649 -5.341713 -2.802450 0
M  V30 24 C -2.502372 -5.151072 -2.452309 0
M  V30 25 N -1.345900 -5.733599 -2.814166 0
M  V30 26 C -0.294511 -5.180031 -2.173123 0
M  V30 27 C -0.768726 -4.183029 -1.345789 0
M  V30 28 C -2.131133 -4.189640 -1.539973 0
M  V30 29 C -3.254507 -1.001252 -0.380269 0
M  V30 30 C -1.969844 -0.174398 -0.350968 0
M  V30 31 H -2.680364 1.464952 1.354471 0
M  V30 32 H -1.613355 1.153040 2.648079 0
M  V30 33 H 0.550048 1.510455 2.083245 0
M  V30 34 H 2.625362 -0.455061 1.402932 0
M  V30 35 H 3.959485 0.521689 3.212492 0
M  V30 36 H 2.606103 -0.482443 3.670146 0
M  V30 37 H 2.910145 2.615295 3.923412 0
M  V30 38 H 2.898596 1.369716 5.161468 0
M  V30 39 H 0.878832 2.760106 4.424332 0
M  V30 40 H 4.418749 2.371690 2.115661 0
M  V30 41 H 5.241374 3.899576 0.428944 0
M  V30 42 H 2.346331 2.384404 -2.317846 0
M  V30 43 H 1.541315 0.878152 -0.626051 0
M  V30 44 H -2.997495 -0.733888 2.319964 0
M  V30 45 H -1.387145 -1.217775 2.853580 0
M  V30 46 H -3.011075 -3.059900 1.927164 0
M  V30 47 H -1.351356 -3.148312 1.350155 0
M  V30 48 H -5.751340 -4.627094 -2.432817 0
M  V30 49 H -1.319672 -6.517428 -3.512514 0
M  V30 50 H 0.745104 -5.439923 -2.262218 0
M  V30 51 H -0.193469 -3.560574 -0.709086 0
M  V30 52 H -3.763521 -0.966595 -1.339710 0
M  V30 53 H -3.895764 -0.578541 0.424536 0
M  V30 54 H -1.328204 -0.587425 -1.127887 0
M  V30 55 H -2.256587 0.843280 -0.690594 0
M  V30 END ATOM
M  V30 BEGIN BOND
M  V30 1 1 1 2
M  V30 2 1 2 3
M  V30 3 2 3 4
M  V30 4 1 3 5
M  V30 5 1 5 6
M  V30 6 1 6 7
M  V30 7 1 7 8
M  V30 8 1 8 9
M  V30 9 1 6 10
M  V30 10 2 10 11
M  V30 11 1 11 12
M  V30 12 2 12 13
M  V30 13 1 13 14
M  V30 14 1 13 15
M  V30 15 2 15 16
M  V30 16 1 2 17
M  V30 17 1 17 18
M  V30 18 1 18 19
M  V30 19 1 19 20
M  V30 20 2 20 21
M  V30 21 1 21 22
M  V30 22 2 22 23
M  V30 23 1 23 24
M  V30 24 1 24 25
M  V30 25 1 25 26
M  V30 26 2 26 27
M  V30 27 1 27 28
M  V30 28 1 19 29
M  V30 29 1 29 30
M  V30 30 1 30 2
M  V30 31 1 16 10
M  V30 32 1 28 20
M  V30 33 2 28 24
M  V30 34 1 1 31
M  V30 35 1 1 32
M  V30 36 1 5 33
M  V30 37 1 6 34
M  V30 38 1 7 35
M  V30 39 1 7 36
M  V30 40 1 8 37
M  V30 41 1 8 38
M  V30 42 1 9 39
M  V30 43 1 11 40
M  V30 44 1 12 41
M  V30 45 1 15 42
M  V30 46 1 16 43
M  V30 47 1 17 44
M  V30 48 1 17 45
M  V30 49 1 18 46
M  V30 50 1 18 47
M  V30 51 1 22 48
M  V30 52 1 25 49
M  V30 53 1 26 50
M  V30 54 1 27 51
M  V30 55 1 29 52
M  V30 56 1 29 53
M  V30 57 1 30 54
M  V30 58 1 30 55
M  V30 END BOND
M  V30 END CTAB
M  END
>  <Dataset>  (837) 
ChEMBL_Kinases

>  <Ligand_Instance>  (837) 
nan

>  <PDB_ID>  (837) 
nan

>  <Standardized_SMILES>  (837) 
NC1(C(=O)NC(CCO)c2ccc(Cl)cc2)CCN(c2ncnc3[nH]ccc23)CC1

>  <Name>  (837) 
nan

>  <Pocket>  (837) 
nan

>  <ATP_Site>  (837) 
nan

>  <Peripheral>  (837) 
nan

>  <Num_H_Atoms_ProtBoundConf>  (837) 
nan

>  <Num_Resolved_Atoms>  (837) 
nan

>  <Num_Not_Resolved_Atoms>  (837) 
nan

$$$$
CHEMBL2325739
     RDKit          3D

  0  0  0  0  0  0  0  0  0  0999 V3000
M  V30 BEGIN CTAB
M  V30 COUNTS 58 61 0 0 0
M  V30 BEGIN ATOM
M  V30 1 N -0.627101 0.580807 -2.364466 0
M  V30 2 C -0.642871 -0.457336 -1.354111 0
M  V30 3 C 0.224345 -0.123684 -0.178637 0
M  V30 4 O 0.066353 -1.151568 0.578666 0
M  V30 5 N 1.072259 1.013227 0.156229 0
M  V30 6 C 1.744762 0.939409 1.401517 0
M  V30 7 C 3.206761 0.995675 1.467031 0
M  V30 8 C 3.937785 2.176561 0.972253 0
M  V30 9 C 3.753623 2.478620 -0.488528 0
M  V30 10 O 4.185048 1.344575 -1.215165 0
M  V30 11 C 1.224407 2.062482 2.269815 0
M  V30 12 C 0.999987 3.366040 1.886557 0
M  V30 13 C 0.528597 4.293886 2.767241 0
M  V30 14 C 0.252941 3.979313 4.080134 0
M  V30 15 Cl -0.350654 5.172256 5.203254 0
M  V30 16 C 0.451099 2.695005 4.542377 0
M  V30 17 C 0.928332 1.797200 3.612203 0
M  V30 18 C -2.063350 -0.557459 -0.836568 0
M  V30 19 C -2.741197 -1.796070 -1.393388 0
M  V30 20 N -2.048289 -3.017079 -0.979203 0
M  V30 21 C -2.817157 -3.968054 -0.290500 0
M  V30 22 N -4.090046 -3.683155 0.050469 0
M  V30 23 C -4.890188 -4.522332 0.715936 0
M  V30 24 N -4.455284 -5.730889 1.091646 0
M  V30 25 C -3.203610 -6.118749 0.803729 0
M  V30 26 N -2.528972 -7.241132 1.049211 0
M  V30 27 C -1.292522 -7.119757 0.538309 0
M  V30 28 C -1.228340 -5.869388 -0.036853 0
M  V30 29 C -2.418403 -5.220580 0.117586 0
M  V30 30 C -0.681767 -2.992891 -1.364759 0
M  V30 31 C -0.213183 -1.730151 -2.035294 0
M  V30 32 H 0.232702 0.649667 -2.913647 0
M  V30 33 H -1.520086 0.692565 -2.862740 0
M  V30 34 H 0.884685 1.563457 -0.711604 0
M  V30 35 H 1.408532 -0.014789 1.908660 0
M  V30 36 H 3.472150 0.906989 2.573478 0
M  V30 37 H 3.726190 0.096737 1.043556 0
M  V30 38 H 3.806124 3.088854 1.604025 0
M  V30 39 H 5.049489 1.965393 1.078862 0
M  V30 40 H 2.782228 2.854926 -0.784657 0
M  V30 41 H 4.571408 3.241740 -0.749095 0
M  V30 42 H 5.154157 1.289298 -1.257292 0
M  V30 43 H 1.220395 3.592799 0.854164 0
M  V30 44 H 0.376507 5.307279 2.386873 0
M  V30 45 H 0.266714 2.346160 5.549578 0
M  V30 46 H 1.097714 0.763625 3.947469 0
M  V30 47 H -2.112015 -0.633339 0.267654 0
M  V30 48 H -2.690118 0.308365 -1.124835 0
M  V30 49 H -3.790441 -1.778736 -1.044750 0
M  V30 50 H -2.737971 -1.700058 -2.496932 0
M  V30 51 H -5.901052 -4.228785 0.956980 0
M  V30 52 H -2.835770 -8.102166 1.542484 0
M  V30 53 H -0.504729 -7.860591 0.573578 0
M  V30 54 H -0.341964 -5.516016 -0.524091 0
M  V30 55 H -0.506610 -3.801570 -2.103895 0
M  V30 56 H -0.061959 -3.218851 -0.471651 0
M  V30 57 H 0.898516 -1.753321 -2.011271 0
M  V30 58 H -0.483555 -1.692261 -3.110327 0
M  V30 END ATOM
M  V30 BEGIN BOND
M  V30 1 1 1 2
M  V30 2 1 2 3
M  V30 3 2 3 4
M  V30 4 1 3 5
M  V30 5 1 5 6
M  V30 6 1 6 7
M  V30 7 1 7 8
M  V30 8 1 8 9
M  V30 9 1 9 10
M  V30 10 1 6 11
M  V30 11 2 11 12
M  V30 12 1 12 13
M  V30 13 2 13 14
M  V30 14 1 14 15
M  V30 15 1 14 16
M  V30 16 2 16 17
M  V30 17 1 2 18
M  V30 18 1 18 19
M  V30 19 1 19 20
M  V30 20 1 20 21
M  V30 21 2 21 22
M  V30 22 1 22 23
M  V30 23 2 23 24
M  V30 24 1 24 25
M  V30 25 1 25 26
M  V30 26 1 26 27
M  V30 27 2 27 28
M  V30 28 1 28 29
M  V30 29 1 20 30
M  V30 30 1 30 31
M  V30 31 1 31 2
M  V30 32 1 17 11
M  V30 33 1 29 21
M  V30 34 2 29 25
M  V30 35 1 1 32
M  V30 36 1 1 33
M  V30 37 1 5 34
M  V30 38 1 6 35
M  V30 39 1 7 36
M  V30 40 1 7 37
M  V30 41 1 8 38
M  V30 42 1 8 39
M  V30 43 1 9 40
M  V30 44 1 9 41
M  V30 45 1 10 42
M  V30 46 1 12 43
M  V30 47 1 13 44
M  V30 48 1 16 45
M  V30 49 1 17 46
M  V30 50 1 18 47
M  V30 51 1 18 48
M  V30 52 1 19 49
M  V30 53 1 19 50
M  V30 54 1 23 51
M  V30 55 1 26 52
M  V30 56 1 27 53
M  V30 57 1 28 54
M  V30 58 1 30 55
M  V30 59 1 30 56
M  V30 60 1 31 57
M  V30 61 1 31 58
M  V30 END BOND
M  V30 END CTAB
M  END
>  <Dataset>  (838) 
ChEMBL_Kinases

>  <Ligand_Instance>  (838) 
nan

>  <PDB_ID>  (838) 
nan

>  <Standardized_SMILES>  (838) 
NC1(C(=O)NC(CCCO)c2ccc(Cl)cc2)CCN(c2ncnc3[nH]ccc23)CC1

>  <Name>  (838) 
nan

>  <Pocket>  (838) 
nan

>  <ATP_Site>  (838) 
nan

>  <Peripheral>  (838) 
nan

>  <Num_H_Atoms_ProtBoundConf>  (838) 
nan

>  <Num_Resolved_Atoms>  (838) 
nan

>  <Num_Not_Resolved_Atoms>  (838) 
nan

$$$$
CHEMBL2325740
     RDKit          3D

  0  0  0  0  0  0  0  0  0  0999 V3000
M  V30 BEGIN CTAB
M  V30 COUNTS 58 61 0 0 0
M  V30 BEGIN ATOM
M  V30 1 C 1.369094 -1.147610 5.081731 0
M  V30 2 O 1.865040 -2.374081 4.734391 0
M  V30 3 C 3.061170 -2.299777 4.013906 0
M  V30 4 C 2.941852 -1.553051 2.728602 0
M  V30 5 C 1.964437 -2.078372 1.739678 0
M  V30 6 N 1.920702 -1.203916 0.549511 0
M  V30 7 C 0.783184 -0.455880 0.111774 0
M  V30 8 O -0.228627 -0.606719 0.855374 0
M  V30 9 C 0.902676 0.378727 -1.109692 0
M  V30 10 N 2.222359 0.295886 -1.702713 0
M  V30 11 C 0.592218 1.825704 -0.787635 0
M  V30 12 C -0.574085 2.327041 -1.612714 0
M  V30 13 N -1.756771 1.509127 -1.413043 0
M  V30 14 C -2.901277 2.124522 -0.855394 0
M  V30 15 N -2.828090 3.407958 -0.476390 0
M  V30 16 C -3.846381 4.087317 0.069078 0
M  V30 17 N -5.024506 3.469179 0.259306 0
M  V30 18 C -5.220736 2.181604 -0.081077 0
M  V30 19 N -6.253471 1.320203 -0.016995 0
M  V30 20 C -5.878667 0.127425 -0.515639 0
M  V30 21 C -4.564168 0.274825 -0.896857 0
M  V30 22 C -4.133112 1.550876 -0.633922 0
M  V30 23 C -1.505685 0.172571 -1.840302 0
M  V30 24 C -0.058118 -0.101998 -2.179916 0
M  V30 25 C 2.195231 -3.447492 1.244033 0
M  V30 26 C 1.096457 -3.833507 0.456220 0
M  V30 27 C 1.026611 -5.061770 -0.168346 0
M  V30 28 C 2.049318 -5.956538 -0.033596 0
M  V30 29 Cl 2.064071 -7.538515 -0.779726 0
M  V30 30 C 3.146810 -5.628655 0.725108 0
M  V30 31 C 3.176863 -4.398663 1.328006 0
M  V30 32 H 0.423438 -1.320893 5.668074 0
M  V30 33 H 2.104192 -0.599220 5.684534 0
M  V30 34 H 1.099923 -0.561993 4.162599 0
M  V30 35 H 3.755746 -1.700275 4.688114 0
M  V30 36 H 3.492627 -3.290424 3.969236 0
M  V30 37 H 3.947761 -1.553580 2.215480 0
M  V30 38 H 2.669982 -0.490151 2.939589 0
M  V30 39 H 0.923596 -2.006017 2.169083 0
M  V30 40 H 2.827177 -1.162824 0.014402 0
M  V30 41 H 2.263841 -0.647192 -2.191258 0
M  V30 42 H 2.213877 0.990519 -2.500379 0
M  V30 43 H 0.369531 1.918545 0.295576 0
M  V30 44 H 1.501462 2.421230 -0.984729 0
M  V30 45 H -0.767538 3.371927 -1.369952 0
M  V30 46 H -0.274981 2.297794 -2.678081 0
M  V30 47 H -3.636272 5.120260 0.324831 0
M  V30 48 H -7.205577 1.553790 0.366674 0
M  V30 49 H -6.492843 -0.759979 -0.595936 0
M  V30 50 H -4.018613 -0.531532 -1.331145 0
M  V30 51 H -2.112219 -0.195943 -2.671525 0
M  V30 52 H -1.708940 -0.494203 -0.949087 0
M  V30 53 H 0.214371 0.383586 -3.131079 0
M  V30 54 H 0.130553 -1.188235 -2.278399 0
M  V30 55 H 0.185257 -3.252293 0.233044 0
M  V30 56 H 0.220149 -5.417727 -0.781280 0
M  V30 57 H 4.005824 -6.232118 0.908814 0
M  V30 58 H 4.007885 -4.057325 1.917308 0
M  V30 END ATOM
M  V30 BEGIN BOND
M  V30 1 1 1 2
M  V30 2 1 2 3
M  V30 3 1 3 4
M  V30 4 1 4 5
M  V30 5 1 5 6
M  V30 6 1 6 7
M  V30 7 2 7 8
M  V30 8 1 7 9
M  V30 9 1 9 10
M  V30 10 1 9 11
M  V30 11 1 11 12
M  V30 12 1 12 13
M  V30 13 1 13 14
M  V30 14 2 14 15
M  V30 15 1 15 16
M  V30 16 2 16 17
M  V30 17 1 17 18
M  V30 18 1 18 19
M  V30 19 1 19 20
M  V30 20 2 20 21
M  V30 21 1 21 22
M  V30 22 1 13 23
M  V30 23 1 23 24
M  V30 24 1 5 25
M  V30 25 2 25 26
M  V30 26 1 26 27
M  V30 27 2 27 28
M  V30 28 1 28 29
M  V30 29 1 28 30
M  V30 30 2 30 31
M  V30 31 1 24 9
M  V30 32 1 31 25
M  V30 33 1 22 14
M  V30 34 2 22 18
M  V30 35 1 1 32
M  V30 36 1 1 33
M  V30 37 1 1 34
M  V30 38 1 3 35
M  V30 39 1 3 36
M  V30 40 1 4 37
M  V30 41 1 4 38
M  V30 42 1 5 39
M  V30 43 1 6 40
M  V30 44 1 10 41
M  V30 45 1 10 42
M  V30 46 1 11 43
M  V30 47 1 11 44
M  V30 48 1 12 45
M  V30 49 1 12 46
M  V30 50 1 16 47
M  V30 51 1 19 48
M  V30 52 1 20 49
M  V30 53 1 21 50
M  V30 54 1 23 51
M  V30 55 1 23 52
M  V30 56 1 24 53
M  V30 57 1 24 54
M  V30 58 1 26 55
M  V30 59 1 27 56
M  V30 60 1 30 57
M  V30 61 1 31 58
M  V30 END BOND
M  V30 END CTAB
M  END
>  <Dataset>  (839) 
ChEMBL_Kinases

>  <Ligand_Instance>  (839) 
nan

>  <PDB_ID>  (839) 
nan

>  <Standardized_SMILES>  (839) 
COCCC(NC(=O)C1(N)CCN(c2ncnc3[nH]ccc23)CC1)c1ccc(Cl)cc1

>  <Name>  (839) 
nan

>  <Pocket>  (839) 
nan

>  <ATP_Site>  (839) 
nan

>  <Peripheral>  (839) 
nan

>  <Num_H_Atoms_ProtBoundConf>  (839) 
nan

>  <Num_Resolved_Atoms>  (839) 
nan

>  <Num_Not_Resolved_Atoms>  (839) 
nan

$$$$
CHEMBL2325742
     RDKit          3D

  0  0  0  0  0  0  0  0  0  0999 V3000
M  V30 BEGIN CTAB
M  V30 COUNTS 51 54 0 0 0
M  V30 BEGIN ATOM
M  V30 1 C -3.420821 -3.737001 -0.461586 0
M  V30 2 C -1.948976 -3.575706 -0.681280 0 CFG=1
M  V30 3 N -1.457499 -2.381790 -0.043576 0
M  V30 4 C -0.848245 -1.363536 -0.828856 0
M  V30 5 O -0.747359 -1.524823 -2.084677 0
M  V30 6 C -0.327210 -0.117486 -0.219940 0
M  V30 7 N 0.220424 0.689673 -1.294586 0
M  V30 8 C 0.753926 -0.429634 0.773147 0
M  V30 9 C 0.714710 0.652172 1.853367 0
M  V30 10 N 0.334160 1.937658 1.248361 0
M  V30 11 C 1.255993 3.007049 1.058832 0
M  V30 12 N 1.480944 3.458126 -0.208284 0
M  V30 13 C 2.341502 4.466541 -0.450182 0
M  V30 14 N 3.006468 5.055280 0.586057 0
M  V30 15 C 2.828107 4.656172 1.856936 0
M  V30 16 N 3.329799 5.035982 3.052158 0
M  V30 17 C 2.794106 4.276306 4.050017 0
M  V30 18 C 1.929111 3.395341 3.441324 0
M  V30 19 C 1.936173 3.615744 2.077132 0
M  V30 20 C -1.082918 2.008470 0.861303 0
M  V30 21 C -1.492087 0.614888 0.429559 0
M  V30 22 C -1.265437 -4.810116 -0.216873 0
M  V30 23 C -1.891033 -6.005835 0.123272 0
M  V30 24 C -1.119637 -7.084762 0.543999 0
M  V30 25 C 0.253641 -6.989758 0.629730 0
M  V30 26 Cl 1.217953 -8.370686 1.166253 0
M  V30 27 C 0.922015 -5.808743 0.298067 0
M  V30 28 C 0.101377 -4.774528 -0.112143 0
M  V30 29 H -3.605255 -4.097230 0.564897 0
M  V30 30 H -3.803840 -4.465850 -1.206128 0
M  V30 31 H -3.940647 -2.757622 -0.616798 0
M  V30 32 H -1.772924 -3.537777 -1.783219 0
M  V30 33 H -1.559887 -2.289207 0.988302 0
M  V30 34 H 1.262759 0.683316 -1.297778 0
M  V30 35 H -0.086543 0.345862 -2.247132 0
M  V30 36 H 1.774657 -0.338470 0.304738 0
M  V30 37 H 0.630112 -1.413956 1.279630 0
M  V30 38 H 1.698964 0.672193 2.324500 0
M  V30 39 H -0.089099 0.402353 2.582077 0
M  V30 40 H 2.554756 4.860947 -1.438128 0
M  V30 41 H 4.028664 5.808805 3.151891 0
M  V30 42 H 3.005568 4.348534 5.118006 0
M  V30 43 H 1.332851 2.641346 3.963927 0
M  V30 44 H -1.726905 2.311347 1.708318 0
M  V30 45 H -1.236360 2.692561 0.007203 0
M  V30 46 H -2.311781 0.642297 -0.313827 0
M  V30 47 H -1.780529 0.069198 1.354147 0
M  V30 48 H -2.964086 -6.023706 0.037733 0
M  V30 49 H -1.619929 -8.012614 0.806673 0
M  V30 50 H 1.994902 -5.705716 0.355570 0
M  V30 51 H 0.643068 -3.858316 -0.367474 0
M  V30 END ATOM
M  V30 BEGIN BOND
M  V30 1 1 1 2
M  V30 2 1 2 3
M  V30 3 1 3 4
M  V30 4 2 4 5
M  V30 5 1 4 6
M  V30 6 1 6 7
M  V30 7 1 6 8
M  V30 8 1 8 9
M  V30 9 1 9 10
M  V30 10 1 10 11
M  V30 11 2 11 12
M  V30 12 1 12 13
M  V30 13 2 13 14
M  V30 14 1 14 15
M  V30 15 1 15 16
M  V30 16 1 16 17
M  V30 17 2 17 18
M  V30 18 1 18 19
M  V30 19 1 10 20
M  V30 20 1 20 21
M  V30 21 1 2 22
M  V30 22 2 22 23
M  V30 23 1 23 24
M  V30 24 2 24 25
M  V30 25 1 25 26
M  V30 26 1 25 27
M  V30 27 2 27 28
M  V30 28 1 21 6
M  V30 29 1 28 22
M  V30 30 1 19 11
M  V30 31 2 19 15
M  V30 32 1 1 29
M  V30 33 1 1 30
M  V30 34 1 1 31
M  V30 35 1 2 32 CFG=3
M  V30 36 1 3 33
M  V30 37 1 7 34
M  V30 38 1 7 35
M  V30 39 1 8 36
M  V30 40 1 8 37
M  V30 41 1 9 38
M  V30 42 1 9 39
M  V30 43 1 13 40
M  V30 44 1 16 41
M  V30 45 1 17 42
M  V30 46 1 18 43
M  V30 47 1 20 44
M  V30 48 1 20 45
M  V30 49 1 21 46
M  V30 50 1 21 47
M  V30 51 1 23 48
M  V30 52 1 24 49
M  V30 53 1 27 50
M  V30 54 1 28 51
M  V30 END BOND
M  V30 END CTAB
M  END
>  <Dataset>  (840) 
ChEMBL_Kinases

>  <Ligand_Instance>  (840) 
nan

>  <PDB_ID>  (840) 
nan

>  <Standardized_SMILES>  (840) 
C[C@@H](NC(=O)C1(N)CCN(c2ncnc3[nH]ccc23)CC1)c1ccc(Cl)cc1

>  <Name>  (840) 
nan

>  <Pocket>  (840) 
nan

>  <ATP_Site>  (840) 
nan

>  <Peripheral>  (840) 
nan

>  <Num_H_Atoms_ProtBoundConf>  (840) 
nan

>  <Num_Resolved_Atoms>  (840) 
nan

>  <Num_Not_Resolved_Atoms>  (840) 
nan

$$$$
CHEMBL2325743
     RDKit          3D

  0  0  0  0  0  0  0  0  0  0999 V3000
M  V30 BEGIN CTAB
M  V30 COUNTS 51 54 0 0 0
M  V30 BEGIN ATOM
M  V30 1 C -3.220170 -4.359692 0.084620 0
M  V30 2 C -1.789433 -4.091881 0.477985 0 CFG=2
M  V30 3 N -1.369939 -2.791629 0.038952 0
M  V30 4 C -0.922066 -1.660517 0.778848 0
M  V30 5 O -0.866698 -1.771491 2.049293 0
M  V30 6 C -0.541319 -0.414799 0.072192 0
M  V30 7 N -0.709695 -0.594803 -1.357948 0
M  V30 8 C 0.927133 -0.168220 0.383291 0
M  V30 9 C 0.941092 0.669422 1.649512 0
M  V30 10 N 0.636502 2.019259 1.199183 0
M  V30 11 C 1.214221 3.320975 1.203603 0
M  V30 12 N 1.441166 3.895810 -0.002988 0
M  V30 13 C 1.983563 5.123214 -0.098537 0
M  V30 14 N 2.301828 5.782060 1.013707 0
M  V30 15 C 2.086673 5.233491 2.226136 0
M  V30 16 N 2.314889 5.682009 3.478930 0
M  V30 17 C 1.914146 4.732298 4.365481 0
M  V30 18 C 1.407974 3.626307 3.703827 0
M  V30 19 C 1.532978 3.977785 2.375739 0
M  V30 20 C -0.656439 2.066489 0.537907 0
M  V30 21 C -1.354293 0.733957 0.577074 0
M  V30 22 C -0.851860 -5.088117 -0.090902 0
M  V30 23 C -1.294503 -6.248997 -0.667495 0
M  V30 24 C -0.392152 -7.156211 -1.188267 0
M  V30 25 C 0.973160 -6.861904 -1.112533 0
M  V30 26 Cl 2.075366 -8.049406 -1.789765 0
M  V30 27 C 1.394838 -5.672872 -0.520178 0
M  V30 28 C 0.486569 -4.769049 -0.000829 0
M  V30 29 H -3.779719 -3.423190 0.373651 0
M  V30 30 H -3.634601 -5.164187 0.712266 0
M  V30 31 H -3.328675 -4.540954 -1.002013 0
M  V30 32 H -1.739107 -4.180486 1.575306 0
M  V30 33 H -1.415338 -2.701718 -0.997666 0
M  V30 34 H -0.712441 0.313689 -1.870389 0
M  V30 35 H 0.062648 -1.168436 -1.764482 0
M  V30 36 H 1.401696 0.367548 -0.455849 0
M  V30 37 H 1.484682 -1.116098 0.502632 0
M  V30 38 H 1.922959 0.622212 2.157194 0
M  V30 39 H 0.106402 0.383223 2.331983 0
M  V30 40 H 2.193000 5.643910 -1.025507 0
M  V30 41 H 2.734098 6.613335 3.734555 0
M  V30 42 H 1.960389 4.778824 5.463773 0
M  V30 43 H 1.009764 2.708739 4.087121 0
M  V30 44 H -1.348371 2.799064 0.982897 0
M  V30 45 H -0.525857 2.329805 -0.549165 0
M  V30 46 H -2.239653 0.835581 -0.094103 0
M  V30 47 H -1.785808 0.505529 1.579329 0
M  V30 48 H -2.369194 -6.403931 -0.687355 0
M  V30 49 H -0.820042 -8.035697 -1.619894 0
M  V30 50 H 2.475804 -5.573027 -0.529216 0
M  V30 51 H 0.931539 -3.883928 0.432754 0
M  V30 END ATOM
M  V30 BEGIN BOND
M  V30 1 1 1 2
M  V30 2 1 2 3
M  V30 3 1 3 4
M  V30 4 2 4 5
M  V30 5 1 4 6
M  V30 6 1 6 7
M  V30 7 1 6 8
M  V30 8 1 8 9
M  V30 9 1 9 10
M  V30 10 1 10 11
M  V30 11 2 11 12
M  V30 12 1 12 13
M  V30 13 2 13 14
M  V30 14 1 14 15
M  V30 15 1 15 16
M  V30 16 1 16 17
M  V30 17 2 17 18
M  V30 18 1 18 19
M  V30 19 1 10 20
M  V30 20 1 20 21
M  V30 21 1 2 22
M  V30 22 2 22 23
M  V30 23 1 23 24
M  V30 24 2 24 25
M  V30 25 1 25 26
M  V30 26 1 25 27
M  V30 27 2 27 28
M  V30 28 1 21 6
M  V30 29 1 28 22
M  V30 30 1 19 11
M  V30 31 2 19 15
M  V30 32 1 1 29
M  V30 33 1 1 30
M  V30 34 1 1 31
M  V30 35 1 2 32 CFG=1
M  V30 36 1 3 33
M  V30 37 1 7 34
M  V30 38 1 7 35
M  V30 39 1 8 36
M  V30 40 1 8 37
M  V30 41 1 9 38
M  V30 42 1 9 39
M  V30 43 1 13 40
M  V30 44 1 16 41
M  V30 45 1 17 42
M  V30 46 1 18 43
M  V30 47 1 20 44
M  V30 48 1 20 45
M  V30 49 1 21 46
M  V30 50 1 21 47
M  V30 51 1 23 48
M  V30 52 1 24 49
M  V30 53 1 27 50
M  V30 54 1 28 51
M  V30 END BOND
M  V30 END CTAB
M  END
>  <Dataset>  (841) 
ChEMBL_Kinases

>  <Ligand_Instance>  (841) 
nan

>  <PDB_ID>  (841) 
nan

>  <Standardized_SMILES>  (841) 
C[C@H](NC(=O)C1(N)CCN(c2ncnc3[nH]ccc23)CC1)c1ccc(Cl)cc1

>  <Name>  (841) 
nan

>  <Pocket>  (841) 
nan

>  <ATP_Site>  (841) 
nan

>  <Peripheral>  (841) 
nan

>  <Num_H_Atoms_ProtBoundConf>  (841) 
nan

>  <Num_Resolved_Atoms>  (841) 
nan

>  <Num_Not_Resolved_Atoms>  (841) 
nan

$$$$
CHEMBL2325982
     RDKit          3D

  0  0  0  0  0  0  0  0  0  0999 V3000
M  V30 BEGIN CTAB
M  V30 COUNTS 54 57 0 0 0
M  V30 BEGIN ATOM
M  V30 1 C -1.439078 -4.207437 3.586798 0
M  V30 2 C -0.941335 -2.879884 3.050497 0
M  V30 3 C 0.134450 -3.090937 1.992114 0
M  V30 4 N 0.550256 -1.796825 1.538101 0
M  V30 5 C 1.896238 -1.364401 1.689776 0
M  V30 6 O 2.929004 -1.897125 2.179343 0
M  V30 7 C 2.498648 -0.059676 1.278029 0
M  V30 8 N 3.904565 -0.157726 1.678824 0
M  V30 9 C 2.569128 0.112519 -0.217307 0
M  V30 10 C 1.303748 0.637337 -0.819489 0
M  V30 11 N 0.738596 1.718128 -0.085540 0
M  V30 12 C -0.174552 2.656437 -0.649200 0
M  V30 13 N 0.263449 3.948596 -0.623539 0
M  V30 14 C -0.500535 4.960684 -1.128134 0
M  V30 15 N -1.709352 4.692436 -1.663285 0
M  V30 16 C -2.175344 3.437356 -1.707411 0
M  V30 17 N -3.291770 2.829155 -2.150552 0
M  V30 18 C -3.246857 1.489193 -1.940326 0
M  V30 19 C -2.036686 1.207491 -1.327305 0
M  V30 20 C -1.415246 2.418833 -1.203744 0
M  V30 21 C 1.010501 2.002723 1.302785 0
M  V30 22 C 1.923786 1.095812 2.010157 0
M  V30 23 C -0.490297 -3.819922 0.860927 0
M  V30 24 C -0.178251 -5.139324 0.608595 0
M  V30 25 C -0.706427 -5.892370 -0.414110 0
M  V30 26 C -1.619424 -5.234721 -1.230691 0
M  V30 27 Cl -2.305623 -6.189913 -2.548127 0
M  V30 28 C -1.972108 -3.897587 -1.020305 0
M  V30 29 C -1.395173 -3.194740 0.038689 0
M  V30 30 H -0.646287 -4.751764 4.133725 0
M  V30 31 H -1.897294 -4.806966 2.783042 0
M  V30 32 H -2.243107 -3.970196 4.316365 0
M  V30 33 H -1.802473 -2.349687 2.642561 0
M  V30 34 H -0.568808 -2.298524 3.912208 0
M  V30 35 H 0.956737 -3.647770 2.438876 0
M  V30 36 H -0.061207 -1.113577 1.089650 0
M  V30 37 H 3.964073 -0.238911 2.737147 0
M  V30 38 H 4.350049 0.734073 1.432768 0
M  V30 39 H 3.377337 0.844554 -0.428311 0
M  V30 40 H 2.869160 -0.843242 -0.658917 0
M  V30 41 H 0.654918 -0.218578 -1.017686 0
M  V30 42 H 1.581164 1.055960 -1.830965 0
M  V30 43 H -0.107522 5.978725 -1.085237 0
M  V30 44 H -4.093868 3.351911 -2.604269 0
M  V30 45 H -4.043110 0.802625 -2.220716 0
M  V30 46 H -1.696282 0.241215 -1.029478 0
M  V30 47 H 0.001170 2.055490 1.809507 0
M  V30 48 H 1.344050 3.082531 1.334998 0
M  V30 49 H 2.710468 1.734362 2.512394 0
M  V30 50 H 1.385733 0.653702 2.901539 0
M  V30 51 H 0.535335 -5.599123 1.273145 0
M  V30 52 H -0.412528 -6.914760 -0.544914 0
M  V30 53 H -2.696282 -3.508683 -1.732437 0
M  V30 54 H -1.694778 -2.180935 0.158134 0
M  V30 END ATOM
M  V30 BEGIN BOND
M  V30 1 1 1 2
M  V30 2 1 2 3
M  V30 3 1 3 4
M  V30 4 1 4 5
M  V30 5 2 5 6
M  V30 6 1 5 7
M  V30 7 1 7 8
M  V30 8 1 7 9
M  V30 9 1 9 10
M  V30 10 1 10 11
M  V30 11 1 11 12
M  V30 12 2 12 13
M  V30 13 1 13 14
M  V30 14 2 14 15
M  V30 15 1 15 16
M  V30 16 1 16 17
M  V30 17 1 17 18
M  V30 18 2 18 19
M  V30 19 1 19 20
M  V30 20 1 11 21
M  V30 21 1 21 22
M  V30 22 1 3 23
M  V30 23 2 23 24
M  V30 24 1 24 25
M  V30 25 2 25 26
M  V30 26 1 26 27
M  V30 27 1 26 28
M  V30 28 2 28 29
M  V30 29 1 22 7
M  V30 30 1 29 23
M  V30 31 1 20 12
M  V30 32 2 20 16
M  V30 33 1 1 30
M  V30 34 1 1 31
M  V30 35 1 1 32
M  V30 36 1 2 33
M  V30 37 1 2 34
M  V30 38 1 3 35
M  V30 39 1 4 36
M  V30 40 1 8 37
M  V30 41 1 8 38
M  V30 42 1 9 39
M  V30 43 1 9 40
M  V30 44 1 10 41
M  V30 45 1 10 42
M  V30 46 1 14 43
M  V30 47 1 17 44
M  V30 48 1 18 45
M  V30 49 1 19 46
M  V30 50 1 21 47
M  V30 51 1 21 48
M  V30 52 1 22 49
M  V30 53 1 22 50
M  V30 54 1 24 51
M  V30 55 1 25 52
M  V30 56 1 28 53
M  V30 57 1 29 54
M  V30 END BOND
M  V30 END CTAB
M  END
>  <Dataset>  (842) 
ChEMBL_Kinases

>  <Ligand_Instance>  (842) 
nan

>  <PDB_ID>  (842) 
nan

>  <Standardized_SMILES>  (842) 
CCC(NC(=O)C1(N)CCN(c2ncnc3[nH]ccc23)CC1)c1ccc(Cl)cc1

>  <Name>  (842) 
nan

>  <Pocket>  (842) 
nan

>  <ATP_Site>  (842) 
nan

>  <Peripheral>  (842) 
nan

>  <Num_H_Atoms_ProtBoundConf>  (842) 
nan

>  <Num_Resolved_Atoms>  (842) 
nan

>  <Num_Not_Resolved_Atoms>  (842) 
nan

$$$$
CHEMBL2325983
     RDKit          3D

  0  0  0  0  0  0  0  0  0  0999 V3000
M  V30 BEGIN CTAB
M  V30 COUNTS 55 59 0 0 0
M  V30 BEGIN ATOM
M  V30 1 N -1.373156 -0.935899 2.725500 0
M  V30 2 C -1.240664 -0.843334 1.260233 0
M  V30 3 C 0.108689 -0.282402 0.888140 0
M  V30 4 O 0.228883 -0.163616 -0.360275 0
M  V30 5 N 1.092282 0.056752 1.859699 0
M  V30 6 C 2.390116 0.599618 1.498770 0
M  V30 7 C 3.506665 -0.351820 1.733187 0
M  V30 8 C 3.574685 -1.094985 2.895284 0
M  V30 9 C 4.638302 -1.959456 3.056402 0
M  V30 10 C 5.637957 -2.124593 2.122853 0
M  V30 11 Cl 6.991809 -3.214901 2.316288 0
M  V30 12 C 5.595711 -1.394781 0.951777 0
M  V30 13 C 4.527959 -0.529578 0.795310 0
M  V30 14 C 2.639648 1.974136 2.018126 0
M  V30 15 C 2.606673 2.174457 3.544008 0
M  V30 16 C 3.857282 2.319799 2.786474 0
M  V30 17 C -1.460505 -2.211142 0.746971 0
M  V30 18 C -2.788020 -2.539369 0.155450 0
M  V30 19 N -3.586618 -1.413490 -0.209401 0
M  V30 20 C -4.220562 -1.376870 -1.453609 0
M  V30 21 N -5.582014 -1.305087 -1.549859 0
M  V30 22 C -6.183336 -1.273444 -2.772378 0
M  V30 23 N -5.522599 -1.308370 -3.925403 0
M  V30 24 C -4.183540 -1.379220 -3.927457 0
M  V30 25 N -3.227022 -1.430270 -4.878426 0
M  V30 26 C -2.020701 -1.494052 -4.324601 0
M  V30 27 C -2.219715 -1.483124 -2.958080 0
M  V30 28 C -3.580454 -1.410993 -2.674118 0
M  V30 29 C -3.632602 -0.396681 0.831721 0
M  V30 30 C -2.234434 0.182954 0.822300 0
M  V30 31 H -1.112831 -0.074836 3.212662 0
M  V30 32 H -0.864434 -1.730600 3.124680 0
M  V30 33 H 0.892630 -0.083318 2.873850 0
M  V30 34 H 2.331064 0.671361 0.370314 0
M  V30 35 H 2.838707 -1.027297 3.672967 0
M  V30 36 H 4.685230 -2.533667 3.960557 0
M  V30 37 H 6.324715 -1.431781 0.134291 0
M  V30 38 H 4.415582 0.080019 -0.090245 0
M  V30 39 H 2.182844 2.822942 1.445128 0
M  V30 40 H 2.123984 3.088989 3.943525 0
M  V30 41 H 2.491194 1.283927 4.183492 0
M  V30 42 H 4.658201 1.556947 2.939304 0
M  V30 43 H 4.293226 3.335623 2.694089 0
M  V30 44 H -1.150539 -2.985634 1.511487 0
M  V30 45 H -0.702865 -2.375689 -0.076300 0
M  V30 46 H -3.371077 -3.043682 0.985513 0
M  V30 47 H -2.717618 -3.341594 -0.608945 0
M  V30 48 H -7.284827 -1.214411 -2.739099 0
M  V30 49 H -3.464402 -1.418506 -5.894293 0
M  V30 50 H -1.121615 -1.541516 -4.920129 0
M  V30 51 H -1.424547 -1.525233 -2.238767 0
M  V30 52 H -4.402263 0.369567 0.620955 0
M  V30 53 H -3.791396 -0.831815 1.850623 0
M  V30 54 H -2.052969 0.495778 -0.230979 0
M  V30 55 H -2.171633 1.123253 1.407682 0
M  V30 END ATOM
M  V30 BEGIN BOND
M  V30 1 1 1 2
M  V30 2 1 2 3
M  V30 3 2 3 4
M  V30 4 1 3 5
M  V30 5 1 5 6
M  V30 6 1 6 7
M  V30 7 2 7 8
M  V30 8 1 8 9
M  V30 9 2 9 10
M  V30 10 1 10 11
M  V30 11 1 10 12
M  V30 12 2 12 13
M  V30 13 1 6 14
M  V30 14 1 14 15
M  V30 15 1 15 16
M  V30 16 1 2 17
M  V30 17 1 17 18
M  V30 18 1 18 19
M  V30 19 1 19 20
M  V30 20 2 20 21
M  V30 21 1 21 22
M  V30 22 2 22 23
M  V30 23 1 23 24
M  V30 24 1 24 25
M  V30 25 1 25 26
M  V30 26 2 26 27
M  V30 27 1 27 28
M  V30 28 1 19 29
M  V30 29 1 29 30
M  V30 30 1 30 2
M  V30 31 1 13 7
M  V30 32 1 16 14
M  V30 33 1 28 20
M  V30 34 2 28 24
M  V30 35 1 1 31
M  V30 36 1 1 32
M  V30 37 1 5 33
M  V30 38 1 6 34
M  V30 39 1 8 35
M  V30 40 1 9 36
M  V30 41 1 12 37
M  V30 42 1 13 38
M  V30 43 1 14 39
M  V30 44 1 15 40
M  V30 45 1 15 41
M  V30 46 1 16 42
M  V30 47 1 16 43
M  V30 48 1 17 44
M  V30 49 1 17 45
M  V30 50 1 18 46
M  V30 51 1 18 47
M  V30 52 1 22 48
M  V30 53 1 25 49
M  V30 54 1 26 50
M  V30 55 1 27 51
M  V30 56 1 29 52
M  V30 57 1 29 53
M  V30 58 1 30 54
M  V30 59 1 30 55
M  V30 END BOND
M  V30 END CTAB
M  END
>  <Dataset>  (843) 
ChEMBL_Kinases

>  <Ligand_Instance>  (843) 
nan

>  <PDB_ID>  (843) 
nan

>  <Standardized_SMILES>  (843) 
NC1(C(=O)NC(c2ccc(Cl)cc2)C2CC2)CCN(c2ncnc3[nH]ccc23)CC1

>  <Name>  (843) 
nan

>  <Pocket>  (843) 
nan

>  <ATP_Site>  (843) 
nan

>  <Peripheral>  (843) 
nan

>  <Num_H_Atoms_ProtBoundConf>  (843) 
nan

>  <Num_Resolved_Atoms>  (843) 
nan

>  <Num_Not_Resolved_Atoms>  (843) 
nan

$$$$
CHEMBL2325984
     RDKit          3D

  0  0  0  0  0  0  0  0  0  0999 V3000
M  V30 BEGIN CTAB
M  V30 COUNTS 58 62 0 0 0
M  V30 BEGIN ATOM
M  V30 1 N -1.142675 1.828022 -0.869775 0
M  V30 2 C -1.394306 0.375692 -0.896485 0
M  V30 3 C -0.473360 -0.200516 0.155534 0
M  V30 4 O -0.454598 -1.458220 0.377153 0
M  V30 5 N 0.404270 0.597775 0.941413 0
M  V30 6 C 1.275949 0.015163 1.942702 0
M  V30 7 C 2.698797 0.297853 1.542857 0
M  V30 8 C 3.596905 0.744155 2.518462 0
M  V30 9 C 4.920308 1.031604 2.256828 0
M  V30 10 C 5.356257 0.862189 0.958203 0
M  V30 11 C 4.481326 0.419888 -0.026839 0
M  V30 12 C 3.161393 0.139647 0.263809 0
M  V30 13 C 1.010847 0.654566 3.266224 0
M  V30 14 C 0.889417 2.033764 3.327012 0
M  V30 15 C 0.642806 2.604884 4.569672 0
M  V30 16 C 0.515845 1.881147 5.720310 0
M  V30 17 Cl 0.205152 2.582149 7.294527 0
M  V30 18 C 0.638362 0.499307 5.654047 0
M  V30 19 C 0.883236 -0.086280 4.429387 0
M  V30 20 C -2.785730 0.116145 -0.494462 0
M  V30 21 C -3.614280 -0.773327 -1.352168 0
M  V30 22 N -2.681487 -1.705972 -2.030911 0
M  V30 23 C -2.733201 -3.065579 -1.628982 0
M  V30 24 N -3.815452 -3.468556 -0.940065 0
M  V30 25 C -3.981108 -4.734462 -0.544036 0
M  V30 26 N -3.057997 -5.669609 -0.822626 0
M  V30 27 C -1.931023 -5.370645 -1.509888 0
M  V30 28 N -0.857712 -6.046532 -1.922401 0
M  V30 29 C -0.023024 -5.214787 -2.570494 0
M  V30 30 C -0.626617 -3.980229 -2.544735 0
M  V30 31 C -1.832132 -4.049090 -1.882903 0
M  V30 32 C -1.953189 -0.905851 -2.985003 0
M  V30 33 C -0.919136 -0.149359 -2.201978 0
M  V30 34 H -0.156548 2.020117 -1.129954 0
M  V30 35 H -1.392674 2.242438 0.040356 0
M  V30 36 H 0.417499 1.630158 0.789297 0
M  V30 37 H 1.163649 -1.068756 1.998042 0
M  V30 38 H 3.245101 0.873079 3.530081 0
M  V30 39 H 5.573445 1.373326 3.044874 0
M  V30 40 H 6.408983 1.101760 0.800654 0
M  V30 41 H 4.895528 0.311012 -1.021150 0
M  V30 42 H 2.487333 -0.203084 -0.504837 0
M  V30 43 H 0.974612 2.691521 2.469564 0
M  V30 44 H 0.537644 3.686546 4.679483 0
M  V30 45 H 0.560173 -0.197269 6.488361 0
M  V30 46 H 0.992961 -1.147156 4.281129 0
M  V30 47 H -3.328252 1.102539 -0.361590 0
M  V30 48 H -2.819029 -0.303135 0.557484 0
M  V30 49 H -4.206402 -0.190881 -2.068584 0
M  V30 50 H -4.341119 -1.328811 -0.717798 0
M  V30 51 H -4.902554 -4.946521 0.010566 0
M  V30 52 H -0.764345 -7.075913 -1.724283 0
M  V30 53 H 0.906946 -5.502632 -2.999477 0
M  V30 54 H -0.157358 -3.123026 -2.993133 0
M  V30 55 H -2.668548 -0.202025 -3.507597 0
M  V30 56 H -1.467879 -1.434757 -3.798788 0
M  V30 57 H -0.574068 0.673785 -2.860881 0
M  V30 58 H -0.044335 -0.825099 -2.108940 0
M  V30 END ATOM
M  V30 BEGIN BOND
M  V30 1 1 1 2
M  V30 2 1 2 3
M  V30 3 2 3 4
M  V30 4 1 3 5
M  V30 5 1 5 6
M  V30 6 1 6 7
M  V30 7 2 7 8
M  V30 8 1 8 9
M  V30 9 2 9 10
M  V30 10 1 10 11
M  V30 11 2 11 12
M  V30 12 1 6 13
M  V30 13 2 13 14
M  V30 14 1 14 15
M  V30 15 2 15 16
M  V30 16 1 16 17
M  V30 17 1 16 18
M  V30 18 2 18 19
M  V30 19 1 2 20
M  V30 20 1 20 21
M  V30 21 1 21 22
M  V30 22 1 22 23
M  V30 23 2 23 24
M  V30 24 1 24 25
M  V30 25 2 25 26
M  V30 26 1 26 27
M  V30 27 1 27 28
M  V30 28 1 28 29
M  V30 29 2 29 30
M  V30 30 1 30 31
M  V30 31 1 22 32
M  V30 32 1 32 33
M  V30 33 1 33 2
M  V30 34 1 12 7
M  V30 35 1 19 13
M  V30 36 1 31 23
M  V30 37 2 31 27
M  V30 38 1 1 34
M  V30 39 1 1 35
M  V30 40 1 5 36
M  V30 41 1 6 37
M  V30 42 1 8 38
M  V30 43 1 9 39
M  V30 44 1 10 40
M  V30 45 1 11 41
M  V30 46 1 12 42
M  V30 47 1 14 43
M  V30 48 1 15 44
M  V30 49 1 18 45
M  V30 50 1 19 46
M  V30 51 1 20 47
M  V30 52 1 20 48
M  V30 53 1 21 49
M  V30 54 1 21 50
M  V30 55 1 25 51
M  V30 56 1 28 52
M  V30 57 1 29 53
M  V30 58 1 30 54
M  V30 59 1 32 55
M  V30 60 1 32 56
M  V30 61 1 33 57
M  V30 62 1 33 58
M  V30 END BOND
M  V30 END CTAB
M  END
>  <Dataset>  (844) 
ChEMBL_Kinases

>  <Ligand_Instance>  (844) 
nan

>  <PDB_ID>  (844) 
nan

>  <Standardized_SMILES>  (844) 
NC1(C(=O)NC(c2ccccc2)c2ccc(Cl)cc2)CCN(c2ncnc3[nH]ccc23)CC1

>  <Name>  (844) 
nan

>  <Pocket>  (844) 
nan

>  <ATP_Site>  (844) 
nan

>  <Peripheral>  (844) 
nan

>  <Num_H_Atoms_ProtBoundConf>  (844) 
nan

>  <Num_Resolved_Atoms>  (844) 
nan

>  <Num_Not_Resolved_Atoms>  (844) 
nan

$$$$
CHEMBL2325737
     RDKit          3D

  0  0  0  0  0  0  0  0  0  0999 V3000
M  V30 BEGIN CTAB
M  V30 COUNTS 52 55 0 0 0
M  V30 BEGIN ATOM
M  V30 1 N 2.175272 -1.724051 2.515664 0
M  V30 2 C 1.078910 -1.881306 1.586683 0
M  V30 3 C 0.895099 -0.671836 0.738867 0
M  V30 4 O 0.046692 -0.439347 -0.178542 0
M  V30 5 N 1.781039 0.447952 0.933867 0
M  V30 6 C 1.730454 1.688307 0.192372 0
M  V30 7 C 2.995743 1.805296 -0.635043 0
M  V30 8 O 3.036700 0.710614 -1.499101 0
M  V30 9 C 1.562123 2.882084 1.065190 0
M  V30 10 C 0.655341 3.896223 0.759082 0
M  V30 11 C 0.559732 4.971360 1.621930 0
M  V30 12 C 1.330344 5.037163 2.739694 0
M  V30 13 Cl 1.092657 6.467309 3.735887 0
M  V30 14 C 2.221162 4.040421 3.039990 0
M  V30 15 C 2.347599 2.943012 2.198833 0
M  V30 16 C 1.353701 -3.067700 0.693265 0
M  V30 17 C 0.182363 -3.335277 -0.226169 0
M  V30 18 N -1.063287 -3.126868 0.489165 0
M  V30 19 C -2.323666 -2.751160 -0.053585 0
M  V30 20 N -2.820797 -1.595750 0.423658 0
M  V30 21 C -4.010908 -1.169408 -0.039690 0
M  V30 22 N -4.719193 -1.851332 -0.957649 0
M  V30 23 C -4.256318 -3.020992 -1.466434 0
M  V30 24 N -4.699776 -3.936793 -2.376709 0
M  V30 25 C -3.761879 -4.920417 -2.456079 0
M  V30 26 C -2.718308 -4.655278 -1.611195 0
M  V30 27 C -3.037852 -3.468892 -0.999869 0
M  V30 28 C -0.875701 -3.359609 1.928647 0
M  V30 29 C -0.165381 -2.090794 2.417256 0
M  V30 30 H 1.844702 -1.286525 3.405952 0
M  V30 31 H 2.614468 -2.643882 2.762336 0
M  V30 32 H 2.523799 0.343023 1.681823 0
M  V30 33 H 0.889072 1.596440 -0.537093 0
M  V30 34 H 3.911567 1.727454 -0.005936 0
M  V30 35 H 2.992204 2.721452 -1.255301 0
M  V30 36 H 2.632399 -0.105938 -1.105916 0
M  V30 37 H 0.099302 3.723239 -0.163465 0
M  V30 38 H -0.167272 5.694338 1.293239 0
M  V30 39 H 2.777231 4.208480 3.958033 0
M  V30 40 H 3.068671 2.193344 2.494748 0
M  V30 41 H 2.228590 -2.804725 0.073964 0
M  V30 42 H 1.620752 -3.958280 1.295980 0
M  V30 43 H 0.294472 -2.635587 -1.080991 0
M  V30 44 H 0.271833 -4.358268 -0.649266 0
M  V30 45 H -4.425214 -0.225217 0.345193 0
M  V30 46 H -5.618786 -3.757784 -2.837609 0
M  V30 47 H -3.918452 -5.757668 -3.130209 0
M  V30 48 H -1.841766 -5.251247 -1.463455 0
M  V30 49 H -1.859078 -3.406315 2.440715 0
M  V30 50 H -0.292287 -4.268147 2.104409 0
M  V30 51 H 0.032422 -2.199087 3.500538 0
M  V30 52 H -0.906154 -1.268575 2.276015 0
M  V30 END ATOM
M  V30 BEGIN BOND
M  V30 1 1 1 2
M  V30 2 1 2 3
M  V30 3 2 3 4
M  V30 4 1 3 5
M  V30 5 1 5 6
M  V30 6 1 6 7
M  V30 7 1 7 8
M  V30 8 1 6 9
M  V30 9 2 9 10
M  V30 10 1 10 11
M  V30 11 2 11 12
M  V30 12 1 12 13
M  V30 13 1 12 14
M  V30 14 2 14 15
M  V30 15 1 2 16
M  V30 16 1 16 17
M  V30 17 1 17 18
M  V30 18 1 18 19
M  V30 19 2 19 20
M  V30 20 1 20 21
M  V30 21 2 21 22
M  V30 22 1 22 23
M  V30 23 1 23 24
M  V30 24 1 24 25
M  V30 25 2 25 26
M  V30 26 1 26 27
M  V30 27 1 18 28
M  V30 28 1 28 29
M  V30 29 1 29 2
M  V30 30 1 15 9
M  V30 31 1 27 19
M  V30 32 2 27 23
M  V30 33 1 1 30
M  V30 34 1 1 31
M  V30 35 1 5 32
M  V30 36 1 6 33
M  V30 37 1 7 34
M  V30 38 1 7 35
M  V30 39 1 8 36
M  V30 40 1 10 37
M  V30 41 1 11 38
M  V30 42 1 14 39
M  V30 43 1 15 40
M  V30 44 1 16 41
M  V30 45 1 16 42
M  V30 46 1 17 43
M  V30 47 1 17 44
M  V30 48 1 21 45
M  V30 49 1 24 46
M  V30 50 1 25 47
M  V30 51 1 26 48
M  V30 52 1 28 49
M  V30 53 1 28 50
M  V30 54 1 29 51
M  V30 55 1 29 52
M  V30 END BOND
M  V30 END CTAB
M  END
>  <Dataset>  (845) 
ChEMBL_Kinases

>  <Ligand_Instance>  (845) 
nan

>  <PDB_ID>  (845) 
nan

>  <Standardized_SMILES>  (845) 
NC1(C(=O)NC(CO)c2ccc(Cl)cc2)CCN(c2ncnc3[nH]ccc23)CC1

>  <Name>  (845) 
nan

>  <Pocket>  (845) 
nan

>  <ATP_Site>  (845) 
nan

>  <Peripheral>  (845) 
nan

>  <Num_H_Atoms_ProtBoundConf>  (845) 
nan

>  <Num_Resolved_Atoms>  (845) 
nan

>  <Num_Not_Resolved_Atoms>  (845) 
nan

$$$$
CHEMBL151
     RDKit          3D

  0  0  0  0  0  0  0  0  0  0999 V3000
M  V30 BEGIN CTAB
M  V30 COUNTS 31 33 0 0 0
M  V30 BEGIN ATOM
M  V30 1 O -0.950348 -0.220341 4.213310 0
M  V30 2 C -0.721178 -0.240783 2.971948 0
M  V30 3 C 0.267479 -1.013829 2.398104 0
M  V30 4 C 0.535913 -1.052512 1.046913 0
M  V30 5 C 1.587985 -1.879064 0.463631 0
M  V30 6 C 2.424212 -2.705702 1.185187 0
M  V30 7 C 3.398760 -3.460199 0.566849 0
M  V30 8 C 3.523792 -3.372208 -0.803525 0
M  V30 9 O 4.492860 -4.116032 -1.463416 0
M  V30 10 C 2.713748 -2.560747 -1.577294 0
M  V30 11 O 2.823311 -2.457516 -2.960677 0
M  V30 12 C 1.758743 -1.830992 -0.904185 0
M  V30 13 O -0.235083 -0.279705 0.307815 0
M  V30 14 C -1.181398 0.466112 0.816056 0
M  V30 15 C -1.936199 1.245096 -0.063932 0
M  V30 16 C -2.957014 2.066006 0.370051 0
M  V30 17 O -3.685301 2.822836 -0.515459 0
M  V30 18 C -3.271267 2.142853 1.731568 0
M  V30 19 C -2.522245 1.371152 2.595545 0
M  V30 20 O -2.724009 1.346151 3.988684 0
M  V30 21 C -1.503305 0.552337 2.158277 0
M  V30 22 H 0.834305 -1.601186 3.075479 0
M  V30 23 H 2.300695 -2.752337 2.257496 0
M  V30 24 H 4.031419 -4.094215 1.172919 0
M  V30 25 H 5.377187 -3.657201 -1.714589 0
M  V30 26 H 2.047044 -2.338234 -3.577174 0
M  V30 27 H 1.125177 -1.198466 -1.494382 0
M  V30 28 H -1.749826 1.236019 -1.126256 0
M  V30 29 H -3.364306 3.779965 -0.670463 0
M  V30 30 H -4.056327 2.763501 2.139908 0
M  V30 31 H -3.230188 0.514931 4.327077 0
M  V30 END ATOM
M  V30 BEGIN BOND
M  V30 1 2 1 2
M  V30 2 1 2 3
M  V30 3 2 3 4
M  V30 4 1 4 5
M  V30 5 2 5 6
M  V30 6 1 6 7
M  V30 7 2 7 8
M  V30 8 1 8 9
M  V30 9 1 8 10
M  V30 10 1 10 11
M  V30 11 2 10 12
M  V30 12 1 4 13
M  V30 13 1 13 14
M  V30 14 2 14 15
M  V30 15 1 15 16
M  V30 16 1 16 17
M  V30 17 2 16 18
M  V30 18 1 18 19
M  V30 19 1 19 20
M  V30 20 2 19 21
M  V30 21 1 21 2
M  V30 22 1 12 5
M  V30 23 1 21 14
M  V30 24 1 3 22
M  V30 25 1 6 23
M  V30 26 1 7 24
M  V30 27 1 9 25
M  V30 28 1 11 26
M  V30 29 1 12 27
M  V30 30 1 15 28
M  V30 31 1 17 29
M  V30 32 1 18 30
M  V30 33 1 20 31
M  V30 END BOND
M  V30 END CTAB
M  END
>  <Dataset>  (846) 
ChEMBL_Kinases

>  <Ligand_Instance>  (846) 
nan

>  <PDB_ID>  (846) 
nan

>  <Standardized_SMILES>  (846) 
O=c1cc(-c2ccc(O)c(O)c2)oc2cc(O)cc(O)c12

>  <Name>  (846) 
LUTEOLIN

>  <Pocket>  (846) 
nan

>  <ATP_Site>  (846) 
nan

>  <Peripheral>  (846) 
nan

>  <Num_H_Atoms_ProtBoundConf>  (846) 
nan

>  <Num_Resolved_Atoms>  (846) 
nan

>  <Num_Not_Resolved_Atoms>  (846) 
nan

$$$$
CHEMBL4473140
     RDKit          3D

  0  0  0  0  0  0  0  0  0  0999 V3000
M  V30 BEGIN CTAB
M  V30 COUNTS 54 58 0 0 0
M  V30 BEGIN ATOM
M  V30 1 O 2.390265 -6.355931 -2.655785 0
M  V30 2 C 1.241898 -6.386022 -2.151670 0
M  V30 3 N 0.821266 -5.697249 -0.990868 0
M  V30 4 C 1.406174 -4.816090 -0.038433 0
M  V30 5 N 2.042558 -5.247266 1.090341 0
M  V30 6 N 2.475480 -4.196771 1.774577 0
M  V30 7 C 2.128834 -3.070521 1.104602 0
M  V30 8 C 2.312095 -1.720450 1.343888 0
M  V30 9 C 1.828447 -0.754040 0.452273 0
M  V30 10 C 2.070890 0.650884 0.789447 0
M  V30 11 C 3.191121 1.077175 1.471988 0
M  V30 12 C 3.356783 2.424908 1.762215 0
M  V30 13 C 2.371332 3.295195 1.345274 0
M  V30 14 C 1.232004 2.871653 0.652558 0
M  V30 15 N 0.385002 3.971459 0.350271 0
M  V30 16 S -1.321811 3.756079 0.654519 0
M  V30 17 O -1.855172 2.561190 -0.085831 0
M  V30 18 O -2.114162 4.945471 0.256304 0
M  V30 19 C -1.585638 3.454971 2.384895 0
M  V30 20 C -3.013706 3.265936 2.725743 0
M  V30 21 C -3.731948 4.278487 3.352513 0
M  V30 22 C -5.066169 4.237197 3.728083 0
M  V30 23 C -5.744032 3.072164 3.449491 0
M  V30 24 C -5.089134 2.031218 2.829608 0
M  V30 25 C -3.742882 2.122390 2.470935 0
M  V30 26 F -3.112607 1.090490 1.861363 0
M  V30 27 C 1.082864 1.531959 0.372629 0
M  V30 28 C 1.155896 -1.159605 -0.687706 0
M  V30 29 C 0.953465 -2.513674 -0.960157 0
M  V30 30 C 1.444045 -3.433673 -0.058607 0
M  V30 31 C 0.255979 -7.231464 -2.862061 0
M  V30 32 C 0.709504 -8.556658 -3.425011 0
M  V30 33 C 0.380183 -7.391397 -4.309505 0
M  V30 34 H -0.184194 -5.805827 -0.663953 0
M  V30 35 H 3.000047 -4.146264 2.679574 0
M  V30 36 H 2.842559 -1.436018 2.242946 0
M  V30 37 H 3.922014 0.313089 1.763044 0
M  V30 38 H 4.239609 2.702376 2.291501 0
M  V30 39 H 2.605734 4.329770 1.627142 0
M  V30 40 H 0.729760 4.858009 -0.027855 0
M  V30 41 H -1.216743 4.323877 2.966596 0
M  V30 42 H -0.969888 2.581644 2.727007 0
M  V30 43 H -3.164323 5.191369 3.560493 0
M  V30 44 H -5.473837 5.105955 4.204881 0
M  V30 45 H -6.781151 3.069614 3.753736 0
M  V30 46 H -5.667341 1.138854 2.633508 0
M  V30 47 H 0.179497 1.319557 -0.158624 0
M  V30 48 H 0.790664 -0.394598 -1.362788 0
M  V30 49 H 0.423447 -2.829882 -1.858424 0
M  V30 50 H -0.787926 -7.282019 -2.446383 0
M  V30 51 H 0.063399 -9.442160 -3.403196 0
M  V30 52 H 1.801662 -8.772853 -3.296939 0
M  V30 53 H -0.519343 -7.551518 -4.950055 0
M  V30 54 H 1.198490 -6.904443 -4.871395 0
M  V30 END ATOM
M  V30 BEGIN BOND
M  V30 1 2 1 2
M  V30 2 1 2 3
M  V30 3 1 3 4
M  V30 4 2 4 5
M  V30 5 1 5 6
M  V30 6 1 6 7
M  V30 7 2 7 8
M  V30 8 1 8 9
M  V30 9 1 9 10
M  V30 10 2 10 11
M  V30 11 1 11 12
M  V30 12 2 12 13
M  V30 13 1 13 14
M  V30 14 1 14 15
M  V30 15 1 15 16
M  V30 16 2 16 17
M  V30 17 2 16 18
M  V30 18 1 16 19
M  V30 19 1 19 20
M  V30 20 2 20 21
M  V30 21 1 21 22
M  V30 22 2 22 23
M  V30 23 1 23 24
M  V30 24 2 24 25
M  V30 25 1 25 26
M  V30 26 2 14 27
M  V30 27 2 9 28
M  V30 28 1 28 29
M  V30 29 2 29 30
M  V30 30 1 2 31
M  V30 31 1 31 32
M  V30 32 1 32 33
M  V30 33 1 30 4
M  V30 34 1 33 31
M  V30 35 1 30 7
M  V30 36 1 27 10
M  V30 37 1 25 20
M  V30 38 1 3 34
M  V30 39 1 6 35
M  V30 40 1 8 36
M  V30 41 1 11 37
M  V30 42 1 12 38
M  V30 43 1 13 39
M  V30 44 1 15 40
M  V30 45 1 19 41
M  V30 46 1 19 42
M  V30 47 1 21 43
M  V30 48 1 22 44
M  V30 49 1 23 45
M  V30 50 1 24 46
M  V30 51 1 27 47
M  V30 52 1 28 48
M  V30 53 1 29 49
M  V30 54 1 31 50
M  V30 55 1 32 51
M  V30 56 1 32 52
M  V30 57 1 33 53
M  V30 58 1 33 54
M  V30 END BOND
M  V30 END CTAB
M  END
>  <Dataset>  (847) 
ChEMBL_Kinases

>  <Ligand_Instance>  (847) 
nan

>  <PDB_ID>  (847) 
nan

>  <Standardized_SMILES>  (847) 
O=C(Nc1n[nH]c2cc(-c3cccc(NS(=O)(=O)Cc4ccccc4F)c3)ccc12)C1CC1

>  <Name>  (847) 
nan

>  <Pocket>  (847) 
nan

>  <ATP_Site>  (847) 
nan

>  <Peripheral>  (847) 
nan

>  <Num_H_Atoms_ProtBoundConf>  (847) 
nan

>  <Num_Resolved_Atoms>  (847) 
nan

>  <Num_Not_Resolved_Atoms>  (847) 
nan

$$$$
CHEMBL4472438
     RDKit          3D

  0  0  0  0  0  0  0  0  0  0999 V3000
M  V30 BEGIN CTAB
M  V30 COUNTS 58 61 0 0 0
M  V30 BEGIN ATOM
M  V30 1 C 5.122238 -0.926528 2.226067 0
M  V30 2 C 5.382965 0.021431 3.361576 0
M  V30 3 N 4.241879 0.639970 3.877436 0
M  V30 4 C 3.692280 0.107732 5.073622 0
M  V30 5 C 4.465651 0.382859 6.314522 0
M  V30 6 S 3.780999 2.161881 3.409427 0
M  V30 7 O 5.028036 2.877287 2.868984 0
M  V30 8 O 3.364496 3.056544 4.580709 0
M  V30 9 N 2.632695 2.200188 2.172408 0
M  V30 10 C 2.996638 1.626968 0.911218 0
M  V30 11 C 1.844656 1.765810 -0.073851 0
M  V30 12 C 1.810912 2.908601 -0.847885 0
M  V30 13 C 0.783720 3.064003 -1.746558 0
M  V30 14 C -0.211414 2.106730 -1.892261 0
M  V30 15 C -0.173384 0.965916 -1.116256 0
M  V30 16 C -1.147070 -0.127142 -1.155647 0
M  V30 17 C -2.487400 0.086015 -1.449262 0
M  V30 18 C -3.401021 -0.958771 -1.483949 0
M  V30 19 C -2.952162 -2.227140 -1.219294 0
M  V30 20 C -3.549394 -3.472852 -1.163680 0
M  V30 21 N -4.925175 -3.767619 -1.393552 0
M  V30 22 C -5.140300 -4.049622 -2.770350 0
M  V30 23 O -5.010014 -4.246549 -4.026373 0
M  V30 24 C -6.447976 -4.398939 -3.381702 0
M  V30 25 C -7.708395 -3.771705 -2.921674 0
M  V30 26 C -7.425529 -5.245641 -2.645083 0
M  V30 27 N -2.617631 -4.415155 -0.849190 0
M  V30 28 N -1.439956 -3.827818 -0.698915 0
M  V30 29 C -1.624372 -2.510806 -0.918331 0
M  V30 30 C -0.753350 -1.426467 -0.897466 0
M  V30 31 C 0.855879 0.805703 -0.212812 0
M  V30 32 H 5.294015 -0.500684 1.222008 0
M  V30 33 H 5.758594 -1.836300 2.281515 0
M  V30 34 H 4.060217 -1.304662 2.234991 0
M  V30 35 H 5.956839 -0.557787 4.128001 0
M  V30 36 H 6.060339 0.820387 2.952461 0
M  V30 37 H 3.614864 -0.991293 4.952543 0
M  V30 38 H 2.673436 0.494132 5.217625 0
M  V30 39 H 3.998009 -0.232847 7.133786 0
M  V30 40 H 4.399403 1.425618 6.685206 0
M  V30 41 H 5.518405 0.018716 6.271849 0
M  V30 42 H 2.319994 3.183514 2.011309 0
M  V30 43 H 3.930734 2.010406 0.469211 0
M  V30 44 H 3.071806 0.499395 0.998639 0
M  V30 45 H 2.566421 3.708429 -0.784704 0
M  V30 46 H 0.696117 3.940939 -2.388366 0
M  V30 47 H -1.052001 2.168344 -2.584679 0
M  V30 48 H -2.820033 1.083981 -1.653517 0
M  V30 49 H -4.450201 -0.799950 -1.712559 0
M  V30 50 H -5.810048 -3.836791 -0.856174 0
M  V30 51 H -6.363198 -4.575503 -4.471817 0
M  V30 52 H -7.709136 -3.163243 -1.981851 0
M  V30 53 H -8.524695 -3.531088 -3.625594 0
M  V30 54 H -7.137024 -5.559675 -1.627647 0
M  V30 55 H -8.054176 -5.953898 -3.241248 0
M  V30 56 H -0.535453 -4.284381 -0.457511 0
M  V30 57 H 0.299393 -1.635142 -0.661193 0
M  V30 58 H 0.993488 -0.033352 0.443103 0
M  V30 END ATOM
M  V30 BEGIN BOND
M  V30 1 1 1 2
M  V30 2 1 2 3
M  V30 3 1 3 4
M  V30 4 1 4 5
M  V30 5 1 3 6
M  V30 6 2 6 7
M  V30 7 2 6 8
M  V30 8 1 6 9
M  V30 9 1 9 10
M  V30 10 1 10 11
M  V30 11 2 11 12
M  V30 12 1 12 13
M  V30 13 2 13 14
M  V30 14 1 14 15
M  V30 15 1 15 16
M  V30 16 2 16 17
M  V30 17 1 17 18
M  V30 18 2 18 19
M  V30 19 1 19 20
M  V30 20 1 20 21
M  V30 21 1 21 22
M  V30 22 2 22 23
M  V30 23 1 22 24
M  V30 24 1 24 25
M  V30 25 1 25 26
M  V30 26 2 20 27
M  V30 27 1 27 28
M  V30 28 1 28 29
M  V30 29 2 29 30
M  V30 30 2 15 31
M  V30 31 1 31 11
M  V30 32 1 30 16
M  V30 33 1 29 19
M  V30 34 1 26 24
M  V30 35 1 1 32
M  V30 36 1 1 33
M  V30 37 1 1 34
M  V30 38 1 2 35
M  V30 39 1 2 36
M  V30 40 1 4 37
M  V30 41 1 4 38
M  V30 42 1 5 39
M  V30 43 1 5 40
M  V30 44 1 5 41
M  V30 45 1 9 42
M  V30 46 1 10 43
M  V30 47 1 10 44
M  V30 48 1 12 45
M  V30 49 1 13 46
M  V30 50 1 14 47
M  V30 51 1 17 48
M  V30 52 1 18 49
M  V30 53 1 21 50
M  V30 54 1 24 51
M  V30 55 1 25 52
M  V30 56 1 25 53
M  V30 57 1 26 54
M  V30 58 1 26 55
M  V30 59 1 28 56
M  V30 60 1 30 57
M  V30 61 1 31 58
M  V30 END BOND
M  V30 END CTAB
M  END
>  <Dataset>  (848) 
ChEMBL_Kinases

>  <Ligand_Instance>  (848) 
nan

>  <PDB_ID>  (848) 
nan

>  <Standardized_SMILES>  (848) 
CCN(CC)S(=O)(=O)NCc1cccc(-c2ccc3c(NC(=O)C4CC4)n[nH]c3c2)c1

>  <Name>  (848) 
nan

>  <Pocket>  (848) 
nan

>  <ATP_Site>  (848) 
nan

>  <Peripheral>  (848) 
nan

>  <Num_H_Atoms_ProtBoundConf>  (848) 
nan

>  <Num_Resolved_Atoms>  (848) 
nan

>  <Num_Not_Resolved_Atoms>  (848) 
nan

$$$$
CHEMBL3264002
     RDKit          3D

  0  0  0  0  0  0  0  0  0  0999 V3000
M  V30 BEGIN CTAB
M  V30 COUNTS 51 54 0 0 0
M  V30 BEGIN ATOM
M  V30 1 C 5.645053 -2.107930 1.470582 0
M  V30 2 N 5.740602 -1.434570 2.775351 0
M  V30 3 S 4.193633 -1.724301 3.535060 0
M  V30 4 O 4.134690 -1.027640 4.868575 0
M  V30 5 O 3.956649 -3.193356 3.699497 0
M  V30 6 N 2.975360 -1.003882 2.549820 0
M  V30 7 C 2.958186 0.391463 2.305669 0
M  V30 8 N 3.881654 1.226932 2.827819 0
M  V30 9 C 3.778517 2.541926 2.532244 0
M  V30 10 C 2.824439 3.146808 1.745632 0
M  V30 11 C 1.869065 2.286960 1.204485 0
M  V30 12 C 0.822356 2.879348 0.348866 0
M  V30 13 C -0.182910 1.936107 -0.114734 0
M  V30 14 C -1.235892 1.444180 0.649627 0
M  V30 15 C -1.371137 1.915490 2.042793 0
M  V30 16 C -2.145417 0.530101 0.123977 0
M  V30 17 C -3.184195 0.039712 0.868939 0
M  V30 18 C -4.090239 -0.862560 0.369649 0
M  V30 19 C -3.948611 -1.292308 -0.934653 0
M  V30 20 O -4.767054 -2.200615 -1.607908 0
M  V30 21 C -4.504213 -3.565079 -1.575413 0
M  V30 22 N -3.414689 -3.896604 -0.849220 0
M  V30 23 C -3.058755 -5.199586 -0.744356 0
M  V30 24 C -3.825722 -6.161717 -1.388164 0
M  V30 25 C -4.940470 -5.811328 -2.129999 0
M  V30 26 N -5.250274 -4.487997 -2.200084 0
M  V30 27 C -2.905976 -0.806177 -1.698291 0
M  V30 28 C -1.988036 0.105188 -1.198833 0
M  V30 29 O -0.991166 0.580420 -1.901243 0
M  V30 30 C -0.126940 1.440311 -1.422698 0
M  V30 31 O 0.808483 1.850465 -2.168350 0
M  V30 32 C 1.977405 0.943402 1.508522 0
M  V30 33 F 1.063569 0.085804 0.991667 0
M  V30 34 H 6.625445 -2.048691 0.966210 0
M  V30 35 H 5.317829 -3.151291 1.614636 0
M  V30 36 H 4.870263 -1.623644 0.839518 0
M  V30 37 H 5.839564 -0.405147 2.634194 0
M  V30 38 H 2.250096 -1.610463 2.134792 0
M  V30 39 H 4.574717 3.121585 3.005886 0
M  V30 40 H 2.843403 4.203717 1.581356 0
M  V30 41 H 1.363489 3.294733 -0.534726 0
M  V30 42 H 0.424373 3.771524 0.875036 0
M  V30 43 H -0.934461 1.150933 2.725705 0
M  V30 44 H -2.432749 2.123183 2.337816 0
M  V30 45 H -0.861753 2.896594 2.187000 0
M  V30 46 H -3.326639 0.351534 1.889028 0
M  V30 47 H -4.930801 -1.289115 0.899622 0
M  V30 48 H -2.219023 -5.609524 -0.201294 0
M  V30 49 H -3.595425 -7.235786 -1.346093 0
M  V30 50 H -5.552658 -6.559435 -2.642037 0
M  V30 51 H -2.705928 -1.076382 -2.726815 0
M  V30 END ATOM
M  V30 BEGIN BOND
M  V30 1 1 1 2
M  V30 2 1 2 3
M  V30 3 2 3 4
M  V30 4 2 3 5
M  V30 5 1 3 6
M  V30 6 1 6 7
M  V30 7 2 7 8
M  V30 8 1 8 9
M  V30 9 2 9 10
M  V30 10 1 10 11
M  V30 11 1 11 12
M  V30 12 1 12 13
M  V30 13 2 13 14
M  V30 14 1 14 15
M  V30 15 1 14 16
M  V30 16 2 16 17
M  V30 17 1 17 18
M  V30 18 2 18 19
M  V30 19 1 19 20
M  V30 20 1 20 21
M  V30 21 2 21 22
M  V30 22 1 22 23
M  V30 23 2 23 24
M  V30 24 1 24 25
M  V30 25 2 25 26
M  V30 26 1 19 27
M  V30 27 2 27 28
M  V30 28 1 28 29
M  V30 29 1 29 30
M  V30 30 2 30 31
M  V30 31 2 11 32
M  V30 32 1 32 33
M  V30 33 1 32 7
M  V30 34 1 30 13
M  V30 35 1 28 16
M  V30 36 1 26 21
M  V30 37 1 1 34
M  V30 38 1 1 35
M  V30 39 1 1 36
M  V30 40 1 2 37
M  V30 41 1 6 38
M  V30 42 1 9 39
M  V30 43 1 10 40
M  V30 44 1 12 41
M  V30 45 1 12 42
M  V30 46 1 15 43
M  V30 47 1 15 44
M  V30 48 1 15 45
M  V30 49 1 17 46
M  V30 50 1 18 47
M  V30 51 1 23 48
M  V30 52 1 24 49
M  V30 53 1 25 50
M  V30 54 1 27 51
M  V30 END BOND
M  V30 END CTAB
M  END
>  <Dataset>  (849) 
ChEMBL_Kinases

>  <Ligand_Instance>  (849) 
nan

>  <PDB_ID>  (849) 
nan

>  <Standardized_SMILES>  (849) 
CNS(=O)(=O)Nc1nccc(Cc2c(C)c3ccc(Oc4ncccn4)cc3oc2=O)c1F

>  <Name>  (849) 
AVUTOMETINIB

>  <Pocket>  (849) 
nan

>  <ATP_Site>  (849) 
nan

>  <Peripheral>  (849) 
nan

>  <Num_H_Atoms_ProtBoundConf>  (849) 
nan

>  <Num_Resolved_Atoms>  (849) 
nan

>  <Num_Not_Resolved_Atoms>  (849) 
nan

$$$$
CHEMBL4470026
     RDKit          3D

  0  0  0  0  0  0  0  0  0  0999 V3000
M  V30 BEGIN CTAB
M  V30 COUNTS 55 58 0 0 0
M  V30 BEGIN ATOM
M  V30 1 C -4.998184 -2.222994 -3.306531 0
M  V30 2 C -5.973114 -2.752062 -2.323228 0
M  V30 3 N -5.682420 -2.373127 -0.994858 0
M  V30 4 C -5.256043 -1.021898 -0.792404 0
M  V30 5 S -4.974394 -3.515006 0.017584 0
M  V30 6 O -5.352149 -4.896936 -0.506553 0
M  V30 7 O -5.658704 -3.437952 1.378498 0
M  V30 8 N -3.294991 -3.352506 0.170141 0
M  V30 9 C -2.555075 -3.504842 -1.015692 0
M  V30 10 C -1.058253 -3.355367 -0.760711 0
M  V30 11 C -0.316296 -4.474803 -0.443104 0
M  V30 12 C 1.041800 -4.319710 -0.214713 0
M  V30 13 C 1.668103 -3.075603 -0.297237 0
M  V30 14 C 0.900467 -1.974339 -0.616846 0
M  V30 15 C 1.460762 -0.612488 -0.730105 0
M  V30 16 C 2.539518 -0.183028 0.044688 0
M  V30 17 C 3.026364 1.112274 -0.104111 0
M  V30 18 C 2.402966 1.924003 -1.031623 0
M  V30 19 C 2.669850 3.235046 -1.385858 0
M  V30 20 N 3.665207 4.138510 -0.900855 0
M  V30 21 C 3.127301 4.871164 0.216951 0
M  V30 22 O 1.933764 4.632539 0.590139 0
M  V30 23 C 3.834764 5.901974 1.001096 0
M  V30 24 C 3.020742 7.033226 1.550195 0
M  V30 25 C 3.533244 6.006042 2.476296 0
M  V30 26 N 1.784893 3.616154 -2.353745 0
M  V30 27 N 0.974878 2.590315 -2.616790 0
M  V30 28 C 1.332563 1.555914 -1.826645 0
M  V30 29 C 0.871129 0.258793 -1.654171 0
M  V30 30 C -0.470811 -2.109544 -0.850843 0
M  V30 31 H -5.481664 -1.901308 -4.254331 0
M  V30 32 H -4.377853 -1.367825 -2.958306 0
M  V30 33 H -4.267446 -3.016521 -3.631757 0
M  V30 34 H -7.019097 -2.430763 -2.611684 0
M  V30 35 H -5.978659 -3.871145 -2.367284 0
M  V30 36 H -5.638614 -0.646980 0.181478 0
M  V30 37 H -5.584488 -0.388702 -1.640315 0
M  V30 38 H -4.151299 -0.985720 -0.766788 0
M  V30 39 H -2.962900 -3.921729 0.978290 0
M  V30 40 H -2.803479 -2.714999 -1.760852 0
M  V30 41 H -2.727695 -4.493866 -1.462521 0
M  V30 42 H -0.771849 -5.455572 -0.371105 0
M  V30 43 H 1.684195 -5.156543 0.039277 0
M  V30 44 H 2.725113 -2.950283 -0.120583 0
M  V30 45 H 2.977694 -0.875672 0.751763 0
M  V30 46 H 3.861025 1.464973 0.486824 0
M  V30 47 H 4.661982 4.413406 -1.126756 0
M  V30 48 H 4.873139 6.173971 0.748195 0
M  V30 49 H 1.908337 6.986866 1.362704 0
M  V30 50 H 3.403122 8.067113 1.537631 0
M  V30 51 H 2.854980 5.258451 2.922969 0
M  V30 52 H 4.321439 6.337491 3.184631 0
M  V30 53 H 0.174155 2.483253 -3.288141 0
M  V30 54 H 0.040757 -0.053337 -2.258228 0
M  V30 55 H -1.119637 -1.279428 -1.105033 0
M  V30 END ATOM
M  V30 BEGIN BOND
M  V30 1 1 1 2
M  V30 2 1 2 3
M  V30 3 1 3 4
M  V30 4 1 3 5
M  V30 5 2 5 6
M  V30 6 2 5 7
M  V30 7 1 5 8
M  V30 8 1 8 9
M  V30 9 1 9 10
M  V30 10 2 10 11
M  V30 11 1 11 12
M  V30 12 2 12 13
M  V30 13 1 13 14
M  V30 14 1 14 15
M  V30 15 2 15 16
M  V30 16 1 16 17
M  V30 17 2 17 18
M  V30 18 1 18 19
M  V30 19 1 19 20
M  V30 20 1 20 21
M  V30 21 2 21 22
M  V30 22 1 21 23
M  V30 23 1 23 24
M  V30 24 1 24 25
M  V30 25 2 19 26
M  V30 26 1 26 27
M  V30 27 1 27 28
M  V30 28 2 28 29
M  V30 29 2 14 30
M  V30 30 1 30 10
M  V30 31 1 29 15
M  V30 32 1 28 18
M  V30 33 1 25 23
M  V30 34 1 1 31
M  V30 35 1 1 32
M  V30 36 1 1 33
M  V30 37 1 2 34
M  V30 38 1 2 35
M  V30 39 1 4 36
M  V30 40 1 4 37
M  V30 41 1 4 38
M  V30 42 1 8 39
M  V30 43 1 9 40
M  V30 44 1 9 41
M  V30 45 1 11 42
M  V30 46 1 12 43
M  V30 47 1 13 44
M  V30 48 1 16 45
M  V30 49 1 17 46
M  V30 50 1 20 47
M  V30 51 1 23 48
M  V30 52 1 24 49
M  V30 53 1 24 50
M  V30 54 1 25 51
M  V30 55 1 25 52
M  V30 56 1 27 53
M  V30 57 1 29 54
M  V30 58 1 30 55
M  V30 END BOND
M  V30 END CTAB
M  END
>  <Dataset>  (850) 
ChEMBL_Kinases

>  <Ligand_Instance>  (850) 
nan

>  <PDB_ID>  (850) 
nan

>  <Standardized_SMILES>  (850) 
CCN(C)S(=O)(=O)NCc1cccc(-c2ccc3c(NC(=O)C4CC4)n[nH]c3c2)c1

>  <Name>  (850) 
nan

>  <Pocket>  (850) 
nan

>  <ATP_Site>  (850) 
nan

>  <Peripheral>  (850) 
nan

>  <Num_H_Atoms_ProtBoundConf>  (850) 
nan

>  <Num_Resolved_Atoms>  (850) 
nan

>  <Num_Not_Resolved_Atoms>  (850) 
nan

$$$$
CHEMBL363058
     RDKit          3D

  0  0  0  0  0  0  0  0  0  0999 V3000
M  V30 BEGIN CTAB
M  V30 COUNTS 58 63 0 0 0
M  V30 BEGIN ATOM
M  V30 1 C 5.246356 -1.261462 2.357698 0
M  V30 2 C 5.438854 0.211081 2.057337 0
M  V30 3 C 6.887411 0.441682 1.789300 0
M  V30 4 O 4.579758 0.532173 0.990735 0
M  V30 5 C 3.522285 1.397885 1.103865 0
M  V30 6 O 3.412113 1.869425 2.256156 0
M  V30 7 N 2.430256 2.036106 0.463578 0
M  V30 8 C 1.722343 2.913014 1.341457 0
M  V30 9 C 0.605043 2.227382 2.091132 0
M  V30 10 N 0.101624 1.062399 1.390237 0
M  V30 11 C -0.824957 0.436854 2.137317 0
M  V30 12 C -1.294312 -0.662866 1.449988 0
M  V30 13 C -2.250841 -1.728892 1.749512 0
M  V30 14 C -3.289345 -2.261753 1.141756 0
M  V30 15 C -3.886213 -1.935471 -0.141312 0
M  V30 16 C -4.143705 -0.607942 -0.451271 0
M  V30 17 N -4.686575 -0.478233 -1.673890 0
M  V30 18 C -4.777148 -1.750026 -2.155704 0
M  V30 19 C -5.254599 -2.194631 -3.364981 0
M  V30 20 C -5.220314 -3.552616 -3.595024 0
M  V30 21 C -4.719438 -4.393714 -2.625990 0
M  V30 22 C -4.235541 -3.953444 -1.403585 0
M  V30 23 N -4.295901 -2.599262 -1.230486 0
M  V30 24 C -3.832033 -3.307620 1.967035 0
M  V30 25 O -4.812727 -4.084642 1.804192 0
M  V30 26 N -3.053074 -3.407198 3.164685 0
M  V30 27 C -2.036326 -2.396490 3.031959 0
M  V30 28 O -1.188283 -2.252841 3.961356 0
M  V30 29 C -0.646648 -0.719222 0.256079 0
M  V30 30 C -0.579641 -1.490601 -0.881146 0
M  V30 31 C 0.254361 -1.239023 -1.950017 0
M  V30 32 C 1.107625 -0.161904 -1.955639 0
M  V30 33 C 1.086680 0.644717 -0.846382 0
M  V30 34 C 0.226146 0.360706 0.222858 0
M  V30 35 C 2.075907 1.785179 -0.940851 0
M  V30 36 H 6.112807 -1.587350 2.976943 0
M  V30 37 H 4.314935 -1.471904 2.914161 0
M  V30 38 H 5.225827 -1.854574 1.421529 0
M  V30 39 H 5.164660 0.747372 3.002553 0
M  V30 40 H 7.200554 -0.345306 1.050737 0
M  V30 41 H 7.034391 1.440040 1.375612 0
M  V30 42 H 7.430293 0.241528 2.740957 0
M  V30 43 H 2.393941 3.447116 2.023066 0
M  V30 44 H 1.257165 3.732291 0.713026 0
M  V30 45 H 0.987373 1.930467 3.090979 0
M  V30 46 H -0.196826 2.977652 2.267029 0
M  V30 47 H -1.292118 0.567966 3.123301 0
M  V30 48 H -3.993469 0.334679 0.099764 0
M  V30 49 H -5.637772 -1.488838 -4.088806 0
M  V30 50 H -5.588229 -3.908845 -4.528881 0
M  V30 51 H -4.677694 -5.480976 -2.774439 0
M  V30 52 H -3.842791 -4.606959 -0.659705 0
M  V30 53 H -3.186845 -4.073640 3.970120 0
M  V30 54 H -1.206804 -2.354469 -0.953277 0
M  V30 55 H 0.221948 -1.918067 -2.805164 0
M  V30 56 H 1.760602 0.028525 -2.806135 0
M  V30 57 H 2.999424 1.453856 -1.417314 0
M  V30 58 H 1.594098 2.672836 -1.360745 0
M  V30 END ATOM
M  V30 BEGIN BOND
M  V30 1 1 1 2
M  V30 2 1 2 3
M  V30 3 1 2 4
M  V30 4 1 4 5
M  V30 5 2 5 6
M  V30 6 1 5 7
M  V30 7 1 7 8
M  V30 8 1 8 9
M  V30 9 1 9 10
M  V30 10 1 10 11
M  V30 11 2 11 12
M  V30 12 1 12 13
M  V30 13 2 13 14
M  V30 14 1 14 15
M  V30 15 2 15 16
M  V30 16 1 16 17
M  V30 17 2 17 18
M  V30 18 1 18 19
M  V30 19 2 19 20
M  V30 20 1 20 21
M  V30 21 2 21 22
M  V30 22 1 22 23
M  V30 23 1 14 24
M  V30 24 2 24 25
M  V30 25 1 24 26
M  V30 26 1 26 27
M  V30 27 2 27 28
M  V30 28 1 12 29
M  V30 29 2 29 30
M  V30 30 1 30 31
M  V30 31 2 31 32
M  V30 32 1 32 33
M  V30 33 2 33 34
M  V30 34 1 33 35
M  V30 35 1 35 7
M  V30 36 1 34 10
M  V30 37 1 27 13
M  V30 38 1 34 29
M  V30 39 1 23 15
M  V30 40 1 23 18
M  V30 41 1 1 36
M  V30 42 1 1 37
M  V30 43 1 1 38
M  V30 44 1 2 39
M  V30 45 1 3 40
M  V30 46 1 3 41
M  V30 47 1 3 42
M  V30 48 1 8 43
M  V30 49 1 8 44
M  V30 50 1 9 45
M  V30 51 1 9 46
M  V30 52 1 11 47
M  V30 53 1 16 48
M  V30 54 1 19 49
M  V30 55 1 20 50
M  V30 56 1 21 51
M  V30 57 1 22 52
M  V30 58 1 26 53
M  V30 59 1 30 54
M  V30 60 1 31 55
M  V30 61 1 32 56
M  V30 62 1 35 57
M  V30 63 1 35 58
M  V30 END BOND
M  V30 END CTAB
M  END
>  <Dataset>  (851) 
ChEMBL_Kinases

>  <Ligand_Instance>  (851) 
nan

>  <PDB_ID>  (851) 
nan

>  <Standardized_SMILES>  (851) 
CC(C)OC(=O)N1CCn2cc(C3=C(c4cnc5ccccn45)C(=O)NC3=O)c3cccc(c32)C1

>  <Name>  (851) 
nan

>  <Pocket>  (851) 
nan

>  <ATP_Site>  (851) 
nan

>  <Peripheral>  (851) 
nan

>  <Num_H_Atoms_ProtBoundConf>  (851) 
nan

>  <Num_Resolved_Atoms>  (851) 
nan

>  <Num_Not_Resolved_Atoms>  (851) 
nan

$$$$
CHEMBL4468020
     RDKit          3D

  0  0  0  0  0  0  0  0  0  0999 V3000
M  V30 BEGIN CTAB
M  V30 COUNTS 68 73 0 0 0
M  V30 BEGIN ATOM
M  V30 1 O 2.415664 -2.256776 2.863617 0
M  V30 2 C 3.105985 -1.188110 2.738911 0
M  V30 3 C 4.246761 -1.298729 1.806242 0
M  V30 4 C 5.364218 -2.102954 2.465516 0
M  V30 5 F 5.767007 -1.470848 3.604893 0
M  V30 6 F 4.879490 -3.364901 2.776943 0
M  V30 7 F 6.396768 -2.273231 1.565827 0
M  V30 8 N 2.736501 -0.030744 3.474544 0
M  V30 9 C 3.393721 1.259950 3.458203 0
M  V30 10 C 2.436922 2.257482 2.848007 0
M  V30 11 N 1.067074 1.857106 2.968112 0
M  V30 12 C 0.118462 2.912853 2.786386 0
M  V30 13 C 0.172530 3.588202 1.474917 0
M  V30 14 C 0.990844 4.705451 1.348828 0
M  V30 15 C 1.097294 5.406858 0.161489 0
M  V30 16 N 0.381196 4.983047 -0.894506 0
M  V30 17 C -0.414881 3.904219 -0.790090 0
M  V30 18 N -1.142504 3.546896 -1.956085 0
M  V30 19 C -2.028138 2.458760 -2.173369 0
M  V30 20 N -3.263662 2.346055 -2.691184 0
M  V30 21 C -3.657374 1.062875 -2.683015 0
M  V30 22 C -4.766287 0.338435 -3.059755 0
M  V30 23 C -4.901478 -1.027512 -2.927619 0
M  V30 24 C -3.838848 -1.725679 -2.373128 0
M  V30 25 C -3.818558 -3.184550 -2.153314 0
M  V30 26 C -4.811995 -4.059889 -1.853789 0
M  V30 27 N -4.267503 -5.295033 -1.756227 0
M  V30 28 N -2.967876 -5.232766 -1.982992 0
M  V30 29 C -1.960780 -6.302240 -1.984138 0
M  V30 30 C -1.332395 -6.490153 -0.621048 0
M  V30 31 C -0.284440 -7.593137 -0.574354 0
M  V30 32 C 0.110244 -6.186033 -0.430018 0
M  V30 33 C -2.659122 -3.943036 -2.231664 0
M  V30 34 C -2.705523 -0.999663 -1.986068 0
M  V30 35 C -2.594135 0.373370 -2.129006 0
M  V30 36 N -1.580425 1.220370 -1.808909 0
M  V30 37 C -0.562087 3.165375 0.364615 0
M  V30 38 C 0.794746 1.207250 4.247886 0
M  V30 39 C 1.589625 -0.072993 4.358308 0
M  V30 40 H 4.609856 -0.341451 1.418632 0
M  V30 41 H 3.908182 -1.901459 0.917138 0
M  V30 42 H 4.302541 1.211598 2.823666 0
M  V30 43 H 3.657389 1.551738 4.508730 0
M  V30 44 H 2.573305 3.275301 3.270398 0
M  V30 45 H 2.651215 2.281866 1.738537 0
M  V30 46 H -0.901502 2.467200 2.867326 0
M  V30 47 H 0.288714 3.647701 3.626262 0
M  V30 48 H 1.609819 5.136386 2.134275 0
M  V30 49 H 1.717541 6.276717 0.023453 0
M  V30 50 H -1.109520 4.078582 -2.851351 0
M  V30 51 H -5.582996 0.910402 -3.492488 0
M  V30 52 H -5.764381 -1.590232 -3.220122 0
M  V30 53 H -5.848311 -3.779094 -1.723656 0
M  V30 54 H -2.440657 -7.259708 -2.251973 0
M  V30 55 H -1.218520 -6.056518 -2.752319 0
M  V30 56 H -1.998911 -6.429542 0.255707 0
M  V30 57 H -0.015496 -8.108854 -1.514936 0
M  V30 58 H -0.290392 -8.299929 0.287326 0
M  V30 59 H 0.691428 -5.716264 -1.259802 0
M  V30 60 H 0.413140 -5.810020 0.567392 0
M  V30 61 H -1.670240 -3.545483 -2.458345 0
M  V30 62 H -1.871490 -1.571019 -1.548344 0
M  V30 63 H -0.689008 0.887066 -1.380760 0
M  V30 64 H -1.196216 2.303553 0.463700 0
M  V30 65 H 1.124136 1.886684 5.050445 0
M  V30 66 H -0.275498 0.934255 4.312753 0
M  V30 67 H 2.011749 -0.153992 5.385806 0
M  V30 68 H 0.989858 -0.961924 4.084351 0
M  V30 END ATOM
M  V30 BEGIN BOND
M  V30 1 2 1 2
M  V30 2 1 2 3
M  V30 3 1 3 4
M  V30 4 1 4 5
M  V30 5 1 4 6
M  V30 6 1 4 7
M  V30 7 1 2 8
M  V30 8 1 8 9
M  V30 9 1 9 10
M  V30 10 1 10 11
M  V30 11 1 11 12
M  V30 12 1 12 13
M  V30 13 2 13 14
M  V30 14 1 14 15
M  V30 15 2 15 16
M  V30 16 1 16 17
M  V30 17 1 17 18
M  V30 18 1 18 19
M  V30 19 2 19 20
M  V30 20 1 20 21
M  V30 21 2 21 22
M  V30 22 1 22 23
M  V30 23 2 23 24
M  V30 24 1 24 25
M  V30 25 1 25 26
M  V30 26 2 26 27
M  V30 27 1 27 28
M  V30 28 1 28 29
M  V30 29 1 29 30
M  V30 30 1 30 31
M  V30 31 1 31 32
M  V30 32 1 28 33
M  V30 33 1 24 34
M  V30 34 2 34 35
M  V30 35 1 35 36
M  V30 36 2 17 37
M  V30 37 1 11 38
M  V30 38 1 38 39
M  V30 39 1 39 8
M  V30 40 1 37 13
M  V30 41 1 36 19
M  V30 42 1 35 21
M  V30 43 2 33 25
M  V30 44 1 32 30
M  V30 45 1 3 40
M  V30 46 1 3 41
M  V30 47 1 9 42
M  V30 48 1 9 43
M  V30 49 1 10 44
M  V30 50 1 10 45
M  V30 51 1 12 46
M  V30 52 1 12 47
M  V30 53 1 14 48
M  V30 54 1 15 49
M  V30 55 1 18 50
M  V30 56 1 22 51
M  V30 57 1 23 52
M  V30 58 1 26 53
M  V30 59 1 29 54
M  V30 60 1 29 55
M  V30 61 1 30 56
M  V30 62 1 31 57
M  V30 63 1 31 58
M  V30 64 1 32 59
M  V30 65 1 32 60
M  V30 66 1 33 61
M  V30 67 1 34 62
M  V30 68 1 36 63
M  V30 69 1 37 64
M  V30 70 1 38 65
M  V30 71 1 38 66
M  V30 72 1 39 67
M  V30 73 1 39 68
M  V30 END BOND
M  V30 END CTAB
M  END
>  <Dataset>  (852) 
ChEMBL_Kinases

>  <Ligand_Instance>  (852) 
nan

>  <PDB_ID>  (852) 
nan

>  <Standardized_SMILES>  (852) 
O=C(CC(F)(F)F)N1CCN(Cc2ccnc(Nc3nc4ccc(-c5cnn(CC6CC6)c5)cc4[nH]3)c2)CC1

>  <Name>  (852) 
nan

>  <Pocket>  (852) 
nan

>  <ATP_Site>  (852) 
nan

>  <Peripheral>  (852) 
nan

>  <Num_H_Atoms_ProtBoundConf>  (852) 
nan

>  <Num_Resolved_Atoms>  (852) 
nan

>  <Num_Not_Resolved_Atoms>  (852) 
nan

$$$$
CHEMBL4859957
     RDKit          3D

  0  0  0  0  0  0  0  0  0  0999 V3000
M  V30 BEGIN CTAB
M  V30 COUNTS 43 46 0 0 0
M  V30 BEGIN ATOM
M  V30 1 C -2.703063 -8.459905 -1.219471 0
M  V30 2 N -2.429064 -7.280014 -0.432680 0
M  V30 3 C -2.267784 -6.048361 -1.119806 0
M  V30 4 O -2.374440 -6.065305 -2.373431 0
M  V30 5 C -1.995086 -4.849400 -0.389284 0
M  V30 6 C -1.805909 -3.591456 -0.792965 0
M  V30 7 C -1.553041 -2.552341 0.042401 0
M  V30 8 N -1.340165 -1.190690 -0.294410 0
M  V30 9 N -2.131073 -0.489260 -1.103608 0
M  V30 10 C -1.640657 0.776116 -1.209811 0
M  V30 11 C -0.503043 0.848744 -0.432626 0
M  V30 12 C 0.458864 1.811425 -0.097687 0
M  V30 13 C 1.515987 1.489809 0.763802 0
M  V30 14 N 2.327950 2.643949 0.929963 0
M  V30 15 C 2.811805 3.529696 1.927471 0
M  V30 16 C 3.998140 3.476772 2.605585 0
M  V30 17 F 4.822837 2.468387 2.286546 0
M  V30 18 C 4.366994 4.387301 3.563465 0
M  V30 19 C 3.480906 5.383887 3.828003 0
M  V30 20 C 2.259130 5.503582 3.181833 0
M  V30 21 C 1.926560 4.566103 2.224410 0
M  V30 22 Cl 0.341923 4.877278 1.512422 0
M  V30 23 C 1.615741 0.219335 1.288411 0
M  V30 24 C 2.774479 0.042074 2.171201 0
M  V30 25 N 0.690103 -0.700364 0.963678 0
M  V30 26 C -0.332053 -0.411509 0.138719 0
M  V30 27 C -1.511237 -2.985285 1.474813 0
M  V30 28 S -1.838256 -4.800518 1.403810 0
M  V30 29 H -3.501512 -8.200349 -1.953531 0
M  V30 30 H -3.134957 -9.260955 -0.592743 0
M  V30 31 H -1.796090 -8.896384 -1.698644 0
M  V30 32 H -2.348099 -7.318002 0.627338 0
M  V30 33 H -1.858219 -3.390776 -1.855049 0
M  V30 34 H -2.016242 1.629666 -1.780181 0
M  V30 35 H 0.241928 2.750450 -0.588221 0
M  V30 36 H 2.780138 3.086152 0.111001 0
M  V30 37 H 5.319843 4.284170 4.059464 0
M  V30 38 H 3.771150 6.114866 4.593656 0
M  V30 39 H 1.651136 6.349114 3.493608 0
M  V30 40 H 3.717387 0.034732 1.614920 0
M  V30 41 H 2.766333 0.852410 2.951990 0
M  V30 42 H 2.705370 -0.898067 2.768025 0
M  V30 43 H -1.289744 -2.116455 2.296402 0
M  V30 END ATOM
M  V30 BEGIN BOND
M  V30 1 1 1 2
M  V30 2 1 2 3
M  V30 3 2 3 4
M  V30 4 1 3 5
M  V30 5 2 5 6
M  V30 6 1 6 7
M  V30 7 1 7 8
M  V30 8 1 8 9
M  V30 9 2 9 10
M  V30 10 1 10 11
M  V30 11 2 11 12
M  V30 12 1 12 13
M  V30 13 1 13 14
M  V30 14 1 14 15
M  V30 15 2 15 16
M  V30 16 1 16 17
M  V30 17 1 16 18
M  V30 18 2 18 19
M  V30 19 1 19 20
M  V30 20 2 20 21
M  V30 21 1 21 22
M  V30 22 2 13 23
M  V30 23 1 23 24
M  V30 24 1 23 25
M  V30 25 2 25 26
M  V30 26 2 7 27
M  V30 27 1 27 28
M  V30 28 1 28 5
M  V30 29 1 26 8
M  V30 30 1 26 11
M  V30 31 1 21 15
M  V30 32 1 1 29
M  V30 33 1 1 30
M  V30 34 1 1 31
M  V30 35 1 2 32
M  V30 36 1 6 33
M  V30 37 1 10 34
M  V30 38 1 12 35
M  V30 39 1 14 36
M  V30 40 1 18 37
M  V30 41 1 19 38
M  V30 42 1 20 39
M  V30 43 1 24 40
M  V30 44 1 24 41
M  V30 45 1 24 42
M  V30 46 1 27 43
M  V30 END BOND
M  V30 END CTAB
M  END
>  <Dataset>  (853) 
ChEMBL_Kinases

>  <Ligand_Instance>  (853) 
nan

>  <PDB_ID>  (853) 
nan

>  <Standardized_SMILES>  (853) 
CNC(=O)c1cc(-n2ncc3cc(Nc4c(F)cccc4Cl)c(C)nc32)cs1

>  <Name>  (853) 
nan

>  <Pocket>  (853) 
nan

>  <ATP_Site>  (853) 
nan

>  <Peripheral>  (853) 
nan

>  <Num_H_Atoms_ProtBoundConf>  (853) 
nan

>  <Num_Resolved_Atoms>  (853) 
nan

>  <Num_Not_Resolved_Atoms>  (853) 
nan

$$$$
CHEMBL4781112
     RDKit          3D

  0  0  0  0  0  0  0  0  0  0999 V3000
M  V30 BEGIN CTAB
M  V30 COUNTS 59 62 0 0 0
M  V30 BEGIN ATOM
M  V30 1 C 4.748006 -2.387115 0.648482 0
M  V30 2 C 3.710574 -1.961102 1.661001 0 CFG=1
M  V30 3 C 3.324605 -0.543282 1.477358 0
M  V30 4 C 1.989617 -0.126662 2.021628 0 CFG=1
M  V30 5 C 1.745657 1.248734 1.600720 0
M  V30 6 C 2.531326 2.235758 2.219514 0
M  V30 7 C 2.488892 3.589598 1.970666 0
M  V30 8 N 1.617376 4.040058 1.047538 0
M  V30 9 C 0.832714 3.129367 0.417935 0
M  V30 10 C 0.885384 1.778829 0.676525 0
M  V30 11 N -0.016692 1.057963 -0.067486 0
M  V30 12 C -0.256804 0.382531 -1.281900 0
M  V30 13 O 0.633931 0.324519 -2.178530 0
M  V30 14 C -1.525373 -0.271306 -1.556034 0
M  V30 15 N -2.558229 -0.287558 -0.692077 0
M  V30 16 C -3.717646 -0.901819 -0.973173 0
M  V30 17 C -4.712527 -0.811455 0.086466 0
M  V30 18 N -5.461762 -1.844782 0.525917 0
M  V30 19 C -6.372088 -1.710779 1.512808 0
M  V30 20 C -6.587809 -0.489284 2.134691 0
M  V30 21 C -5.858810 0.623519 1.741820 0
M  V30 22 C -4.936429 0.398225 0.712605 0
M  V30 23 F -4.203035 1.459673 0.297474 0
M  V30 24 C -3.928901 -1.553602 -2.157988 0
M  V30 25 C -2.866684 -1.544899 -3.063418 0
M  V30 26 C -1.656886 -0.903912 -2.769890 0
M  V30 27 N -0.619630 -0.935211 -3.741213 0
M  V30 28 C 0.979812 -1.156461 1.860359 0
M  V30 29 C 1.373777 -2.201300 0.872918 0 CFG=1
M  V30 30 O 1.921431 -1.742708 -0.312847 0
M  V30 31 C 2.561256 -2.932971 1.546940 0 CFG=1
M  V30 32 C 2.839309 -4.151821 0.741111 0
M  V30 33 O 2.075776 -3.309582 2.791905 0
M  V30 34 H 5.653649 -1.734224 0.822504 0
M  V30 35 H 4.459261 -2.130910 -0.401950 0
M  V30 36 H 5.043710 -3.443043 0.762394 0
M  V30 37 H 4.169941 -2.120366 2.652956 0
M  V30 38 H 4.087448 0.080712 2.034822 0
M  V30 39 H 3.471717 -0.242191 0.436097 0
M  V30 40 H 2.116292 -0.011569 3.170402 0
M  V30 41 H 3.267101 1.943698 2.986263 0
M  V30 42 H 3.132334 4.280778 2.495965 0
M  V30 43 H 0.177865 3.600020 -0.296623 0
M  V30 44 H -0.853544 1.057357 0.591587 0
M  V30 45 H -6.968285 -2.544700 1.859012 0
M  V30 46 H -7.307761 -0.314864 2.938368 0
M  V30 47 H -5.946382 1.620430 2.157663 0
M  V30 48 H -4.873250 -2.039783 -2.355293 0
M  V30 49 H -2.975416 -2.043307 -4.016046 0
M  V30 50 H -0.298110 -0.439902 -4.601573 0
M  V30 51 H 0.127008 -1.686999 -3.632829 0
M  V30 52 H -0.073431 -0.813420 1.738177 0
M  V30 53 H 0.870725 -1.683565 2.877609 0
M  V30 54 H 0.588396 -2.967722 0.705802 0
M  V30 55 H 1.523942 -2.156029 -1.111905 0
M  V30 56 H 3.335921 -3.945620 -0.228257 0
M  V30 57 H 1.833583 -4.577939 0.448044 0
M  V30 58 H 3.320382 -4.946570 1.341531 0
M  V30 59 H 1.805636 -4.256373 2.863003 0
M  V30 END ATOM
M  V30 BEGIN BOND
M  V30 1 1 1 2
M  V30 2 1 2 3
M  V30 3 1 3 4
M  V30 4 1 4 5
M  V30 5 2 5 6
M  V30 6 1 6 7
M  V30 7 2 7 8
M  V30 8 1 8 9
M  V30 9 2 9 10
M  V30 10 1 10 11
M  V30 11 1 11 12
M  V30 12 2 12 13
M  V30 13 1 12 14
M  V30 14 2 14 15
M  V30 15 1 15 16
M  V30 16 1 16 17
M  V30 17 2 17 18
M  V30 18 1 18 19
M  V30 19 2 19 20
M  V30 20 1 20 21
M  V30 21 2 21 22
M  V30 22 1 22 23
M  V30 23 2 16 24
M  V30 24 1 24 25
M  V30 25 2 25 26
M  V30 26 1 26 27
M  V30 27 1 4 28
M  V30 28 1 28 29
M  V30 29 1 29 30
M  V30 30 1 29 31
M  V30 31 1 31 32
M  V30 32 1 31 33 CFG=1
M  V30 33 1 31 2
M  V30 34 1 10 5
M  V30 35 1 26 14
M  V30 36 1 22 17
M  V30 37 1 1 34
M  V30 38 1 1 35
M  V30 39 1 1 36
M  V30 40 1 2 37 CFG=1
M  V30 41 1 3 38
M  V30 42 1 3 39
M  V30 43 1 4 40 CFG=1
M  V30 44 1 6 41
M  V30 45 1 7 42
M  V30 46 1 9 43
M  V30 47 1 11 44
M  V30 48 1 19 45
M  V30 49 1 20 46
M  V30 50 1 21 47
M  V30 51 1 24 48
M  V30 52 1 25 49
M  V30 53 1 27 50
M  V30 54 1 27 51
M  V30 55 1 28 52
M  V30 56 1 28 53
M  V30 57 1 29 54 CFG=3
M  V30 58 1 30 55
M  V30 59 1 32 56
M  V30 60 1 32 57
M  V30 61 1 32 58
M  V30 62 1 33 59
M  V30 END BOND
M  V30 END CTAB
M  END
>  <Dataset>  (854) 
ChEMBL_Kinases

>  <Ligand_Instance>  (854) 
nan

>  <PDB_ID>  (854) 
nan

>  <Standardized_SMILES>  (854) 
C[C@H]1C[C@@H](c2ccncc2NC(=O)c2nc(-c3ncccc3F)ccc2N)C[C@@H](O)[C@]1(C)O

>  <Name>  (854) 
nan

>  <Pocket>  (854) 
nan

>  <ATP_Site>  (854) 
nan

>  <Peripheral>  (854) 
nan

>  <Num_H_Atoms_ProtBoundConf>  (854) 
nan

>  <Num_Resolved_Atoms>  (854) 
nan

>  <Num_Not_Resolved_Atoms>  (854) 
nan

$$$$
CHEMBL362814
     RDKit          3D

  0  0  0  0  0  0  0  0  0  0999 V3000
M  V30 BEGIN CTAB
M  V30 COUNTS 56 61 0 0 0
M  V30 BEGIN ATOM
M  V30 1 C 5.572344 -3.016512 0.156835 0
M  V30 2 N 4.924664 -1.727041 0.325470 0
M  V30 3 C 5.362940 -0.866814 1.398639 0
M  V30 4 C 3.923455 -1.476125 -0.613068 0
M  V30 5 O 4.129540 -2.589035 -1.183145 0
M  V30 6 N 2.966422 -0.496920 -0.978132 0
M  V30 7 C 2.718189 0.763419 -0.339386 0
M  V30 8 C 1.448799 0.890948 0.415220 0
M  V30 9 N 0.541809 -0.214134 0.334075 0
M  V30 10 C -0.430253 -0.274963 1.293776 0
M  V30 11 C -1.215183 -1.391478 1.074043 0
M  V30 12 C -2.365524 -1.803527 1.867000 0
M  V30 13 C -3.394034 -1.058925 2.316418 0
M  V30 14 C -3.765212 0.348089 2.210249 0
M  V30 15 C -4.216826 1.140372 3.277111 0
M  V30 16 N -4.466438 2.365057 2.775647 0
M  V30 17 C -4.208748 2.411123 1.469679 0
M  V30 18 C -4.316042 3.426002 0.543181 0
M  V30 19 C -3.981171 3.200233 -0.789088 0
M  V30 20 C -3.544567 1.929955 -1.125439 0
M  V30 21 C -3.459758 0.958927 -0.149596 0
M  V30 22 N -3.778024 1.160297 1.138916 0
M  V30 23 C -4.292778 -1.951330 3.085610 0
M  V30 24 O -5.386125 -1.664990 3.685128 0
M  V30 25 N -3.751171 -3.288989 3.081704 0
M  V30 26 C -2.549076 -3.170207 2.315583 0
M  V30 27 O -1.894019 -4.240631 2.178699 0
M  V30 28 C -0.742952 -2.051898 -0.037679 0
M  V30 29 C -1.055738 -3.167838 -0.764050 0
M  V30 30 C -0.380390 -3.595615 -1.879459 0
M  V30 31 C 0.698331 -2.849680 -2.309384 0
M  V30 32 C 1.035922 -1.719375 -1.596526 0
M  V30 33 C 0.326581 -1.305730 -0.459795 0
M  V30 34 C 2.232311 -0.988305 -2.157393 0
M  V30 35 H 6.121043 -3.290527 1.107212 0
M  V30 36 H 4.827736 -3.855295 0.046336 0
M  V30 37 H 6.321968 -3.043447 -0.645932 0
M  V30 38 H 4.571145 -0.772369 2.161049 0
M  V30 39 H 6.242090 -1.314992 1.932785 0
M  V30 40 H 5.689906 0.131115 1.088724 0
M  V30 41 H 3.623543 1.012084 0.270751 0
M  V30 42 H 2.754461 1.533432 -1.168565 0
M  V30 43 H 0.948462 1.863454 0.119765 0
M  V30 44 H 1.712820 1.083837 1.499132 0
M  V30 45 H -0.625686 0.407714 2.133439 0
M  V30 46 H -4.340486 0.814749 4.323278 0
M  V30 47 H -4.667810 4.425067 0.845979 0
M  V30 48 H -4.082903 4.029564 -1.476092 0
M  V30 49 H -3.300464 1.809802 -2.160832 0
M  V30 50 H -3.119713 -0.002514 -0.498330 0
M  V30 51 H -4.217486 -4.106613 3.566328 0
M  V30 52 H -1.893322 -3.762372 -0.460905 0
M  V30 53 H -0.687641 -4.506428 -2.415894 0
M  V30 54 H 1.280387 -3.133292 -3.189464 0
M  V30 55 H 2.820537 -1.691569 -2.757464 0
M  V30 56 H 1.957642 -0.121627 -2.759302 0
M  V30 END ATOM
M  V30 BEGIN BOND
M  V30 1 1 1 2
M  V30 2 1 2 3
M  V30 3 1 2 4
M  V30 4 2 4 5
M  V30 5 1 4 6
M  V30 6 1 6 7
M  V30 7 1 7 8
M  V30 8 1 8 9
M  V30 9 1 9 10
M  V30 10 2 10 11
M  V30 11 1 11 12
M  V30 12 2 12 13
M  V30 13 1 13 14
M  V30 14 2 14 15
M  V30 15 1 15 16
M  V30 16 2 16 17
M  V30 17 1 17 18
M  V30 18 2 18 19
M  V30 19 1 19 20
M  V30 20 2 20 21
M  V30 21 1 21 22
M  V30 22 1 13 23
M  V30 23 2 23 24
M  V30 24 1 23 25
M  V30 25 1 25 26
M  V30 26 2 26 27
M  V30 27 1 11 28
M  V30 28 2 28 29
M  V30 29 1 29 30
M  V30 30 2 30 31
M  V30 31 1 31 32
M  V30 32 2 32 33
M  V30 33 1 32 34
M  V30 34 1 34 6
M  V30 35 1 33 9
M  V30 36 1 26 12
M  V30 37 1 33 28
M  V30 38 1 22 14
M  V30 39 1 22 17
M  V30 40 1 1 35
M  V30 41 1 1 36
M  V30 42 1 1 37
M  V30 43 1 3 38
M  V30 44 1 3 39
M  V30 45 1 3 40
M  V30 46 1 7 41
M  V30 47 1 7 42
M  V30 48 1 8 43
M  V30 49 1 8 44
M  V30 50 1 10 45
M  V30 51 1 15 46
M  V30 52 1 18 47
M  V30 53 1 19 48
M  V30 54 1 20 49
M  V30 55 1 21 50
M  V30 56 1 25 51
M  V30 57 1 29 52
M  V30 58 1 30 53
M  V30 59 1 31 54
M  V30 60 1 34 55
M  V30 61 1 34 56
M  V30 END BOND
M  V30 END CTAB
M  END
>  <Dataset>  (855) 
ChEMBL_Kinases

>  <Ligand_Instance>  (855) 
nan

>  <PDB_ID>  (855) 
nan

>  <Standardized_SMILES>  (855) 
CN(C)C(=O)N1CCn2cc(C3=C(c4cnc5ccccn45)C(=O)NC3=O)c3cccc(c32)C1

>  <Name>  (855) 
nan

>  <Pocket>  (855) 
nan

>  <ATP_Site>  (855) 
nan

>  <Peripheral>  (855) 
nan

>  <Num_H_Atoms_ProtBoundConf>  (855) 
nan

>  <Num_Resolved_Atoms>  (855) 
nan

>  <Num_Not_Resolved_Atoms>  (855) 
nan

$$$$
CHEMBL362588
     RDKit          3D

  0  0  0  0  0  0  0  0  0  0999 V3000
M  V30 BEGIN CTAB
M  V30 COUNTS 63 69 0 0 0
M  V30 BEGIN ATOM
M  V30 1 O -1.239587 -0.976002 6.344425 0
M  V30 2 C -0.504919 -0.088355 5.839221 0
M  V30 3 N 0.294595 0.798138 6.598074 0
M  V30 4 C 0.927288 1.597227 5.612689 0
M  V30 5 O 1.738700 2.523906 5.958682 0
M  V30 6 C 0.528486 1.214942 4.235234 0
M  V30 7 C 1.104930 1.922127 3.111577 0
M  V30 8 C 1.191193 3.316051 3.048227 0
M  V30 9 N 1.780858 3.682139 1.898818 0
M  V30 10 C 2.080459 2.566721 1.213371 0
M  V30 11 C 2.692397 2.410321 -0.007515 0
M  V30 12 C 2.911278 1.130457 -0.527454 0
M  V30 13 C 2.477336 0.096460 0.261280 0
M  V30 14 C 1.868347 0.307961 1.479858 0
M  V30 15 N 1.668194 1.529588 1.956675 0
M  V30 16 C -0.332118 0.199632 4.423927 0
M  V30 17 C -0.956840 -0.406787 3.256392 0
M  V30 18 C -1.459347 0.296544 2.177963 0
M  V30 19 N -1.953375 -0.600152 1.273358 0
M  V30 20 C -1.755684 -1.849710 1.792221 0
M  V30 21 C -2.080587 -3.105466 1.250880 0
M  V30 22 C -1.791301 -4.271132 1.933984 0
M  V30 23 C -1.163549 -4.154065 3.182361 0
M  V30 24 C -0.862693 -2.925658 3.677833 0
M  V30 25 C -1.138540 -1.750825 3.021998 0
M  V30 26 C -2.751698 -3.302023 -0.093757 0
M  V30 27 N -2.270636 -2.201670 -0.927632 0
M  V30 28 C -1.081901 -2.503146 -1.671918 0
M  V30 29 O -0.859034 -3.721892 -1.351640 0
M  V30 30 N -0.301680 -1.709521 -2.551517 0
M  V30 31 C -0.291095 -0.346234 -3.072540 0
M  V30 32 C -0.689145 -0.432374 -4.518053 0
M  V30 33 C 0.436788 -1.173317 -5.217722 0
M  V30 34 C 1.411786 -1.776946 -4.254813 0
M  V30 35 C 0.814954 -2.500388 -3.098088 0
M  V30 36 C -2.986423 -0.923187 -0.954168 0
M  V30 37 C -2.518886 0.029335 0.081876 0
M  V30 38 H 0.393269 0.850982 7.622689 0
M  V30 39 H 0.839684 4.033211 3.807220 0
M  V30 40 H 2.995400 3.301258 -0.547594 0
M  V30 41 H 3.397652 1.082461 -1.491774 0
M  V30 42 H 2.661766 -0.896113 -0.171421 0
M  V30 43 H 1.576652 -0.557601 2.019855 0
M  V30 44 H -1.423576 1.395828 2.140031 0
M  V30 45 H -2.080158 -5.210908 1.438162 0
M  V30 46 H -0.952770 -5.092065 3.688629 0
M  V30 47 H -0.382420 -2.867758 4.618988 0
M  V30 48 H -2.391853 -4.274679 -0.464706 0
M  V30 49 H -3.861580 -3.283471 0.015598 0
M  V30 50 H -0.819326 0.382803 -2.469328 0
M  V30 51 H 0.783371 0.017004 -3.071695 0
M  V30 52 H -1.596448 -1.061982 -4.625474 0
M  V30 53 H -0.886233 0.568660 -4.959516 0
M  V30 54 H 0.080208 -1.906102 -5.951148 0
M  V30 55 H 1.005511 -0.396031 -5.798671 0
M  V30 56 H 2.241827 -1.077485 -3.954248 0
M  V30 57 H 1.970906 -2.560980 -4.854374 0
M  V30 58 H 0.515227 -3.538915 -3.332385 0
M  V30 59 H 1.570565 -2.497871 -2.260016 0
M  V30 60 H -4.090883 -1.146610 -0.851923 0
M  V30 61 H -2.911279 -0.561815 -2.000971 0
M  V30 62 H -1.814101 0.817651 -0.304355 0
M  V30 63 H -3.415421 0.645261 0.394615 0
M  V30 END ATOM
M  V30 BEGIN BOND
M  V30 1 2 1 2
M  V30 2 1 2 3
M  V30 3 1 3 4
M  V30 4 2 4 5
M  V30 5 1 4 6
M  V30 6 1 6 7
M  V30 7 2 7 8
M  V30 8 1 8 9
M  V30 9 2 9 10
M  V30 10 1 10 11
M  V30 11 2 11 12
M  V30 12 1 12 13
M  V30 13 2 13 14
M  V30 14 1 14 15
M  V30 15 2 6 16
M  V30 16 1 16 17
M  V30 17 2 17 18
M  V30 18 1 18 19
M  V30 19 1 19 20
M  V30 20 2 20 21
M  V30 21 1 21 22
M  V30 22 2 22 23
M  V30 23 1 23 24
M  V30 24 2 24 25
M  V30 25 1 21 26
M  V30 26 1 26 27
M  V30 27 1 27 28
M  V30 28 2 28 29
M  V30 29 1 28 30
M  V30 30 1 30 31
M  V30 31 1 31 32
M  V30 32 1 32 33
M  V30 33 1 33 34
M  V30 34 1 34 35
M  V30 35 1 27 36
M  V30 36 1 36 37
M  V30 37 1 16 2
M  V30 38 1 25 17
M  V30 39 1 35 30
M  V30 40 1 15 7
M  V30 41 1 37 19
M  V30 42 1 15 10
M  V30 43 1 25 20
M  V30 44 1 3 38
M  V30 45 1 8 39
M  V30 46 1 11 40
M  V30 47 1 12 41
M  V30 48 1 13 42
M  V30 49 1 14 43
M  V30 50 1 18 44
M  V30 51 1 22 45
M  V30 52 1 23 46
M  V30 53 1 24 47
M  V30 54 1 26 48
M  V30 55 1 26 49
M  V30 56 1 31 50
M  V30 57 1 31 51
M  V30 58 1 32 52
M  V30 59 1 32 53
M  V30 60 1 33 54
M  V30 61 1 33 55
M  V30 62 1 34 56
M  V30 63 1 34 57
M  V30 64 1 35 58
M  V30 65 1 35 59
M  V30 66 1 36 60
M  V30 67 1 36 61
M  V30 68 1 37 62
M  V30 69 1 37 63
M  V30 END BOND
M  V30 END CTAB
M  END
>  <Dataset>  (856) 
ChEMBL_Kinases

>  <Ligand_Instance>  (856) 
nan

>  <PDB_ID>  (856) 
nan

>  <Standardized_SMILES>  (856) 
O=C1NC(=O)C(c2cnc3ccccn23)=C1c1cn2c3c(cccc13)CN(C(=O)N1CCCCC1)CC2

>  <Name>  (856) 
nan

>  <Pocket>  (856) 
nan

>  <ATP_Site>  (856) 
nan

>  <Peripheral>  (856) 
nan

>  <Num_H_Atoms_ProtBoundConf>  (856) 
nan

>  <Num_Resolved_Atoms>  (856) 
nan

>  <Num_Not_Resolved_Atoms>  (856) 
nan

$$$$
CHEMBL361894
     RDKit          3D

  0  0  0  0  0  0  0  0  0  0999 V3000
M  V30 BEGIN CTAB
M  V30 COUNTS 40 44 0 0 0
M  V30 BEGIN ATOM
M  V30 1 C 2.537972 -5.960924 -0.835342 0
M  V30 2 C 2.340006 -6.487598 0.447858 0
M  V30 3 N 1.913946 -5.655757 1.428988 0
M  V30 4 N 1.682656 -4.373086 1.209999 0
M  V30 5 N 1.266106 -3.390410 1.977087 0
M  V30 6 C 1.186626 -2.262030 1.259596 0
M  V30 7 C 1.572964 -2.506268 -0.061857 0
M  V30 8 C 1.556953 -1.446859 -1.033722 0
M  V30 9 C 2.078851 -1.389038 -2.294047 0
M  V30 10 C 2.049565 -0.331662 -3.169895 0
M  V30 11 N 1.429937 0.770748 -2.717027 0
M  V30 12 C 0.883791 0.807369 -1.483367 0
M  V30 13 N 0.253096 2.016034 -1.091073 0
M  V30 14 C -0.437339 2.364194 0.100749 0
M  V30 15 C -0.925636 3.645252 0.344273 0
M  V30 16 C -1.593978 3.957940 1.500410 0
M  V30 17 C -1.818819 3.037985 2.474811 0
M  V30 18 C -1.362376 1.762029 2.291796 0
M  V30 19 C -0.695572 1.476264 1.123188 0
M  V30 20 O -1.590791 0.820624 3.285728 0
M  V30 21 C -1.958880 1.290568 4.572974 0
M  V30 22 C -3.055511 2.317801 4.397369 0
M  V30 23 O -2.498715 3.388187 3.633070 0
M  V30 24 N 0.970682 -0.283597 -0.711498 0
M  V30 25 C 1.856539 -3.833429 0.016192 0
M  V30 26 C 2.286252 -4.636691 -1.008914 0
M  V30 27 H 2.872887 -6.653890 -1.572010 0
M  V30 28 H 2.489933 -7.510686 0.764987 0
M  V30 29 H 0.846945 -1.416116 1.849917 0
M  V30 30 H 2.594675 -2.244876 -2.682850 0
M  V30 31 H 2.487205 -0.378416 -4.142234 0
M  V30 32 H 0.278265 2.826365 -1.778855 0
M  V30 33 H -0.767822 4.411273 -0.408338 0
M  V30 34 H -1.937933 4.985241 1.601057 0
M  V30 35 H -0.371254 0.452424 1.051180 0
M  V30 36 H -1.051152 1.835298 4.963193 0
M  V30 37 H -2.269491 0.455321 5.234490 0
M  V30 38 H -3.441519 2.679283 5.370419 0
M  V30 39 H -3.899178 1.905753 3.805729 0
M  V30 40 H 2.443595 -4.293067 -2.008202 0
M  V30 END ATOM
M  V30 BEGIN BOND
M  V30 1 1 1 2
M  V30 2 2 2 3
M  V30 3 1 3 4
M  V30 4 1 4 5
M  V30 5 2 5 6
M  V30 6 1 6 7
M  V30 7 1 7 8
M  V30 8 2 8 9
M  V30 9 1 9 10
M  V30 10 2 10 11
M  V30 11 1 11 12
M  V30 12 1 12 13
M  V30 13 1 13 14
M  V30 14 2 14 15
M  V30 15 1 15 16
M  V30 16 2 16 17
M  V30 17 1 17 18
M  V30 18 2 18 19
M  V30 19 1 18 20
M  V30 20 1 20 21
M  V30 21 1 21 22
M  V30 22 1 22 23
M  V30 23 2 12 24
M  V30 24 2 7 25
M  V30 25 1 25 26
M  V30 26 2 26 1
M  V30 27 1 25 4
M  V30 28 1 24 8
M  V30 29 1 19 14
M  V30 30 1 23 17
M  V30 31 1 1 27
M  V30 32 1 2 28
M  V30 33 1 6 29
M  V30 34 1 9 30
M  V30 35 1 10 31
M  V30 36 1 13 32
M  V30 37 1 15 33
M  V30 38 1 16 34
M  V30 39 1 19 35
M  V30 40 1 21 36
M  V30 41 1 21 37
M  V30 42 1 22 38
M  V30 43 1 22 39
M  V30 44 1 26 40
M  V30 END BOND
M  V30 END CTAB
M  END
>  <Dataset>  (857) 
ChEMBL_Kinases

>  <Ligand_Instance>  (857) 
nan

>  <PDB_ID>  (857) 
nan

>  <Standardized_SMILES>  (857) 
c1cnn2ncc(-c3ccnc(Nc4ccc5c(c4)OCCO5)n3)c2c1

>  <Name>  (857) 
GW806290X

>  <Pocket>  (857) 
nan

>  <ATP_Site>  (857) 
nan

>  <Peripheral>  (857) 
nan

>  <Num_H_Atoms_ProtBoundConf>  (857) 
nan

>  <Num_Resolved_Atoms>  (857) 
nan

>  <Num_Not_Resolved_Atoms>  (857) 
nan

$$$$
CHEMBL4076837
     RDKit          3D

  0  0  0  0  0  0  0  0  0  0999 V3000
M  V30 BEGIN CTAB
M  V30 COUNTS 60 64 0 0 0
M  V30 BEGIN ATOM
M  V30 1 C 5.851195 -3.119346 3.051249 0
M  V30 2 N 5.274923 -1.887633 2.595728 0
M  V30 3 C 6.207113 -1.161862 1.790235 0
M  V30 4 C 5.731688 -1.044419 0.337368 0
M  V30 5 N 4.423571 -0.359561 0.318373 0
M  V30 6 C 4.167515 0.702684 -0.632168 0
M  V30 7 O 5.238706 0.791496 -1.279938 0
M  V30 8 C 2.802045 1.247566 -0.477009 0
M  V30 9 C 2.522888 2.475118 0.095083 0
M  V30 10 C 1.197995 2.847974 0.184008 0
M  V30 11 C 0.238835 1.975990 -0.301294 0
M  V30 12 C -1.087520 2.351199 -0.199810 0
M  V30 13 C -2.120725 1.533090 -0.651828 0
M  V30 14 C -3.568023 1.927145 -0.548133 0
M  V30 15 C -4.133724 1.476608 0.783687 0
M  V30 16 N -4.060236 0.050846 0.956524 0
M  V30 17 C -4.823091 -0.775007 0.073483 0
M  V30 18 N -5.603684 -0.226442 -0.870143 0
M  V30 19 C -6.367906 -0.864329 -1.739803 0
M  V30 20 N -6.400361 -2.221289 -1.714795 0
M  V30 21 C -5.641405 -2.829827 -0.793131 0
M  V30 22 C -5.669028 -4.229708 -0.768356 0
M  V30 23 C -4.871337 -4.826800 0.190665 0
M  V30 24 C -4.066220 -4.188307 1.108206 0
M  V30 25 C -3.271980 -4.902032 2.068286 0
M  V30 26 N -2.611248 -5.486088 2.839655 0
M  V30 27 C -4.054876 -2.799787 1.063868 0
M  V30 28 C -4.836184 -2.173141 0.122722 0
M  V30 29 C -1.808584 0.318290 -1.215822 0
M  V30 30 C -0.479149 -0.102520 -1.341138 0
M  V30 31 C 0.521481 0.751080 -0.872683 0
M  V30 32 C 1.841000 0.372639 -0.965028 0
M  V30 33 C 3.459633 -0.848570 1.320863 0
M  V30 34 C 4.005250 -2.100531 1.918632 0
M  V30 35 H 5.788539 -3.125308 4.174091 0
M  V30 36 H 6.912817 -3.190195 2.788418 0
M  V30 37 H 5.240170 -3.979067 2.654780 0
M  V30 38 H 6.366935 -0.147108 2.198972 0
M  V30 39 H 7.168154 -1.718900 1.749069 0
M  V30 40 H 6.496449 -0.425397 -0.172860 0
M  V30 41 H 5.715450 -2.014539 -0.152556 0
M  V30 42 H 3.338638 3.082482 0.445770 0
M  V30 43 H 0.928586 3.811799 0.630462 0
M  V30 44 H -1.407422 3.309799 0.240675 0
M  V30 45 H -3.568323 3.033681 -0.554987 0
M  V30 46 H -4.115567 1.570763 -1.416615 0
M  V30 47 H -5.166311 1.892667 0.859277 0
M  V30 48 H -3.558949 1.984416 1.578871 0
M  V30 49 H -3.452728 -0.298818 1.718478 0
M  V30 50 H -6.922751 -0.237267 -2.419866 0
M  V30 51 H -6.252846 -4.865650 -1.422193 0
M  V30 52 H -4.832409 -5.926129 0.275790 0
M  V30 53 H -3.435001 -2.277491 1.768680 0
M  V30 54 H -2.497820 -0.394637 -1.596976 0
M  V30 55 H -0.186040 -1.035801 -1.774762 0
M  V30 56 H 2.046023 -0.580429 -1.418060 0
M  V30 57 H 3.357359 -0.018297 2.063652 0
M  V30 58 H 2.485285 -1.103776 0.868821 0
M  V30 59 H 3.306003 -2.557069 2.645724 0
M  V30 60 H 4.193878 -2.809221 1.084656 0
M  V30 END ATOM
M  V30 BEGIN BOND
M  V30 1 1 1 2
M  V30 2 1 2 3
M  V30 3 1 3 4
M  V30 4 1 4 5
M  V30 5 1 5 6
M  V30 6 2 6 7
M  V30 7 1 6 8
M  V30 8 2 8 9
M  V30 9 1 9 10
M  V30 10 2 10 11
M  V30 11 1 11 12
M  V30 12 2 12 13
M  V30 13 1 13 14
M  V30 14 1 14 15
M  V30 15 1 15 16
M  V30 16 1 16 17
M  V30 17 2 17 18
M  V30 18 1 18 19
M  V30 19 2 19 20
M  V30 20 1 20 21
M  V30 21 2 21 22
M  V30 22 1 22 23
M  V30 23 2 23 24
M  V30 24 1 24 25
M  V30 25 3 25 26
M  V30 26 1 24 27
M  V30 27 2 27 28
M  V30 28 1 13 29
M  V30 29 2 29 30
M  V30 30 1 30 31
M  V30 31 2 31 32
M  V30 32 1 5 33
M  V30 33 1 33 34
M  V30 34 1 34 2
M  V30 35 1 32 8
M  V30 36 1 31 11
M  V30 37 1 28 17
M  V30 38 1 28 21
M  V30 39 1 1 35
M  V30 40 1 1 36
M  V30 41 1 1 37
M  V30 42 1 3 38
M  V30 43 1 3 39
M  V30 44 1 4 40
M  V30 45 1 4 41
M  V30 46 1 9 42
M  V30 47 1 10 43
M  V30 48 1 12 44
M  V30 49 1 14 45
M  V30 50 1 14 46
M  V30 51 1 15 47
M  V30 52 1 15 48
M  V30 53 1 16 49
M  V30 54 1 19 50
M  V30 55 1 22 51
M  V30 56 1 23 52
M  V30 57 1 27 53
M  V30 58 1 29 54
M  V30 59 1 30 55
M  V30 60 1 32 56
M  V30 61 1 33 57
M  V30 62 1 33 58
M  V30 63 1 34 59
M  V30 64 1 34 60
M  V30 END BOND
M  V30 END CTAB
M  END
>  <Dataset>  (858) 
ChEMBL_Kinases

>  <Ligand_Instance>  (858) 
nan

>  <PDB_ID>  (858) 
nan

>  <Standardized_SMILES>  (858) 
CN1CCN(C(=O)c2ccc3cc(CCNc4ncnc5ccc(C#N)cc45)ccc3c2)CC1

>  <Name>  (858) 
SENEXIN B

>  <Pocket>  (858) 
nan

>  <ATP_Site>  (858) 
nan

>  <Peripheral>  (858) 
nan

>  <Num_H_Atoms_ProtBoundConf>  (858) 
nan

>  <Num_Resolved_Atoms>  (858) 
nan

>  <Num_Not_Resolved_Atoms>  (858) 
nan

$$$$
CHEMBL3609326
     RDKit          3D

  0  0  0  0  0  0  0  0  0  0999 V3000
M  V30 BEGIN CTAB
M  V30 COUNTS 58 62 0 0 0
M  V30 BEGIN ATOM
M  V30 1 C 1.963160 -0.898749 4.042055 0
M  V30 2 C 2.003267 -0.710007 2.560079 0
M  V30 3 N 1.707096 0.680491 2.193460 0
M  V30 4 C 2.707157 1.602646 2.083532 0
M  V30 5 O 3.870497 1.136399 2.327680 0
M  V30 6 C 2.421575 2.920946 1.731539 0
M  V30 7 C 3.636421 3.724970 1.674022 0
M  V30 8 C 4.277514 3.764849 0.449543 0
M  V30 9 C 5.428283 4.525779 0.423432 0
M  V30 10 C 5.950085 5.223068 1.520031 0
M  V30 11 Cl 7.409924 6.150226 1.364538 0
M  V30 12 C 5.239989 5.128340 2.714260 0
M  V30 13 C 4.065617 4.369114 2.797177 0
M  V30 14 Cl 3.212482 4.290716 4.341310 0
M  V30 15 C 1.114212 3.292681 1.492208 0
M  V30 16 C 0.169454 2.304473 1.624807 0
M  V30 17 C -1.140771 2.655658 1.390365 0
M  V30 18 N -2.129815 1.756474 1.496240 0
M  V30 19 C -1.885777 0.467703 1.837235 0
M  V30 20 N -2.707744 -0.676153 2.013499 0
M  V30 21 C -2.868277 -1.601400 0.947448 0
M  V30 22 C -3.597498 -2.774792 1.097774 0
M  V30 23 C -3.718666 -3.651591 0.045000 0
M  V30 24 C -3.152979 -3.447468 -1.191010 0
M  V30 25 N -3.331714 -4.386434 -2.233587 0
M  V30 26 C -3.824976 -5.745210 -2.019717 0
M  V30 27 C -2.660546 -6.676892 -2.280946 0
M  V30 28 N -1.577750 -5.958618 -2.882458 0
M  V30 29 C -1.923444 -5.119153 -3.985891 0
M  V30 30 C -3.083187 -4.186670 -3.645362 0
M  V30 31 C -2.446328 -2.274461 -1.282302 0
M  V30 32 F -1.828991 -1.951422 -2.437455 0
M  V30 33 C -2.269926 -1.343036 -0.292377 0
M  V30 34 N -0.595174 0.104012 2.072355 0
M  V30 35 C 0.397689 0.995157 1.968544 0
M  V30 36 H 0.937635 -1.194997 4.369561 0
M  V30 37 H 2.626161 -1.745619 4.377844 0
M  V30 38 H 2.317912 0.027360 4.557663 0
M  V30 39 H 3.027393 -1.011424 2.201733 0
M  V30 40 H 1.268343 -1.334428 2.020505 0
M  V30 41 H 3.925494 3.251415 -0.426487 0
M  V30 42 H 5.946468 4.565203 -0.547241 0
M  V30 43 H 5.607540 5.650922 3.585838 0
M  V30 44 H 0.975643 4.318167 1.228266 0
M  V30 45 H -1.410435 3.652365 1.116942 0
M  V30 46 H -3.202074 -0.865335 2.902247 0
M  V30 47 H -4.022883 -2.898229 2.069045 0
M  V30 48 H -4.315354 -4.504846 0.328029 0
M  V30 49 H -4.305728 -5.914132 -1.064301 0
M  V30 50 H -4.597795 -6.035604 -2.792611 0
M  V30 51 H -2.241559 -7.119775 -1.334273 0
M  V30 52 H -2.980445 -7.587186 -2.860299 0
M  V30 53 H -0.858920 -6.629419 -3.183556 0
M  V30 54 H -2.108354 -5.709299 -4.902523 0
M  V30 55 H -1.054149 -4.439141 -4.155654 0
M  V30 56 H -3.979370 -4.601715 -4.196960 0
M  V30 57 H -2.926421 -3.158279 -3.964676 0
M  V30 58 H -1.715352 -0.445503 -0.398853 0
M  V30 END ATOM
M  V30 BEGIN BOND
M  V30 1 1 1 2
M  V30 2 1 2 3
M  V30 3 1 3 4
M  V30 4 2 4 5
M  V30 5 1 4 6
M  V30 6 1 6 7
M  V30 7 2 7 8
M  V30 8 1 8 9
M  V30 9 2 9 10
M  V30 10 1 10 11
M  V30 11 1 10 12
M  V30 12 2 12 13
M  V30 13 1 13 14
M  V30 14 2 6 15
M  V30 15 1 15 16
M  V30 16 2 16 17
M  V30 17 1 17 18
M  V30 18 2 18 19
M  V30 19 1 19 20
M  V30 20 1 20 21
M  V30 21 2 21 22
M  V30 22 1 22 23
M  V30 23 2 23 24
M  V30 24 1 24 25
M  V30 25 1 25 26
M  V30 26 1 26 27
M  V30 27 1 27 28
M  V30 28 1 28 29
M  V30 29 1 29 30
M  V30 30 1 24 31
M  V30 31 1 31 32
M  V30 32 2 31 33
M  V30 33 1 19 34
M  V30 34 2 34 35
M  V30 35 1 35 3
M  V30 36 1 13 7
M  V30 37 1 35 16
M  V30 38 1 33 21
M  V30 39 1 30 25
M  V30 40 1 1 36
M  V30 41 1 1 37
M  V30 42 1 1 38
M  V30 43 1 2 39
M  V30 44 1 2 40
M  V30 45 1 8 41
M  V30 46 1 9 42
M  V30 47 1 12 43
M  V30 48 1 15 44
M  V30 49 1 17 45
M  V30 50 1 20 46
M  V30 51 1 22 47
M  V30 52 1 23 48
M  V30 53 1 26 49
M  V30 54 1 26 50
M  V30 55 1 27 51
M  V30 56 1 27 52
M  V30 57 1 28 53
M  V30 58 1 29 54
M  V30 59 1 29 55
M  V30 60 1 30 56
M  V30 61 1 30 57
M  V30 62 1 33 58
M  V30 END BOND
M  V30 END CTAB
M  END
>  <Dataset>  (859) 
ChEMBL_Kinases

>  <Ligand_Instance>  (859) 
nan

>  <PDB_ID>  (859) 
nan

>  <Standardized_SMILES>  (859) 
CCn1c(=O)c(-c2ccc(Cl)cc2Cl)cc2cnc(Nc3ccc(N4CCNCC4)c(F)c3)nc21

>  <Name>  (859) 
nan

>  <Pocket>  (859) 
nan

>  <ATP_Site>  (859) 
nan

>  <Peripheral>  (859) 
nan

>  <Num_H_Atoms_ProtBoundConf>  (859) 
nan

>  <Num_Resolved_Atoms>  (859) 
nan

>  <Num_Not_Resolved_Atoms>  (859) 
nan

$$$$
CHEMBL16687
     RDKit          3D

  0  0  0  0  0  0  0  0  0  0999 V3000
M  V30 BEGIN CTAB
M  V30 COUNTS 28 31 0 0 0
M  V30 BEGIN ATOM
M  V30 1 N -3.101607 -2.132014 0.942199 0
M  V30 2 C -1.713964 -2.139217 0.633173 0
M  V30 3 N -1.124052 -3.264773 0.177400 0
M  V30 4 C 0.187246 -3.299970 -0.122830 0
M  V30 5 C 0.836557 -4.443629 -0.596955 0
M  V30 6 C 2.187325 -4.382123 -0.877961 0
M  V30 7 C 2.935429 -3.232925 -0.711331 0
M  V30 8 Cl 4.636239 -3.194644 -1.076490 0
M  V30 9 C 2.327132 -2.066614 -0.239732 0
M  V30 10 C 0.977722 -2.177886 0.026591 0
M  V30 11 C 0.313584 -1.043241 0.501405 0
M  V30 12 N 0.765389 0.211025 0.763939 0
M  V30 13 C -0.236648 0.988871 1.210383 0
M  V30 14 C 0.061866 2.379504 1.546230 0
M  V30 15 C 0.263390 2.730397 2.866048 0
M  V30 16 C 0.524383 4.104991 2.864549 0
M  V30 17 C 0.463164 4.496922 1.536758 0
M  V30 18 O 0.186238 3.441009 0.789813 0
M  V30 19 N -1.322609 0.192655 1.220500 0
M  V30 20 N -0.996848 -1.013195 0.799960 0
M  V30 21 H -3.420765 -1.676199 1.844830 0
M  V30 22 H -3.916578 -2.516823 0.411374 0
M  V30 23 H 0.249083 -5.334640 -0.724496 0
M  V30 24 H 2.661179 -5.303973 -1.249175 0
M  V30 25 H 2.839136 -1.127797 -0.081670 0
M  V30 26 H 0.266804 2.227402 3.834689 0
M  V30 27 H 0.743306 4.826197 3.666049 0
M  V30 28 H 0.613502 5.497703 1.147361 0
M  V30 END ATOM
M  V30 BEGIN BOND
M  V30 1 1 1 2
M  V30 2 2 2 3
M  V30 3 1 3 4
M  V30 4 2 4 5
M  V30 5 1 5 6
M  V30 6 2 6 7
M  V30 7 1 7 8
M  V30 8 1 7 9
M  V30 9 2 9 10
M  V30 10 1 10 11
M  V30 11 2 11 12
M  V30 12 1 12 13
M  V30 13 1 13 14
M  V30 14 2 14 15
M  V30 15 1 15 16
M  V30 16 2 16 17
M  V30 17 1 17 18
M  V30 18 2 13 19
M  V30 19 1 19 20
M  V30 20 1 20 2
M  V30 21 1 10 4
M  V30 22 1 20 11
M  V30 23 1 18 14
M  V30 24 1 1 21
M  V30 25 1 1 22
M  V30 26 1 5 23
M  V30 27 1 6 24
M  V30 28 1 9 25
M  V30 29 1 15 26
M  V30 30 1 16 27
M  V30 31 1 17 28
M  V30 END BOND
M  V30 END CTAB
M  END
>  <Dataset>  (860) 
ChEMBL_Kinases

>  <Ligand_Instance>  (860) 
nan

>  <PDB_ID>  (860) 
nan

>  <Standardized_SMILES>  (860) 
Nc1nc2ccc(Cl)cc2c2nc(-c3ccco3)nn12

>  <Name>  (860) 
CGS-15943

>  <Pocket>  (860) 
nan

>  <ATP_Site>  (860) 
nan

>  <Peripheral>  (860) 
nan

>  <Num_H_Atoms_ProtBoundConf>  (860) 
nan

>  <Num_Resolved_Atoms>  (860) 
nan

>  <Num_Not_Resolved_Atoms>  (860) 
nan

$$$$
CHEMBL1668411
     RDKit          3D

  0  0  0  0  0  0  0  0  0  0999 V3000
M  V30 BEGIN CTAB
M  V30 COUNTS 48 49 0 0 0
M  V30 BEGIN ATOM
M  V30 1 C 4.322265 -5.206876 1.778640 0
M  V30 2 O 3.081744 -5.466820 1.121943 0
M  V30 3 C 2.136401 -4.497521 0.922194 0
M  V30 4 C 1.000681 -4.924999 0.272077 0
M  V30 5 C -0.006993 -3.977169 0.037717 0
M  V30 6 O -1.214139 -4.293031 -0.620443 0
M  V30 7 C 0.048975 -2.645807 0.408552 0
M  V30 8 C 1.213258 -2.250943 1.062255 0
M  V30 9 C 2.211043 -3.171178 1.299312 0
M  V30 10 C 1.630296 -0.941585 1.564423 0
M  V30 11 C 1.673542 0.224220 0.884031 0
M  V30 12 C 2.074911 1.634701 1.260591 0
M  V30 13 C 0.887761 2.557086 1.210959 0 CFG=1
M  V30 14 O 1.305238 3.838427 1.568312 0
M  V30 15 C 0.226124 2.599506 -0.118436 0 CFG=2
M  V30 16 O 1.133972 3.233047 -1.003458 0
M  V30 17 C -1.076561 3.205938 -0.240254 0
M  V30 18 O -0.220403 3.964782 -0.752849 0
M  V30 19 C -2.532446 3.175006 -0.015311 0
M  V30 20 C -3.324608 2.234794 0.559143 0
M  V30 21 C -2.636175 1.064416 1.032721 0
M  V30 22 C -3.010972 -0.280873 0.446962 0 CFG=2
M  V30 23 C -4.399636 -0.687423 0.720312 0
M  V30 24 O -1.985408 -1.138986 0.949260 0
M  V30 25 C -1.068526 -1.757797 0.120743 0
M  V30 26 O -0.956597 -1.712643 -1.131304 0
M  V30 27 H 4.821139 -6.152272 2.051037 0
M  V30 28 H 5.031697 -4.659070 1.118773 0
M  V30 29 H 4.199493 -4.613130 2.685964 0
M  V30 30 H 0.728480 -5.890448 -0.106875 0
M  V30 31 H -1.758646 -5.094293 -0.377807 0
M  V30 32 H 3.157745 -2.987826 1.797243 0
M  V30 33 H 1.945864 -0.906375 2.625533 0
M  V30 34 H 1.353044 0.006913 -0.128254 0
M  V30 35 H 2.854720 2.009674 0.573904 0
M  V30 36 H 2.525726 1.653939 2.263176 0
M  V30 37 H 0.158512 2.277416 2.037492 0
M  V30 38 H 1.969692 3.860385 2.292897 0
M  V30 39 H 0.227123 1.531796 -0.519298 0
M  V30 40 H 1.897192 2.629576 -1.109710 0
M  V30 41 H -2.856726 4.136186 -0.439278 0
M  V30 42 H -4.338523 2.589648 0.532316 0
M  V30 43 H -2.869522 0.940313 2.140977 0
M  V30 44 H -1.540992 1.198853 1.027189 0
M  V30 45 H -2.850895 -0.298312 -0.660213 0
M  V30 46 H -4.870657 -1.183226 -0.155207 0
M  V30 47 H -4.550939 -1.252092 1.661577 0
M  V30 48 H -5.003248 0.256860 0.845197 0
M  V30 END ATOM
M  V30 BEGIN BOND
M  V30 1 1 1 2
M  V30 2 1 2 3
M  V30 3 2 3 4
M  V30 4 1 4 5
M  V30 5 1 5 6
M  V30 6 2 5 7
M  V30 7 1 7 8
M  V30 8 2 8 9
M  V30 9 1 8 10
M  V30 10 2 10 11
M  V30 11 1 11 12
M  V30 12 1 12 13
M  V30 13 1 13 14
M  V30 14 1 13 15
M  V30 15 1 15 16
M  V30 16 1 15 17
M  V30 17 2 17 18
M  V30 18 1 17 19
M  V30 19 2 19 20
M  V30 20 1 20 21
M  V30 21 1 21 22
M  V30 22 1 22 23
M  V30 23 1 22 24
M  V30 24 1 24 25
M  V30 25 2 25 26
M  V30 26 1 9 3
M  V30 27 1 25 7
M  V30 28 1 1 27
M  V30 29 1 1 28
M  V30 30 1 1 29
M  V30 31 1 4 30
M  V30 32 1 6 31
M  V30 33 1 9 32
M  V30 34 1 10 33
M  V30 35 1 11 34
M  V30 36 1 12 35
M  V30 37 1 12 36
M  V30 38 1 13 37 CFG=1
M  V30 39 1 14 38
M  V30 40 1 15 39 CFG=3
M  V30 41 1 16 40
M  V30 42 1 19 41
M  V30 43 1 20 42
M  V30 44 1 21 43
M  V30 45 1 21 44
M  V30 46 1 22 45 CFG=3
M  V30 47 1 23 46
M  V30 48 1 23 47
M  V30 49 1 23 48
M  V30 END BOND
M  V30 END CTAB
M  END
>  <Dataset>  (861) 
ChEMBL_Kinases

>  <Ligand_Instance>  (861) 
nan

>  <PDB_ID>  (861) 
nan

>  <Standardized_SMILES>  (861) 
COc1cc(O)c2c(c1)/C=C/C[C@@H](O)[C@H](O)C(=O)/C=C\C[C@H](C)OC2=O

>  <Name>  (861) 
nan

>  <Pocket>  (861) 
nan

>  <ATP_Site>  (861) 
nan

>  <Peripheral>  (861) 
nan

>  <Num_H_Atoms_ProtBoundConf>  (861) 
nan

>  <Num_Resolved_Atoms>  (861) 
nan

>  <Num_Not_Resolved_Atoms>  (861) 
nan

$$$$
CHEMBL4073443
     RDKit          3D

  0  0  0  0  0  0  0  0  0  0999 V3000
M  V30 BEGIN CTAB
M  V30 COUNTS 45 48 0 0 0
M  V30 BEGIN ATOM
M  V30 1 C 0.561039 -4.449874 -1.283974 0
M  V30 2 C 0.636514 -3.194073 -0.493468 0
M  V30 3 C 1.817564 -2.482545 -0.522771 0
M  V30 4 C 1.899687 -1.313345 0.207980 0
M  V30 5 N 3.110328 -0.572199 0.191266 0
M  V30 6 C 3.347450 0.756272 -0.251728 0
M  V30 7 C 2.356348 1.542378 -0.796681 0
M  V30 8 C 2.720291 2.821676 -1.183995 0
M  V30 9 N 1.660221 3.619733 -1.750187 0
M  V30 10 N 3.988665 3.280514 -1.035582 0
M  V30 11 C 4.921859 2.473745 -0.497658 0
M  V30 12 N 4.599835 1.222623 -0.110192 0
M  V30 13 C 0.781631 -0.930008 0.928023 0
M  V30 14 O 0.943126 0.144399 1.564017 0
M  V30 15 N -0.390880 -1.607322 0.976538 0
M  V30 16 C -0.435686 -2.743746 0.250835 0
M  V30 17 C -1.746549 -3.381332 0.372620 0
M  V30 18 O -2.275940 -4.405220 -0.079376 0
M  V30 19 N -2.441670 -2.493127 1.239372 0
M  V30 20 C -1.638224 -1.337312 1.681997 0
M  V30 21 C -2.284448 -0.065980 1.249446 0
M  V30 22 C -2.635444 0.879418 2.347262 0
M  V30 23 C -1.593703 0.994040 3.408992 0
M  V30 24 C -1.120237 -0.310639 3.940353 0
M  V30 25 C -1.529185 -1.519473 3.169795 0
M  V30 26 H -0.484939 -4.668639 -1.575741 0
M  V30 27 H 1.180083 -4.401235 -2.201570 0
M  V30 28 H 0.904916 -5.317990 -0.680549 0
M  V30 29 H 2.656001 -2.839287 -1.107277 0
M  V30 30 H 3.842989 -1.179428 0.574252 0
M  V30 31 H 1.355522 1.189364 -0.920365 0
M  V30 32 H 1.684603 3.481955 -2.784413 0
M  V30 33 H 0.900153 4.272060 -1.452923 0
M  V30 34 H 5.894704 2.887889 -0.406918 0
M  V30 35 H -3.421821 -2.537520 1.603111 0
M  V30 36 H -1.638143 0.383246 0.468027 0
M  V30 37 H -3.230528 -0.314492 0.722632 0
M  V30 38 H -2.736315 1.903035 1.881630 0
M  V30 39 H -3.625767 0.678393 2.804901 0
M  V30 40 H -2.074811 1.577321 4.249191 0
M  V30 41 H -0.741388 1.660635 3.108554 0
M  V30 42 H -0.018180 -0.320995 4.083795 0
M  V30 43 H -1.531925 -0.459246 4.984296 0
M  V30 44 H -0.816803 -2.369807 3.323276 0
M  V30 45 H -2.522105 -1.926866 3.523351 0
M  V30 END ATOM
M  V30 BEGIN BOND
M  V30 1 1 1 2
M  V30 2 1 2 3
M  V30 3 2 3 4
M  V30 4 1 4 5
M  V30 5 1 5 6
M  V30 6 2 6 7
M  V30 7 1 7 8
M  V30 8 1 8 9
M  V30 9 2 8 10
M  V30 10 1 10 11
M  V30 11 2 11 12
M  V30 12 1 4 13
M  V30 13 2 13 14
M  V30 14 1 13 15
M  V30 15 1 15 16
M  V30 16 1 16 17
M  V30 17 2 17 18
M  V30 18 1 17 19
M  V30 19 1 19 20
M  V30 20 1 20 21
M  V30 21 1 21 22
M  V30 22 1 22 23
M  V30 23 1 23 24
M  V30 24 1 24 25
M  V30 25 2 16 2
M  V30 26 1 25 20
M  V30 27 1 12 6
M  V30 28 1 20 15
M  V30 29 1 1 26
M  V30 30 1 1 27
M  V30 31 1 1 28
M  V30 32 1 3 29
M  V30 33 1 5 30
M  V30 34 1 7 31
M  V30 35 1 9 32
M  V30 36 1 9 33
M  V30 37 1 11 34
M  V30 38 1 19 35
M  V30 39 1 21 36
M  V30 40 1 21 37
M  V30 41 1 22 38
M  V30 42 1 22 39
M  V30 43 1 23 40
M  V30 44 1 23 41
M  V30 45 1 24 42
M  V30 46 1 24 43
M  V30 47 1 25 44
M  V30 48 1 25 45
M  V30 END BOND
M  V30 END CTAB
M  END
>  <Dataset>  (862) 
ChEMBL_Kinases

>  <Ligand_Instance>  (862) 
nan

>  <PDB_ID>  (862) 
nan

>  <Standardized_SMILES>  (862) 
Cc1cc(Nc2cc(N)ncn2)c(=O)n2c1C(=O)NC21CCCCC1

>  <Name>  (862) 
TOMIVOSERTIB

>  <Pocket>  (862) 
nan

>  <ATP_Site>  (862) 
nan

>  <Peripheral>  (862) 
nan

>  <Num_H_Atoms_ProtBoundConf>  (862) 
nan

>  <Num_Resolved_Atoms>  (862) 
nan

>  <Num_Not_Resolved_Atoms>  (862) 
nan

$$$$
CHEMBL375312
     RDKit          3D

  0  0  0  0  0  0  0  0  0  0999 V3000
M  V30 BEGIN CTAB
M  V30 COUNTS 47 50 0 0 0
M  V30 BEGIN ATOM
M  V30 1 C -1.729366 1.559978 3.268125 0
M  V30 2 C -1.412744 0.102386 3.254555 0
M  V30 3 C -0.401800 -0.370125 2.542823 0
M  V30 4 C 0.404145 0.562394 1.766482 0
M  V30 5 O 0.236761 1.804308 1.697615 0
M  V30 6 N 1.506719 0.132332 0.978101 0
M  V30 7 C 2.118366 1.264478 0.320448 0
M  V30 8 C 1.630317 1.601220 -0.935510 0
M  V30 9 C 2.200521 2.678824 -1.580397 0
M  V30 10 C 1.958836 3.265732 -2.805659 0
M  V30 11 N 2.822321 4.309008 -2.937088 0
M  V30 12 N 3.573252 4.363492 -1.826834 0
M  V30 13 C 3.232236 3.383185 -0.958915 0
M  V30 14 C 3.731980 3.064056 0.290261 0
M  V30 15 C 3.150270 1.970750 0.939484 0
M  V30 16 F 3.579561 1.593968 2.159956 0
M  V30 17 C -0.086016 -1.796511 2.522188 0
M  V30 18 C -0.597569 -2.543685 1.368886 0
M  V30 19 C 0.221748 -3.267248 0.498098 0
M  V30 20 C -0.202820 -3.986327 -0.599885 0
M  V30 21 C -1.556510 -3.994479 -0.865585 0
M  V30 22 C -2.036526 -4.762335 -2.043041 0
M  V30 23 F -2.064000 -3.974458 -3.183837 0
M  V30 24 F -1.154049 -5.801233 -2.266183 0
M  V30 25 F -3.272240 -5.349827 -1.802338 0
M  V30 26 C -2.428768 -3.303656 -0.051106 0
M  V30 27 C -1.925865 -2.607833 1.028638 0
M  V30 28 C -0.502405 -2.492673 3.824643 0
M  V30 29 C -1.932606 -2.195590 4.033138 0
M  V30 30 O -2.936858 -2.955128 4.207068 0
M  V30 31 N -2.232643 -0.789203 4.038705 0
M  V30 32 H -2.013191 1.964976 2.295028 0
M  V30 33 H -2.574843 1.753256 3.950575 0
M  V30 34 H -0.850233 2.064920 3.745952 0
M  V30 35 H 1.784096 -0.871778 0.924567 0
M  V30 36 H 0.841482 1.070153 -1.421414 0
M  V30 37 H 1.220164 2.965969 -3.544305 0
M  V30 38 H 4.323731 5.100199 -1.696912 0
M  V30 39 H 4.525731 3.630421 0.733253 0
M  V30 40 H 1.031738 -1.910444 2.509425 0
M  V30 41 H 1.302791 -3.275600 0.689240 0
M  V30 42 H 0.504652 -4.510161 -1.208840 0
M  V30 43 H -3.496133 -3.326245 -0.283489 0
M  V30 44 H -2.663775 -2.100050 1.608661 0
M  V30 45 H 0.070530 -2.049746 4.648261 0
M  V30 46 H -0.283649 -3.572358 3.703058 0
M  V30 47 H -3.027249 -0.343583 4.585697 0
M  V30 END ATOM
M  V30 BEGIN BOND
M  V30 1 1 1 2
M  V30 2 2 2 3
M  V30 3 1 3 4
M  V30 4 2 4 5
M  V30 5 1 4 6
M  V30 6 1 6 7
M  V30 7 2 7 8
M  V30 8 1 8 9
M  V30 9 1 9 10
M  V30 10 2 10 11
M  V30 11 1 11 12
M  V30 12 1 12 13
M  V30 13 1 13 14
M  V30 14 2 14 15
M  V30 15 1 15 16
M  V30 16 1 3 17
M  V30 17 1 17 18
M  V30 18 2 18 19
M  V30 19 1 19 20
M  V30 20 2 20 21
M  V30 21 1 21 22
M  V30 22 1 22 23
M  V30 23 1 22 24
M  V30 24 1 22 25
M  V30 25 1 21 26
M  V30 26 2 26 27
M  V30 27 1 17 28
M  V30 28 1 28 29
M  V30 29 2 29 30
M  V30 30 1 29 31
M  V30 31 1 31 2
M  V30 32 1 15 7
M  V30 33 1 27 18
M  V30 34 2 13 9
M  V30 35 1 1 32
M  V30 36 1 1 33
M  V30 37 1 1 34
M  V30 38 1 6 35
M  V30 39 1 8 36
M  V30 40 1 10 37
M  V30 41 1 12 38
M  V30 42 1 14 39
M  V30 43 1 17 40
M  V30 44 1 19 41
M  V30 45 1 20 42
M  V30 46 1 26 43
M  V30 47 1 27 44
M  V30 48 1 28 45
M  V30 49 1 28 46
M  V30 50 1 31 47
M  V30 END BOND
M  V30 END CTAB
M  END
>  <Dataset>  (863) 
ChEMBL_Kinases

>  <Ligand_Instance>  (863) 
nan

>  <PDB_ID>  (863) 
nan

>  <Standardized_SMILES>  (863) 
CC1=C(C(=O)Nc2cc3cn[nH]c3cc2F)C(c2ccc(C(F)(F)F)cc2)CC(=O)N1

>  <Name>  (863) 
nan

>  <Pocket>  (863) 
nan

>  <ATP_Site>  (863) 
nan

>  <Peripheral>  (863) 
nan

>  <Num_H_Atoms_ProtBoundConf>  (863) 
nan

>  <Num_Resolved_Atoms>  (863) 
nan

>  <Num_Not_Resolved_Atoms>  (863) 
nan

$$$$
CHEMBL593813
     RDKit          3D

  0  0  0  0  0  0  0  0  0  0999 V3000
M  V30 BEGIN CTAB
M  V30 COUNTS 63 68 0 0 0
M  V30 BEGIN ATOM
M  V30 1 C -2.766381 -5.742834 1.737217 0
M  V30 2 C -1.577624 -5.581120 2.631679 0
M  V30 3 O -1.350637 -6.236843 3.739363 0
M  V30 4 C -0.218155 -5.852384 4.277541 0
M  V30 5 C 0.303687 -4.879702 3.439564 0
M  V30 6 C -0.543489 -4.673198 2.362472 0
M  V30 7 C -0.349503 -3.738912 1.264920 0
M  V30 8 N 0.069251 -3.913662 -0.001805 0
M  V30 9 C 0.157745 -2.832873 -0.843654 0
M  V30 10 N 0.642660 -3.364875 -2.100572 0
M  V30 11 C -0.163841 -1.503495 -0.486336 0
M  V30 12 O 0.062554 -0.794567 -1.590993 0
M  V30 13 C -0.080829 0.563253 -1.788572 0
M  V30 14 C 0.776166 1.436532 -0.906812 0 CFG=1
M  V30 15 N 2.176880 1.059143 -1.147842 0
M  V30 16 C 0.605737 2.856216 -1.366490 0
M  V30 17 C 0.981494 3.133878 -2.747595 0
M  V30 18 C 2.281861 3.231722 -3.191257 0
M  V30 19 Cl 3.815783 3.073815 -2.399875 0
M  V30 20 N 2.290179 3.516291 -4.527886 0
M  V30 21 C 1.014721 3.608873 -4.977673 0
M  V30 22 C 0.453450 3.879147 -6.227625 0
M  V30 23 C -0.915707 3.912487 -6.377876 0
M  V30 24 C -1.688832 3.666806 -5.237917 0
M  V30 25 C -1.173270 3.396622 -3.988552 0
M  V30 26 C 0.214585 3.367142 -3.854138 0
M  V30 27 C -0.591800 -1.360704 0.828845 0
M  V30 28 C -0.679919 -2.467127 1.683780 0
M  V30 29 C -1.143296 -1.991234 2.988076 0
M  V30 30 C -2.390136 -1.447319 3.193996 0
M  V30 31 N -2.782093 -1.006561 4.395277 0
M  V30 32 C -1.989969 -1.063580 5.479578 0
M  V30 33 N -2.051464 -0.722555 6.801598 0
M  V30 34 N -0.892294 -1.056358 7.330844 0
M  V30 35 C -0.066527 -1.599330 6.432931 0
M  V30 36 C 1.306888 -2.074124 6.724676 0
M  V30 37 C -0.725598 -1.623826 5.237627 0
M  V30 38 N -0.294995 -2.081853 4.029834 0
M  V30 39 H -3.703876 -5.711050 2.332438 0
M  V30 40 H -2.861956 -4.930719 0.993857 0
M  V30 41 H -2.613494 -6.713302 1.214885 0
M  V30 42 H 0.100327 -6.312025 5.203692 0
M  V30 43 H 1.244452 -4.395884 3.659874 0
M  V30 44 H 1.644514 -3.568813 -2.072371 0
M  V30 45 H 0.366027 -3.634915 -3.066448 0
M  V30 46 H 0.205617 0.862203 -2.844963 0
M  V30 47 H -1.159891 0.897949 -1.733588 0
M  V30 48 H 0.534952 1.412380 0.155672 0
M  V30 49 H 2.168249 0.006547 -1.089354 0
M  V30 50 H 2.663252 1.371088 -0.249565 0
M  V30 51 H 1.195065 3.576383 -0.725618 0
M  V30 52 H -0.469760 3.113132 -1.159692 0
M  V30 53 H 3.080085 3.664321 -5.217264 0
M  V30 54 H 1.105022 4.060825 -7.071590 0
M  V30 55 H -1.342396 4.120719 -7.330568 0
M  V30 56 H -2.769145 3.715273 -5.450908 0
M  V30 57 H -1.826773 3.218857 -3.167476 0
M  V30 58 H -0.807788 -0.331004 0.980277 0
M  V30 59 H -3.075021 -1.373079 2.358542 0
M  V30 60 H -2.958445 -0.294494 7.089405 0
M  V30 61 H 1.940241 -2.062868 5.811221 0
M  V30 62 H 1.780333 -1.560476 7.582209 0
M  V30 63 H 1.187665 -3.156510 7.001279 0
M  V30 END ATOM
M  V30 BEGIN BOND
M  V30 1 1 1 2
M  V30 2 1 2 3
M  V30 3 1 3 4
M  V30 4 2 4 5
M  V30 5 1 5 6
M  V30 6 1 6 7
M  V30 7 2 7 8
M  V30 8 1 8 9
M  V30 9 1 9 10
M  V30 10 2 9 11
M  V30 11 1 11 12
M  V30 12 1 12 13
M  V30 13 1 13 14
M  V30 14 1 14 15
M  V30 15 1 14 16
M  V30 16 1 16 17
M  V30 17 2 17 18
M  V30 18 1 18 19
M  V30 19 1 18 20
M  V30 20 1 20 21
M  V30 21 2 21 22
M  V30 22 1 22 23
M  V30 23 2 23 24
M  V30 24 1 24 25
M  V30 25 2 25 26
M  V30 26 1 11 27
M  V30 27 2 27 28
M  V30 28 1 28 29
M  V30 29 2 29 30
M  V30 30 1 30 31
M  V30 31 2 31 32
M  V30 32 1 32 33
M  V30 33 1 33 34
M  V30 34 2 34 35
M  V30 35 1 35 36
M  V30 36 1 35 37
M  V30 37 2 37 38
M  V30 38 2 6 2
M  V30 39 1 28 7
M  V30 40 1 38 29
M  V30 41 1 26 17
M  V30 42 1 37 32
M  V30 43 1 26 21
M  V30 44 1 1 39
M  V30 45 1 1 40
M  V30 46 1 1 41
M  V30 47 1 4 42
M  V30 48 1 5 43
M  V30 49 1 10 44
M  V30 50 1 10 45
M  V30 51 1 13 46
M  V30 52 1 13 47
M  V30 53 1 14 48 CFG=1
M  V30 54 1 15 49
M  V30 55 1 15 50
M  V30 56 1 16 51
M  V30 57 1 16 52
M  V30 58 1 20 53
M  V30 59 1 22 54
M  V30 60 1 23 55
M  V30 61 1 24 56
M  V30 62 1 25 57
M  V30 63 1 27 58
M  V30 64 1 30 59
M  V30 65 1 33 60
M  V30 66 1 36 61
M  V30 67 1 36 62
M  V30 68 1 36 63
M  V30 END BOND
M  V30 END CTAB
M  END
>  <Dataset>  (864) 
ChEMBL_Kinases

>  <Ligand_Instance>  (864) 
nan

>  <PDB_ID>  (864) 
nan

>  <Standardized_SMILES>  (864) 
Cc1occc1-c1nc(N)c(OC[C@@H](N)Cc2c(Cl)[nH]c3ccccc23)cc1-c1cnc2[nH]nc(C)c2n1

>  <Name>  (864) 
nan

>  <Pocket>  (864) 
nan

>  <ATP_Site>  (864) 
nan

>  <Peripheral>  (864) 
nan

>  <Num_H_Atoms_ProtBoundConf>  (864) 
nan

>  <Num_Resolved_Atoms>  (864) 
nan

>  <Num_Not_Resolved_Atoms>  (864) 
nan

$$$$
CHEMBL3753341
     RDKit          3D

  0  0  0  0  0  0  0  0  0  0999 V3000
M  V30 BEGIN CTAB
M  V30 COUNTS 37 40 0 0 0
M  V30 BEGIN ATOM
M  V30 1 C -0.468878 -2.800523 4.053679 0
M  V30 2 C -0.975646 -2.922495 2.631291 0
M  V30 3 C -0.981143 -4.394310 2.291362 0
M  V30 4 N -0.077468 -2.160828 1.788221 0
M  V30 5 N -0.383350 -1.062589 1.155951 0
M  V30 6 C 0.703101 -0.618986 0.459802 0
M  V30 7 C 0.792984 0.569554 -0.377796 0
M  V30 8 C -0.286829 1.440192 -0.574184 0
M  V30 9 C 0.083128 2.474243 -1.409184 0
M  V30 10 C -0.721518 3.626099 -1.896231 0
M  V30 11 C -2.154328 3.235242 -2.387427 0
M  V30 12 C -1.929331 4.039591 -1.156374 0
M  V30 13 O 1.320761 2.227262 -1.692618 0
M  V30 14 N 1.747533 1.150886 -1.119088 0
M  V30 15 C 1.687953 -1.546057 0.728838 0
M  V30 16 C 3.002774 -1.672370 0.335456 0
M  V30 17 N 3.588776 -0.716714 -0.525156 0
M  V30 18 N 3.784872 -2.687447 0.737969 0
M  V30 19 C 3.253473 -3.629552 1.569501 0
M  V30 20 N 1.962155 -3.558748 1.991910 0
M  V30 21 C 1.203826 -2.528347 1.570363 0
M  V30 22 H -1.039144 -2.032905 4.598211 0
M  V30 23 H 0.596948 -2.463924 4.070624 0
M  V30 24 H -0.500745 -3.782780 4.592037 0
M  V30 25 H -2.002672 -2.563806 2.517248 0
M  V30 26 H -1.698235 -4.858041 3.010343 0
M  V30 27 H -0.022457 -4.901111 2.425063 0
M  V30 28 H -1.445740 -4.589121 1.288338 0
M  V30 29 H -1.273311 1.328720 -0.139463 0
M  V30 30 H -0.197026 4.349069 -2.576337 0
M  V30 31 H -2.482042 3.705113 -3.337657 0
M  V30 32 H -2.427720 2.165457 -2.288199 0
M  V30 33 H -2.227451 5.119968 -1.245659 0
M  V30 34 H -2.154518 3.591659 -0.177122 0
M  V30 35 H 3.454828 -1.032939 -1.522914 0
M  V30 36 H 3.965193 -0.001561 0.159236 0
M  V30 37 H 3.898896 -4.454325 1.892938 0
M  V30 END ATOM
M  V30 BEGIN BOND
M  V30 1 1 1 2
M  V30 2 1 2 3
M  V30 3 1 2 4
M  V30 4 1 4 5
M  V30 5 2 5 6
M  V30 6 1 6 7
M  V30 7 1 7 8
M  V30 8 2 8 9
M  V30 9 1 9 10
M  V30 10 1 10 11
M  V30 11 1 11 12
M  V30 12 1 9 13
M  V30 13 1 13 14
M  V30 14 1 6 15
M  V30 15 2 15 16
M  V30 16 1 16 17
M  V30 17 1 16 18
M  V30 18 2 18 19
M  V30 19 1 19 20
M  V30 20 2 20 21
M  V30 21 1 21 4
M  V30 22 2 14 7
M  V30 23 1 21 15
M  V30 24 1 12 10
M  V30 25 1 1 22
M  V30 26 1 1 23
M  V30 27 1 1 24
M  V30 28 1 2 25
M  V30 29 1 3 26
M  V30 30 1 3 27
M  V30 31 1 3 28
M  V30 32 1 8 29
M  V30 33 1 10 30
M  V30 34 1 11 31
M  V30 35 1 11 32
M  V30 36 1 12 33
M  V30 37 1 12 34
M  V30 38 1 17 35
M  V30 39 1 17 36
M  V30 40 1 19 37
M  V30 END BOND
M  V30 END CTAB
M  END
>  <Dataset>  (865) 
ChEMBL_Kinases

>  <Ligand_Instance>  (865) 
nan

>  <PDB_ID>  (865) 
nan

>  <Standardized_SMILES>  (865) 
CC(C)n1nc(-c2cc(C3CC3)on2)c2c(N)ncnc21

>  <Name>  (865) 
nan

>  <Pocket>  (865) 
nan

>  <ATP_Site>  (865) 
nan

>  <Peripheral>  (865) 
nan

>  <Num_H_Atoms_ProtBoundConf>  (865) 
nan

>  <Num_Resolved_Atoms>  (865) 
nan

>  <Num_Not_Resolved_Atoms>  (865) 
nan

$$$$
CHEMBL1436585
     RDKit          3D

  0  0  0  0  0  0  0  0  0  0999 V3000
M  V30 BEGIN CTAB
M  V30 COUNTS 45 49 0 0 0
M  V30 BEGIN ATOM
M  V30 1 C -0.252354 -3.659903 -1.887889 0
M  V30 2 N 0.701686 -3.246040 -1.046957 0
M  V30 3 C 0.561194 -2.230572 -0.179142 0
M  V30 4 N 1.635952 -1.870283 0.674548 0
M  V30 5 C 2.892490 -2.571098 0.631989 0
M  V30 6 C 3.583479 -2.455498 -0.698262 0
M  V30 7 C 3.889502 -1.042737 -1.069317 0
M  V30 8 C 5.361071 -0.878331 -0.832670 0
M  V30 9 O 5.788002 -2.001086 -0.134369 0
M  V30 10 C 4.983110 -3.053223 -0.536222 0
M  V30 11 C -0.673192 -1.618114 -0.209707 0
M  V30 12 C -0.906568 -0.566635 0.648046 0
M  V30 13 C -2.100517 0.106787 0.694480 0
M  V30 14 C -2.428515 1.225362 1.570983 0
M  V30 15 C -3.275970 2.272988 1.327299 0
M  V30 16 C -3.474288 3.255524 2.276926 0
M  V30 17 C -2.845546 3.243377 3.502508 0
M  V30 18 C -1.977713 2.178023 3.762262 0
M  V30 19 C -1.771106 1.178457 2.805622 0
M  V30 20 O -1.463175 2.378471 5.052639 0
M  V30 21 C -2.443361 3.178664 5.731020 0
M  V30 22 O -2.816889 4.038562 4.644917 0
M  V30 23 C -3.121895 -0.296707 -0.169786 0
M  V30 24 C -2.919739 -1.356030 -1.049722 0
M  V30 25 C -1.698032 -1.994529 -1.050332 0
M  V30 26 N -1.444040 -3.027791 -1.879807 0
M  V30 27 H -0.064781 -4.494620 -2.566014 0
M  V30 28 H 1.617375 -1.104042 1.376110 0
M  V30 29 H 2.619798 -3.661517 0.773225 0
M  V30 30 H 3.567561 -2.335384 1.455586 0
M  V30 31 H 3.004901 -3.000427 -1.448618 0
M  V30 32 H 3.291558 -0.278611 -0.549378 0
M  V30 33 H 3.644362 -0.949397 -2.165881 0
M  V30 34 H 5.561794 0.032375 -0.233166 0
M  V30 35 H 5.891204 -0.767078 -1.807753 0
M  V30 36 H 5.266375 -3.498130 -1.495905 0
M  V30 37 H 4.965187 -3.777425 0.314811 0
M  V30 38 H -0.167059 -0.214716 1.328719 0
M  V30 39 H -3.750084 2.256345 0.369025 0
M  V30 40 H -4.148640 4.075103 2.062841 0
M  V30 41 H -1.079691 0.378742 3.079928 0
M  V30 42 H -2.022062 3.725107 6.584943 0
M  V30 43 H -3.318212 2.549019 6.000649 0
M  V30 44 H -4.114408 0.175134 -0.212531 0
M  V30 45 H -3.719933 -1.671121 -1.725505 0
M  V30 END ATOM
M  V30 BEGIN BOND
M  V30 1 2 1 2
M  V30 2 1 2 3
M  V30 3 1 3 4
M  V30 4 1 4 5
M  V30 5 1 5 6
M  V30 6 1 6 7
M  V30 7 1 7 8
M  V30 8 1 8 9
M  V30 9 1 9 10
M  V30 10 2 3 11
M  V30 11 1 11 12
M  V30 12 2 12 13
M  V30 13 1 13 14
M  V30 14 2 14 15
M  V30 15 1 15 16
M  V30 16 2 16 17
M  V30 17 1 17 18
M  V30 18 2 18 19
M  V30 19 1 18 20
M  V30 20 1 20 21
M  V30 21 1 21 22
M  V30 22 1 13 23
M  V30 23 2 23 24
M  V30 24 1 24 25
M  V30 25 2 25 26
M  V30 26 1 26 1
M  V30 27 1 10 6
M  V30 28 1 25 11
M  V30 29 1 19 14
M  V30 30 1 22 17
M  V30 31 1 1 27
M  V30 32 1 4 28
M  V30 33 1 5 29
M  V30 34 1 5 30
M  V30 35 1 6 31
M  V30 36 1 7 32
M  V30 37 1 7 33
M  V30 38 1 8 34
M  V30 39 1 8 35
M  V30 40 1 10 36
M  V30 41 1 10 37
M  V30 42 1 12 38
M  V30 43 1 15 39
M  V30 44 1 16 40
M  V30 45 1 19 41
M  V30 46 1 21 42
M  V30 47 1 21 43
M  V30 48 1 23 44
M  V30 49 1 24 45
M  V30 END BOND
M  V30 END CTAB
M  END
>  <Dataset>  (866) 
ChEMBL_Kinases

>  <Ligand_Instance>  (866) 
nan

>  <PDB_ID>  (866) 
nan

>  <Standardized_SMILES>  (866) 
c1nc(NCC2CCOC2)c2cc(-c3ccc4c(c3)OCO4)ccc2n1

>  <Name>  (866) 
nan

>  <Pocket>  (866) 
nan

>  <ATP_Site>  (866) 
nan

>  <Peripheral>  (866) 
nan

>  <Num_H_Atoms_ProtBoundConf>  (866) 
nan

>  <Num_Resolved_Atoms>  (866) 
nan

>  <Num_Not_Resolved_Atoms>  (866) 
nan

$$$$
CHEMBL4522276
     RDKit          3D

  0  0  0  0  0  0  0  0  0  0999 V3000
M  V30 BEGIN CTAB
M  V30 COUNTS 56 59 0 0 0
M  V30 BEGIN ATOM
M  V30 1 C 3.988662 -1.765283 6.218533 0
M  V30 2 C 4.211518 -0.383214 5.676361 0
M  V30 3 C 5.687326 -0.169821 5.461822 0
M  V30 4 C 3.470499 -0.210802 4.347199 0
M  V30 5 S 3.736344 1.411544 3.720993 0
M  V30 6 O 5.212686 1.647915 3.596041 0
M  V30 7 O 3.198348 2.405651 4.703958 0
M  V30 8 N 2.930118 1.672646 2.227962 0
M  V30 9 C 3.385449 0.786966 1.170862 0
M  V30 10 C 2.619913 1.095825 -0.089589 0
M  V30 11 C 3.078396 2.032249 -0.991366 0
M  V30 12 C 2.281777 2.220509 -2.101722 0
M  V30 13 C 1.100282 1.541465 -2.335109 0
M  V30 14 C 0.673026 0.600464 -1.394033 0
M  V30 15 C -0.558955 -0.160587 -1.554287 0
M  V30 16 C -1.643729 0.429476 -2.214117 0
M  V30 17 C -2.819712 -0.316254 -2.359091 0
M  V30 18 C -2.845338 -1.584101 -1.847287 0
M  V30 19 C -3.817485 -2.581679 -1.810209 0
M  V30 20 N -5.152150 -2.513279 -2.349760 0
M  V30 21 C -6.025350 -3.649616 -2.219940 0
M  V30 22 O -5.557597 -4.657886 -1.629610 0
M  V30 23 C -7.394343 -3.593891 -2.765958 0
M  V30 24 C -7.634055 -2.866303 -4.081034 0
M  V30 25 C -8.165118 -2.327190 -2.766226 0
M  V30 26 N -3.286028 -3.649951 -1.166283 0
M  V30 27 N -2.043471 -3.407996 -0.788343 0
M  V30 28 C -1.781232 -2.173329 -1.195866 0
M  V30 29 C -0.600585 -1.443269 -1.042464 0
M  V30 30 C 1.442075 0.369358 -0.249467 0
M  V30 31 H 4.026326 -1.758072 7.343332 0
M  V30 32 H 2.988463 -2.173745 5.956341 0
M  V30 33 H 4.754168 -2.493425 5.908139 0
M  V30 34 H 3.821079 0.408528 6.327669 0
M  V30 35 H 5.987836 0.870174 5.668465 0
M  V30 36 H 6.254956 -0.799459 6.206212 0
M  V30 37 H 6.006192 -0.486243 4.443987 0
M  V30 38 H 2.401739 -0.439092 4.523461 0
M  V30 39 H 3.872489 -0.993022 3.694723 0
M  V30 40 H 2.953110 2.653022 1.917875 0
M  V30 41 H 4.467861 0.905799 0.990159 0
M  V30 42 H 3.194284 -0.251955 1.507332 0
M  V30 43 H 3.999939 2.571991 -0.824323 0
M  V30 44 H 2.618261 2.957567 -2.837306 0
M  V30 45 H 0.505716 1.722401 -3.222807 0
M  V30 46 H -1.572490 1.432778 -2.599670 0
M  V30 47 H -3.681385 0.075901 -2.850890 0
M  V30 48 H -5.452819 -1.644443 -2.820257 0
M  V30 49 H -7.986071 -4.518896 -2.616621 0
M  V30 50 H -6.800527 -2.332235 -4.575457 0
M  V30 51 H -8.394058 -3.217811 -4.787472 0
M  V30 52 H -7.711027 -1.368826 -2.466024 0
M  V30 53 H -9.256554 -2.381189 -2.600202 0
M  V30 54 H -1.426207 -4.076663 -0.275961 0
M  V30 55 H 0.236667 -1.875205 -0.543133 0
M  V30 56 H 1.124287 -0.353363 0.483301 0
M  V30 END ATOM
M  V30 BEGIN BOND
M  V30 1 1 1 2
M  V30 2 1 2 3
M  V30 3 1 2 4
M  V30 4 1 4 5
M  V30 5 2 5 6
M  V30 6 2 5 7
M  V30 7 1 5 8
M  V30 8 1 8 9
M  V30 9 1 9 10
M  V30 10 2 10 11
M  V30 11 1 11 12
M  V30 12 2 12 13
M  V30 13 1 13 14
M  V30 14 1 14 15
M  V30 15 2 15 16
M  V30 16 1 16 17
M  V30 17 2 17 18
M  V30 18 1 18 19
M  V30 19 1 19 20
M  V30 20 1 20 21
M  V30 21 2 21 22
M  V30 22 1 21 23
M  V30 23 1 23 24
M  V30 24 1 24 25
M  V30 25 2 19 26
M  V30 26 1 26 27
M  V30 27 1 27 28
M  V30 28 2 28 29
M  V30 29 2 14 30
M  V30 30 1 30 10
M  V30 31 1 29 15
M  V30 32 1 28 18
M  V30 33 1 25 23
M  V30 34 1 1 31
M  V30 35 1 1 32
M  V30 36 1 1 33
M  V30 37 1 2 34
M  V30 38 1 3 35
M  V30 39 1 3 36
M  V30 40 1 3 37
M  V30 41 1 4 38
M  V30 42 1 4 39
M  V30 43 1 8 40
M  V30 44 1 9 41
M  V30 45 1 9 42
M  V30 46 1 11 43
M  V30 47 1 12 44
M  V30 48 1 13 45
M  V30 49 1 16 46
M  V30 50 1 17 47
M  V30 51 1 20 48
M  V30 52 1 23 49
M  V30 53 1 24 50
M  V30 54 1 24 51
M  V30 55 1 25 52
M  V30 56 1 25 53
M  V30 57 1 27 54
M  V30 58 1 29 55
M  V30 59 1 30 56
M  V30 END BOND
M  V30 END CTAB
M  END
>  <Dataset>  (867) 
ChEMBL_Kinases

>  <Ligand_Instance>  (867) 
nan

>  <PDB_ID>  (867) 
nan

>  <Standardized_SMILES>  (867) 
CC(C)CS(=O)(=O)NCc1cccc(-c2ccc3c(NC(=O)C4CC4)n[nH]c3c2)c1

>  <Name>  (867) 
nan

>  <Pocket>  (867) 
nan

>  <ATP_Site>  (867) 
nan

>  <Peripheral>  (867) 
nan

>  <Num_H_Atoms_ProtBoundConf>  (867) 
nan

>  <Num_Resolved_Atoms>  (867) 
nan

>  <Num_Not_Resolved_Atoms>  (867) 
nan

$$$$
CHEMBL593375
     RDKit          3D

  0  0  0  0  0  0  0  0  0  0999 V3000
M  V30 BEGIN CTAB
M  V30 COUNTS 64 69 0 0 0
M  V30 BEGIN ATOM
M  V30 1 C 3.991552 -2.180744 3.046290 0
M  V30 2 C 4.313248 -1.234032 1.941174 0
M  V30 3 O 5.482401 -1.358849 1.330278 0
M  V30 4 C 5.566788 -0.428258 0.389190 0
M  V30 5 C 4.394856 0.318557 0.407907 0
M  V30 6 C 3.586483 -0.188614 1.396856 0
M  V30 7 C 2.263280 0.200340 1.849192 0
M  V30 8 N 1.942587 1.390220 2.441248 0
M  V30 9 C 0.657907 1.629202 2.821302 0
M  V30 10 N 0.647433 2.947119 3.403676 0
M  V30 11 C -0.406068 0.722681 2.650100 0
M  V30 12 O -1.509006 1.325699 3.152143 0
M  V30 13 C -2.778136 0.791418 3.177509 0
M  V30 14 C -3.408870 0.487192 1.863027 0 CFG=1
M  V30 15 N -4.737452 -0.066548 2.156364 0
M  V30 16 C -3.671759 1.756910 1.052444 0
M  V30 17 C -4.296978 1.317988 -0.229009 0
M  V30 18 C -5.587354 1.334457 -0.721141 0
M  V30 19 N -5.586794 0.803337 -1.956082 0
M  V30 20 C -4.326614 0.444376 -2.272872 0
M  V30 21 C -3.801805 -0.141537 -3.420517 0
M  V30 22 C -2.460049 -0.411768 -3.498502 0
M  V30 23 C -1.596824 -0.119479 -2.464093 0
M  V30 24 C -2.140240 0.460696 -1.337337 0
M  V30 25 C -3.488779 0.750731 -1.216087 0
M  V30 26 C -0.044137 -0.463722 2.051280 0
M  V30 27 C 1.252609 -0.717495 1.661828 0
M  V30 28 C 1.370009 -2.045185 1.050468 0
M  V30 29 C 1.079992 -3.244774 1.669976 0
M  V30 30 N 1.227487 -4.403199 0.998821 0
M  V30 31 C 1.651507 -4.478750 -0.274923 0
M  V30 32 N 1.870405 -5.499744 -1.130041 0
M  V30 33 N 2.297561 -4.980534 -2.293309 0
M  V30 34 C 2.345432 -3.630379 -2.164445 0
M  V30 35 C 2.782085 -2.742087 -3.281816 0
M  V30 36 C 1.943039 -3.263716 -0.895912 0
M  V30 37 C 1.814346 -2.043797 -0.268211 0
M  V30 38 H 4.858344 -2.237610 3.757691 0
M  V30 39 H 3.839478 -3.218374 2.696842 0
M  V30 40 H 3.135631 -1.818593 3.654130 0
M  V30 41 H 6.374823 -0.209070 -0.324668 0
M  V30 42 H 4.089921 1.152923 -0.198522 0
M  V30 43 H 0.714353 2.990701 4.460998 0
M  V30 44 H 0.571639 3.646301 2.629692 0
M  V30 45 H -3.483679 1.512480 3.696524 0
M  V30 46 H -2.861201 -0.132455 3.795428 0
M  V30 47 H -2.900093 -0.191423 1.196028 0
M  V30 48 H -4.592792 -1.094478 2.344046 0
M  V30 49 H -5.157256 0.322260 3.010832 0
M  V30 50 H -2.731996 2.274645 0.860057 0
M  V30 51 H -4.403844 2.346104 1.659644 0
M  V30 52 H -6.387893 1.731328 -0.126697 0
M  V30 53 H -6.451951 0.698974 -2.553779 0
M  V30 54 H -4.432157 -0.390933 -4.259701 0
M  V30 55 H -1.975420 -0.872126 -4.370444 0
M  V30 56 H -0.525487 -0.310967 -2.470474 0
M  V30 57 H -1.472598 0.698735 -0.510502 0
M  V30 58 H -0.910563 -1.100105 1.968346 0
M  V30 59 H 0.737023 -3.187959 2.698682 0
M  V30 60 H 1.732480 -6.525239 -0.927422 0
M  V30 61 H 2.924738 -1.708608 -2.941350 0
M  V30 62 H 2.063008 -2.706143 -4.111334 0
M  V30 63 H 3.744166 -3.113224 -3.730656 0
M  V30 64 H 2.071648 -1.180235 -0.856455 0
M  V30 END ATOM
M  V30 BEGIN BOND
M  V30 1 1 1 2
M  V30 2 1 2 3
M  V30 3 1 3 4
M  V30 4 2 4 5
M  V30 5 1 5 6
M  V30 6 1 6 7
M  V30 7 2 7 8
M  V30 8 1 8 9
M  V30 9 1 9 10
M  V30 10 2 9 11
M  V30 11 1 11 12
M  V30 12 1 12 13
M  V30 13 1 13 14
M  V30 14 1 14 15
M  V30 15 1 14 16
M  V30 16 1 16 17
M  V30 17 2 17 18
M  V30 18 1 18 19
M  V30 19 1 19 20
M  V30 20 2 20 21
M  V30 21 1 21 22
M  V30 22 2 22 23
M  V30 23 1 23 24
M  V30 24 2 24 25
M  V30 25 1 11 26
M  V30 26 2 26 27
M  V30 27 1 27 28
M  V30 28 2 28 29
M  V30 29 1 29 30
M  V30 30 2 30 31
M  V30 31 1 31 32
M  V30 32 1 32 33
M  V30 33 2 33 34
M  V30 34 1 34 35
M  V30 35 1 34 36
M  V30 36 2 36 37
M  V30 37 2 6 2
M  V30 38 1 27 7
M  V30 39 1 37 28
M  V30 40 1 25 17
M  V30 41 1 36 31
M  V30 42 1 25 20
M  V30 43 1 1 38
M  V30 44 1 1 39
M  V30 45 1 1 40
M  V30 46 1 4 41
M  V30 47 1 5 42
M  V30 48 1 10 43
M  V30 49 1 10 44
M  V30 50 1 13 45
M  V30 51 1 13 46
M  V30 52 1 14 47 CFG=3
M  V30 53 1 15 48
M  V30 54 1 15 49
M  V30 55 1 16 50
M  V30 56 1 16 51
M  V30 57 1 18 52
M  V30 58 1 19 53
M  V30 59 1 21 54
M  V30 60 1 22 55
M  V30 61 1 23 56
M  V30 62 1 24 57
M  V30 63 1 26 58
M  V30 64 1 29 59
M  V30 65 1 32 60
M  V30 66 1 35 61
M  V30 67 1 35 62
M  V30 68 1 35 63
M  V30 69 1 37 64
M  V30 END BOND
M  V30 END CTAB
M  END
>  <Dataset>  (868) 
ChEMBL_Kinases

>  <Ligand_Instance>  (868) 
nan

>  <PDB_ID>  (868) 
nan

>  <Standardized_SMILES>  (868) 
Cc1occc1-c1nc(N)c(OC[C@@H](N)Cc2c[nH]c3ccccc23)cc1-c1cnc2[nH]nc(C)c2c1

>  <Name>  (868) 
nan

>  <Pocket>  (868) 
nan

>  <ATP_Site>  (868) 
nan

>  <Peripheral>  (868) 
nan

>  <Num_H_Atoms_ProtBoundConf>  (868) 
nan

>  <Num_Resolved_Atoms>  (868) 
nan

>  <Num_Not_Resolved_Atoms>  (868) 
nan

$$$$
CHEMBL593374
     RDKit          3D

  0  0  0  0  0  0  0  0  0  0999 V3000
M  V30 BEGIN CTAB
M  V30 COUNTS 65 70 0 0 0
M  V30 BEGIN ATOM
M  V30 1 C 3.920923 1.142159 3.650500 0
M  V30 2 C 4.374777 -0.269016 3.709036 0
M  V30 3 O 5.267715 -0.798686 4.517636 0
M  V30 4 C 5.387247 -2.089728 4.248806 0
M  V30 5 C 4.527577 -2.422357 3.210073 0
M  V30 6 C 3.879699 -1.225374 2.874629 0
M  V30 7 C 2.892097 -1.231635 1.801338 0
M  V30 8 N 3.175705 -1.499449 0.493954 0
M  V30 9 C 2.212520 -1.486242 -0.448166 0
M  V30 10 N 2.636770 -1.779972 -1.765891 0
M  V30 11 C 0.880397 -1.207730 -0.187396 0
M  V30 12 O -0.087436 -1.202227 -1.182641 0
M  V30 13 C -1.408833 -0.900355 -0.769064 0
M  V30 14 C -2.402577 -0.912360 -1.902399 0 CFG=1
M  V30 15 N -3.701830 -0.592009 -1.359273 0
M  V30 16 C -2.000753 0.019607 -3.015369 0
M  V30 17 C -2.977561 0.009320 -4.129323 0
M  V30 18 C -3.916263 1.009273 -4.382841 0
M  V30 19 N -4.593296 0.594064 -5.483092 0
M  V30 20 C -4.142069 -0.581180 -5.922108 0
M  V30 21 C -4.532160 -1.360153 -6.991024 0
M  V30 22 C -3.887747 -2.543695 -7.217583 0
M  V30 23 C -2.853075 -2.994209 -6.411896 0
M  V30 24 C -2.497558 -2.173666 -5.348636 0
M  V30 25 C -3.118326 -0.975764 -5.083959 0
M  V30 26 C 0.613080 -0.938861 1.144725 0
M  V30 27 C 1.581880 -0.945609 2.129037 0
M  V30 28 C 1.096700 -0.635940 3.474024 0
M  V30 29 C 1.298768 -1.675789 4.359050 0
M  V30 30 C 0.899483 -1.565233 5.683122 0
M  V30 31 C 0.297132 -0.371740 6.057203 0
M  V30 32 N -0.200955 0.072508 7.227914 0
M  V30 33 N -0.684514 1.301173 7.101062 0
M  V30 34 C -0.524613 1.722462 5.832588 0
M  V30 35 C -0.893596 3.014904 5.169519 0
M  V30 36 C 0.090909 0.673392 5.178917 0
M  V30 37 C 0.494449 0.547219 3.863965 0
M  V30 38 H 3.201068 1.398280 4.432089 0
M  V30 39 H 4.844342 1.744187 3.901531 0
M  V30 40 H 3.643538 1.450983 2.623288 0
M  V30 41 H 6.102635 -2.618703 4.864017 0
M  V30 42 H 4.505819 -3.447050 2.868127 0
M  V30 43 H 2.979543 -1.224060 -2.574517 0
M  V30 44 H 2.583776 -2.823934 -1.948419 0
M  V30 45 H -1.447452 0.063348 -0.251840 0
M  V30 46 H -1.763852 -1.680398 -0.031415 0
M  V30 47 H -2.449682 -1.955893 -2.289304 0
M  V30 48 H -3.769376 -1.056395 -0.423308 0
M  V30 49 H -3.926938 0.418441 -1.344185 0
M  V30 50 H -1.018622 -0.318762 -3.381190 0
M  V30 51 H -1.846418 1.020134 -2.591106 0
M  V30 52 H -4.006198 1.891026 -3.771901 0
M  V30 53 H -5.351682 1.223143 -5.832416 0
M  V30 54 H -5.339271 -1.027189 -7.632570 0
M  V30 55 H -4.208604 -3.128904 -8.054869 0
M  V30 56 H -2.358963 -3.940318 -6.615275 0
M  V30 57 H -1.702502 -2.464618 -4.685215 0
M  V30 58 H -0.440595 -0.715338 1.365915 0
M  V30 59 H 1.765398 -2.626879 4.116428 0
M  V30 60 H 1.012297 -2.320812 6.454609 0
M  V30 61 H -0.215371 -0.461623 8.126233 0
M  V30 62 H -1.654810 3.486673 5.800176 0
M  V30 63 H -1.309902 2.823196 4.151975 0
M  V30 64 H 0.002913 3.667668 5.092856 0
M  V30 65 H 0.383181 1.288889 3.108637 0
M  V30 END ATOM
M  V30 BEGIN BOND
M  V30 1 1 1 2
M  V30 2 1 2 3
M  V30 3 1 3 4
M  V30 4 2 4 5
M  V30 5 1 5 6
M  V30 6 1 6 7
M  V30 7 2 7 8
M  V30 8 1 8 9
M  V30 9 1 9 10
M  V30 10 2 9 11
M  V30 11 1 11 12
M  V30 12 1 12 13
M  V30 13 1 13 14
M  V30 14 1 14 15
M  V30 15 1 14 16
M  V30 16 1 16 17
M  V30 17 2 17 18
M  V30 18 1 18 19
M  V30 19 1 19 20
M  V30 20 2 20 21
M  V30 21 1 21 22
M  V30 22 2 22 23
M  V30 23 1 23 24
M  V30 24 2 24 25
M  V30 25 1 11 26
M  V30 26 2 26 27
M  V30 27 1 27 28
M  V30 28 2 28 29
M  V30 29 1 29 30
M  V30 30 2 30 31
M  V30 31 1 31 32
M  V30 32 1 32 33
M  V30 33 2 33 34
M  V30 34 1 34 35
M  V30 35 1 34 36
M  V30 36 2 36 37
M  V30 37 2 6 2
M  V30 38 1 27 7
M  V30 39 1 37 28
M  V30 40 1 25 17
M  V30 41 1 36 31
M  V30 42 1 25 20
M  V30 43 1 1 38
M  V30 44 1 1 39
M  V30 45 1 1 40
M  V30 46 1 4 41
M  V30 47 1 5 42
M  V30 48 1 10 43
M  V30 49 1 10 44
M  V30 50 1 13 45
M  V30 51 1 13 46
M  V30 52 1 14 47 CFG=3
M  V30 53 1 15 48
M  V30 54 1 15 49
M  V30 55 1 16 50
M  V30 56 1 16 51
M  V30 57 1 18 52
M  V30 58 1 19 53
M  V30 59 1 21 54
M  V30 60 1 22 55
M  V30 61 1 23 56
M  V30 62 1 24 57
M  V30 63 1 26 58
M  V30 64 1 29 59
M  V30 65 1 30 60
M  V30 66 1 32 61
M  V30 67 1 35 62
M  V30 68 1 35 63
M  V30 69 1 35 64
M  V30 70 1 37 65
M  V30 END BOND
M  V30 END CTAB
M  END
>  <Dataset>  (869) 
ChEMBL_Kinases

>  <Ligand_Instance>  (869) 
nan

>  <PDB_ID>  (869) 
nan

>  <Standardized_SMILES>  (869) 
Cc1occc1-c1nc(N)c(OC[C@@H](N)Cc2c[nH]c3ccccc23)cc1-c1ccc2[nH]nc(C)c2c1

>  <Name>  (869) 
nan

>  <Pocket>  (869) 
nan

>  <ATP_Site>  (869) 
nan

>  <Peripheral>  (869) 
nan

>  <Num_H_Atoms_ProtBoundConf>  (869) 
nan

>  <Num_Resolved_Atoms>  (869) 
nan

>  <Num_Not_Resolved_Atoms>  (869) 
nan

$$$$
CHEMBL3904942
     RDKit          3D

  0  0  0  0  0  0  0  0  0  0999 V3000
M  V30 BEGIN CTAB
M  V30 COUNTS 47 50 0 0 0
M  V30 BEGIN ATOM
M  V30 1 C 2.028865 -2.039597 4.825759 0
M  V30 2 N 2.364234 -1.242426 3.655883 0
M  V30 3 C 3.742777 -0.995016 3.341345 0
M  V30 4 O 4.537817 -1.320163 4.286414 0
M  V30 5 C 4.332333 -0.437336 2.119732 0
M  V30 6 C 5.663932 -0.788728 2.032564 0
M  V30 7 C 6.352077 -0.342728 0.945037 0
M  V30 8 C 5.708081 0.425382 -0.005122 0
M  V30 9 C 4.377167 0.780160 0.076394 0
M  V30 10 C 3.660552 0.328064 1.187477 0
M  V30 11 N 2.283796 0.757477 1.164774 0
M  V30 12 C 2.039232 1.946377 0.375448 0
M  V30 13 C 1.209012 0.102179 1.837557 0
M  V30 14 N 0.063814 0.476673 1.219436 0
M  V30 15 C -1.115272 -0.006279 1.649176 0
M  V30 16 N -2.451605 0.207346 1.224793 0
M  V30 17 C -2.958456 -0.496529 0.098034 0
M  V30 18 C -2.127092 -1.277420 -0.696323 0
M  V30 19 C -2.535446 -1.997251 -1.805556 0
M  V30 20 C -3.859171 -1.928398 -2.135425 0
M  V30 21 C -4.709591 -1.173708 -1.382247 0
M  V30 22 S -6.411708 -1.095906 -1.805656 0
M  V30 23 N -6.709293 0.260798 -2.827320 0
M  V30 24 O -6.813492 -2.381554 -2.478439 0
M  V30 25 O -7.208140 -0.947493 -0.528439 0
M  V30 26 C -4.305536 -0.459349 -0.283290 0
M  V30 27 N -1.096356 -0.863197 2.703859 0
M  V30 28 C 0.028757 -1.248215 3.332519 0
M  V30 29 C 1.250254 -0.765872 2.909535 0
M  V30 30 H 1.670095 -3.039080 4.564439 0
M  V30 31 H 2.986708 -2.238367 5.395097 0
M  V30 32 H 1.414375 -1.493894 5.570621 0
M  V30 33 H 6.119031 -1.392604 2.806467 0
M  V30 34 H 7.413854 -0.594016 0.826449 0
M  V30 35 H 6.262636 0.774359 -0.865735 0
M  V30 36 H 3.836899 1.372587 -0.634803 0
M  V30 37 H 1.831708 1.718059 -0.688309 0
M  V30 38 H 1.119003 2.440508 0.755818 0
M  V30 39 H 2.840422 2.726639 0.507891 0
M  V30 40 H -3.149684 0.868273 1.683674 0
M  V30 41 H -1.067786 -1.358600 -0.468584 0
M  V30 42 H -1.837745 -2.590479 -2.389629 0
M  V30 43 H -4.212292 -2.491401 -3.013750 0
M  V30 44 H -5.819803 0.642819 -3.183711 0
M  V30 45 H -7.209132 1.013189 -2.317989 0
M  V30 46 H -4.944956 0.160576 0.355592 0
M  V30 47 H -0.004788 -1.940130 4.180141 0
M  V30 END ATOM
M  V30 BEGIN BOND
M  V30 1 1 1 2
M  V30 2 1 2 3
M  V30 3 2 3 4
M  V30 4 1 3 5
M  V30 5 2 5 6
M  V30 6 1 6 7
M  V30 7 2 7 8
M  V30 8 1 8 9
M  V30 9 2 9 10
M  V30 10 1 10 11
M  V30 11 1 11 12
M  V30 12 1 11 13
M  V30 13 2 13 14
M  V30 14 1 14 15
M  V30 15 1 15 16
M  V30 16 1 16 17
M  V30 17 2 17 18
M  V30 18 1 18 19
M  V30 19 2 19 20
M  V30 20 1 20 21
M  V30 21 1 21 22
M  V30 22 1 22 23
M  V30 23 2 22 24
M  V30 24 2 22 25
M  V30 25 2 21 26
M  V30 26 2 15 27
M  V30 27 1 27 28
M  V30 28 2 28 29
M  V30 29 1 29 2
M  V30 30 1 10 5
M  V30 31 1 29 13
M  V30 32 1 26 17
M  V30 33 1 1 30
M  V30 34 1 1 31
M  V30 35 1 1 32
M  V30 36 1 6 33
M  V30 37 1 7 34
M  V30 38 1 8 35
M  V30 39 1 9 36
M  V30 40 1 12 37
M  V30 41 1 12 38
M  V30 42 1 12 39
M  V30 43 1 16 40
M  V30 44 1 18 41
M  V30 45 1 19 42
M  V30 46 1 20 43
M  V30 47 1 23 44
M  V30 48 1 23 45
M  V30 49 1 26 46
M  V30 50 1 28 47
M  V30 END BOND
M  V30 END CTAB
M  END
>  <Dataset>  (870) 
ChEMBL_Kinases

>  <Ligand_Instance>  (870) 
nan

>  <PDB_ID>  (870) 
nan

>  <Standardized_SMILES>  (870) 
CN1C(=O)c2ccccc2N(C)c2nc(Nc3cccc(S(N)(=O)=O)c3)ncc21

>  <Name>  (870) 
nan

>  <Pocket>  (870) 
nan

>  <ATP_Site>  (870) 
nan

>  <Peripheral>  (870) 
nan

>  <Num_H_Atoms_ProtBoundConf>  (870) 
nan

>  <Num_Resolved_Atoms>  (870) 
nan

>  <Num_Not_Resolved_Atoms>  (870) 
nan

$$$$
CHEMBL467069
     RDKit          3D

  0  0  0  0  0  0  0  0  0  0999 V3000
M  V30 BEGIN CTAB
M  V30 COUNTS 65 69 0 0 0
M  V30 BEGIN ATOM
M  V30 1 C 2.915745 2.874662 4.118662 0
M  V30 2 C 1.586702 2.264475 4.113956 0
M  V30 3 C 1.513926 0.982255 3.613228 0
M  V30 4 N 2.510178 0.151430 3.088717 0
M  V30 5 C 3.477227 0.173962 2.052312 0
M  V30 6 C 4.837862 0.415289 2.276480 0
M  V30 7 C 5.316808 0.603967 3.615013 0
M  V30 8 N 5.698544 0.739006 4.706595 0
M  V30 9 C 5.798200 0.473055 1.295419 0
M  V30 10 N 5.413787 0.286084 0.035362 0
M  V30 11 C 4.144926 0.050571 -0.269601 0
M  V30 12 C 3.199235 -0.004495 0.715627 0
M  V30 13 C 1.857320 -0.291055 0.235865 0
M  V30 14 C 1.293855 0.422110 -0.828391 0
M  V30 15 C 0.009501 0.144790 -1.309054 0
M  V30 16 C -0.729991 -0.865785 -0.716115 0
M  V30 17 O -2.026812 -1.230944 -1.113561 0
M  V30 18 C -2.702089 -0.587440 -2.169250 0
M  V30 19 C -4.063702 -1.171787 -2.384828 0
M  V30 20 N -4.107597 -2.551960 -2.714800 0
M  V30 21 C -3.718169 -3.469166 -1.696047 0
M  V30 22 C -2.588090 -4.387037 -2.095697 0
M  V30 23 N -2.962924 -5.097990 -3.277796 0
M  V30 24 C -1.727328 -5.450546 -3.992801 0
M  V30 25 C -3.886953 -4.428790 -4.138195 0
M  V30 26 C -3.759797 -2.908112 -4.050921 0
M  V30 27 C -0.227304 -1.602564 0.335902 0
M  V30 28 C 1.043090 -1.271474 0.753408 0
M  V30 29 C 0.249784 0.394258 3.601549 0
M  V30 30 C -0.859302 1.074627 4.069882 0
M  V30 31 C -0.728783 2.361096 4.561972 0
M  V30 32 N -1.567062 3.300334 5.085977 0
M  V30 33 C -0.894328 4.414542 5.413161 0
M  V30 34 C 0.442427 4.252650 5.112280 0
M  V30 35 C 0.504087 2.971743 4.588658 0
M  V30 36 H 3.459279 2.801446 3.152337 0
M  V30 37 H 2.815937 3.949059 4.372591 0
M  V30 38 H 3.509017 2.450552 4.980714 0
M  V30 39 H 2.637865 -0.778811 3.545095 0
M  V30 40 H 6.831630 0.661269 1.511609 0
M  V30 41 H 3.936533 -0.087894 -1.323554 0
M  V30 42 H 1.856283 1.223355 -1.312634 0
M  V30 43 H -0.435307 0.684339 -2.124804 0
M  V30 44 H -2.878339 0.467365 -1.810820 0
M  V30 45 H -2.097105 -0.482147 -3.082340 0
M  V30 46 H -4.621863 -1.027245 -1.430077 0
M  V30 47 H -4.553159 -0.595997 -3.186187 0
M  V30 48 H -4.597638 -4.154848 -1.519434 0
M  V30 49 H -3.531339 -2.984817 -0.719322 0
M  V30 50 H -2.489720 -5.148984 -1.273520 0
M  V30 51 H -1.640666 -3.847846 -2.257677 0
M  V30 52 H -1.306717 -6.345177 -3.520699 0
M  V30 53 H -1.039508 -4.611768 -3.819911 0
M  V30 54 H -1.966996 -5.593889 -5.074762 0
M  V30 55 H -3.647806 -4.707846 -5.180239 0
M  V30 56 H -4.933568 -4.751112 -3.946645 0
M  V30 57 H -2.771444 -2.613162 -4.397283 0
M  V30 58 H -4.547668 -2.512372 -4.723984 0
M  V30 59 H -0.770250 -2.398917 0.826261 0
M  V30 60 H 1.458845 -1.837067 1.579178 0
M  V30 61 H -0.091834 -0.585108 3.276274 0
M  V30 62 H -1.886582 0.741335 4.117818 0
M  V30 63 H -2.596345 3.162792 5.212828 0
M  V30 64 H -1.300829 5.327516 5.850153 0
M  V30 65 H 1.255258 4.956413 5.250856 0
M  V30 END ATOM
M  V30 BEGIN BOND
M  V30 1 1 1 2
M  V30 2 2 2 3
M  V30 3 1 3 4
M  V30 4 1 4 5
M  V30 5 2 5 6
M  V30 6 1 6 7
M  V30 7 3 7 8
M  V30 8 1 6 9
M  V30 9 2 9 10
M  V30 10 1 10 11
M  V30 11 2 11 12
M  V30 12 1 12 13
M  V30 13 2 13 14
M  V30 14 1 14 15
M  V30 15 2 15 16
M  V30 16 1 16 17
M  V30 17 1 17 18
M  V30 18 1 18 19
M  V30 19 1 19 20
M  V30 20 1 20 21
M  V30 21 1 21 22
M  V30 22 1 22 23
M  V30 23 1 23 24
M  V30 24 1 23 25
M  V30 25 1 25 26
M  V30 26 1 16 27
M  V30 27 2 27 28
M  V30 28 1 3 29
M  V30 29 2 29 30
M  V30 30 1 30 31
M  V30 31 1 31 32
M  V30 32 1 32 33
M  V30 33 2 33 34
M  V30 34 1 34 35
M  V30 35 1 35 2
M  V30 36 1 12 5
M  V30 37 1 28 13
M  V30 38 2 35 31
M  V30 39 1 26 20
M  V30 40 1 1 36
M  V30 41 1 1 37
M  V30 42 1 1 38
M  V30 43 1 4 39
M  V30 44 1 9 40
M  V30 45 1 11 41
M  V30 46 1 14 42
M  V30 47 1 15 43
M  V30 48 1 18 44
M  V30 49 1 18 45
M  V30 50 1 19 46
M  V30 51 1 19 47
M  V30 52 1 21 48
M  V30 53 1 21 49
M  V30 54 1 22 50
M  V30 55 1 22 51
M  V30 56 1 24 52
M  V30 57 1 24 53
M  V30 58 1 24 54
M  V30 59 1 25 55
M  V30 60 1 25 56
M  V30 61 1 26 57
M  V30 62 1 26 58
M  V30 63 1 27 59
M  V30 64 1 28 60
M  V30 65 1 29 61
M  V30 66 1 30 62
M  V30 67 1 32 63
M  V30 68 1 33 64
M  V30 69 1 34 65
M  V30 END BOND
M  V30 END CTAB
M  END
>  <Dataset>  (871) 
ChEMBL_Kinases

>  <Ligand_Instance>  (871) 
nan

>  <PDB_ID>  (871) 
nan

>  <Standardized_SMILES>  (871) 
Cc1c(Nc2c(C#N)cncc2-c2ccc(OCCN3CCN(C)CC3)cc2)ccc2[nH]ccc12

>  <Name>  (871) 
nan

>  <Pocket>  (871) 
nan

>  <ATP_Site>  (871) 
nan

>  <Peripheral>  (871) 
nan

>  <Num_H_Atoms_ProtBoundConf>  (871) 
nan

>  <Num_Resolved_Atoms>  (871) 
nan

>  <Num_Not_Resolved_Atoms>  (871) 
nan

$$$$
CHEMBL4516665
     RDKit          3D

  0  0  0  0  0  0  0  0  0  0999 V3000
M  V30 BEGIN CTAB
M  V30 COUNTS 48 52 0 0 0
M  V30 BEGIN ATOM
M  V30 1 O -1.202503 -4.838637 0.779107 0
M  V30 2 C -0.410327 -5.703670 0.310229 0
M  V30 3 N 0.981724 -5.418024 0.379560 0
M  V30 4 C 1.130336 -4.134693 1.006636 0
M  V30 5 N 1.258629 -3.972789 2.339853 0
M  V30 6 N 1.377850 -2.680433 2.624825 0
M  V30 7 C 1.326360 -1.987099 1.456338 0
M  V30 8 C 1.396238 -0.640888 1.131521 0
M  V30 9 C 1.308147 -0.248691 -0.204903 0
M  V30 10 C 1.378081 1.161924 -0.578197 0
M  V30 11 C 1.914340 1.559147 -1.784503 0
M  V30 12 C 1.997492 2.879247 -2.172320 0
M  V30 13 C 1.501957 3.785295 -1.260923 0
M  V30 14 C 0.942253 3.471783 -0.018322 0
M  V30 15 N 0.478556 4.543384 0.785124 0
M  V30 16 S -0.998431 4.732556 1.656324 0
M  V30 17 O -1.119034 6.104659 2.227443 0
M  V30 18 O -2.150228 4.584555 0.673659 0
M  V30 19 C -1.245539 3.530145 2.910702 0
M  V30 20 C -2.277219 3.921944 3.969360 0
M  V30 21 C -0.845562 3.842661 4.315135 0
M  V30 22 C 0.907974 2.143945 0.266871 0
M  V30 23 C 1.150697 -1.177995 -1.231097 0
M  V30 24 C 1.079430 -2.523133 -0.922759 0
M  V30 25 C 1.169740 -2.887105 0.415342 0
M  V30 26 C -1.067152 -6.914722 -0.254913 0
M  V30 27 C -2.324470 -7.414312 0.424674 0
M  V30 28 C -2.411138 -6.727931 -0.900415 0
M  V30 29 H 1.593112 -6.160243 -0.019103 0
M  V30 30 H 1.494674 -2.169831 3.535549 0
M  V30 31 H 1.519213 0.097615 1.922376 0
M  V30 32 H 2.274815 0.787043 -2.429694 0
M  V30 33 H 2.411171 3.211165 -3.106713 0
M  V30 34 H 1.558309 4.840873 -1.549419 0
M  V30 35 H 1.164848 5.332613 0.841534 0
M  V30 36 H -1.300080 2.453286 2.657994 0
M  V30 37 H -2.969390 3.155135 4.361680 0
M  V30 38 H -2.798089 4.909731 3.858076 0
M  V30 39 H -0.530709 2.990202 4.958158 0
M  V30 40 H -0.293941 4.793753 4.439475 0
M  V30 41 H 0.489757 1.852745 1.208889 0
M  V30 42 H 1.080096 -0.902215 -2.270057 0
M  V30 43 H 0.956070 -3.289378 -1.694103 0
M  V30 44 H -0.455218 -7.716591 -0.684230 0
M  V30 45 H -2.651953 -6.863382 1.354035 0
M  V30 46 H -2.534469 -8.495801 0.434148 0
M  V30 47 H -2.816016 -5.694997 -0.865651 0
M  V30 48 H -2.696376 -7.290059 -1.802569 0
M  V30 END ATOM
M  V30 BEGIN BOND
M  V30 1 2 1 2
M  V30 2 1 2 3
M  V30 3 1 3 4
M  V30 4 2 4 5
M  V30 5 1 5 6
M  V30 6 1 6 7
M  V30 7 2 7 8
M  V30 8 1 8 9
M  V30 9 1 9 10
M  V30 10 2 10 11
M  V30 11 1 11 12
M  V30 12 2 12 13
M  V30 13 1 13 14
M  V30 14 1 14 15
M  V30 15 1 15 16
M  V30 16 2 16 17
M  V30 17 2 16 18
M  V30 18 1 16 19
M  V30 19 1 19 20
M  V30 20 1 20 21
M  V30 21 2 14 22
M  V30 22 2 9 23
M  V30 23 1 23 24
M  V30 24 2 24 25
M  V30 25 1 2 26
M  V30 26 1 26 27
M  V30 27 1 27 28
M  V30 28 1 25 4
M  V30 29 1 28 26
M  V30 30 1 25 7
M  V30 31 1 22 10
M  V30 32 1 21 19
M  V30 33 1 3 29
M  V30 34 1 6 30
M  V30 35 1 8 31
M  V30 36 1 11 32
M  V30 37 1 12 33
M  V30 38 1 13 34
M  V30 39 1 15 35
M  V30 40 1 19 36
M  V30 41 1 20 37
M  V30 42 1 20 38
M  V30 43 1 21 39
M  V30 44 1 21 40
M  V30 45 1 22 41
M  V30 46 1 23 42
M  V30 47 1 24 43
M  V30 48 1 26 44
M  V30 49 1 27 45
M  V30 50 1 27 46
M  V30 51 1 28 47
M  V30 52 1 28 48
M  V30 END BOND
M  V30 END CTAB
M  END
>  <Dataset>  (872) 
ChEMBL_Kinases

>  <Ligand_Instance>  (872) 
nan

>  <PDB_ID>  (872) 
nan

>  <Standardized_SMILES>  (872) 
O=C(Nc1n[nH]c2cc(-c3cccc(NS(=O)(=O)C4CC4)c3)ccc12)C1CC1

>  <Name>  (872) 
nan

>  <Pocket>  (872) 
nan

>  <ATP_Site>  (872) 
nan

>  <Peripheral>  (872) 
nan

>  <Num_H_Atoms_ProtBoundConf>  (872) 
nan

>  <Num_Resolved_Atoms>  (872) 
nan

>  <Num_Not_Resolved_Atoms>  (872) 
nan

$$$$
CHEMBL2048872
     RDKit          3D

  0  0  0  0  0  0  0  0  0  0999 V3000
M  V30 BEGIN CTAB
M  V30 COUNTS 48 51 0 0 0
M  V30 BEGIN ATOM
M  V30 1 N 1.093714 -4.322377 -0.033761 0
M  V30 2 C 0.330120 -3.075996 -0.131680 0 CFG=2
M  V30 3 C -0.130504 -2.796492 -1.521218 0
M  V30 4 C 0.346611 -1.518652 -2.121194 0
M  V30 5 C 0.400168 -0.332612 -1.226390 0
M  V30 6 N 0.432686 -0.703536 0.144481 0
M  V30 7 C -0.090043 -0.075791 1.297982 0
M  V30 8 C 0.829104 0.805890 1.885601 0
M  V30 9 C 2.183565 1.089689 1.421724 0
M  V30 10 C 2.645992 2.331662 1.453971 0
M  V30 11 S 1.986265 3.923090 1.966552 0
M  V30 12 C 3.274117 4.893449 1.127346 0
M  V30 13 O 2.716624 6.013184 1.145759 0
M  V30 14 N 4.304423 3.970946 0.835962 0
M  V30 15 C 3.978607 2.628923 1.006088 0
M  V30 16 O 4.961061 1.858433 0.723194 0
M  V30 17 C 0.453939 1.485437 3.035577 0
M  V30 18 C -0.768806 1.364506 3.659957 0
M  V30 19 C -1.657068 0.475458 3.042881 0
M  V30 20 C -1.318357 -0.214677 1.902078 0
M  V30 21 C -2.300359 -1.104892 1.310077 0
M  V30 22 C -2.799621 -1.204352 0.032964 0
M  V30 23 C -3.729488 -2.144634 -0.350175 0
M  V30 24 C -4.183234 -3.033580 0.600825 0
M  V30 25 C -3.709185 -2.963247 1.878177 0
M  V30 26 C -2.763238 -2.010517 2.279084 0
M  V30 27 C 1.149102 -1.938459 0.402279 0
M  V30 28 H 1.513734 -4.294073 0.930898 0
M  V30 29 H 0.390757 -5.111481 0.016539 0
M  V30 30 H -0.534809 -3.233151 0.559825 0
M  V30 31 H 0.291312 -3.630400 -2.164598 0
M  V30 32 H -1.243589 -2.942424 -1.652472 0
M  V30 33 H 1.301453 -1.703914 -2.664968 0
M  V30 34 H -0.404198 -1.270100 -2.933967 0
M  V30 35 H -0.340097 0.460541 -1.462305 0
M  V30 36 H 1.394971 0.171507 -1.428220 0
M  V30 37 H 2.778083 0.263138 1.061209 0
M  V30 38 H 5.116537 4.557377 0.541923 0
M  V30 39 H 1.096306 2.195843 3.580279 0
M  V30 40 H -1.074669 1.876828 4.542771 0
M  V30 41 H -2.638802 0.320125 3.468835 0
M  V30 42 H -2.381116 -0.456913 -0.617257 0
M  V30 43 H -4.031704 -2.098404 -1.403840 0
M  V30 44 H -4.908279 -3.743250 0.234783 0
M  V30 45 H -4.157016 -3.726100 2.510367 0
M  V30 46 H -2.543205 -2.152708 3.329291 0
M  V30 47 H 2.096851 -1.942973 -0.188936 0
M  V30 48 H 1.385310 -2.107532 1.466427 0
M  V30 END ATOM
M  V30 BEGIN BOND
M  V30 1 1 1 2
M  V30 2 1 2 3
M  V30 3 1 3 4
M  V30 4 1 4 5
M  V30 5 1 5 6
M  V30 6 1 6 7
M  V30 7 1 7 8
M  V30 8 1 8 9
M  V30 9 2 9 10
M  V30 10 1 10 11
M  V30 11 1 11 12
M  V30 12 2 12 13
M  V30 13 1 12 14
M  V30 14 1 14 15
M  V30 15 2 15 16
M  V30 16 2 8 17
M  V30 17 1 17 18
M  V30 18 2 18 19
M  V30 19 1 19 20
M  V30 20 1 20 21
M  V30 21 2 21 22
M  V30 22 1 22 23
M  V30 23 2 23 24
M  V30 24 1 24 25
M  V30 25 2 25 26
M  V30 26 1 6 27
M  V30 27 1 27 2
M  V30 28 2 20 7
M  V30 29 1 26 21
M  V30 30 1 15 10
M  V30 31 1 1 28
M  V30 32 1 1 29
M  V30 33 1 2 30 CFG=1
M  V30 34 1 3 31
M  V30 35 1 3 32
M  V30 36 1 4 33
M  V30 37 1 4 34
M  V30 38 1 5 35
M  V30 39 1 5 36
M  V30 40 1 9 37
M  V30 41 1 14 38
M  V30 42 1 17 39
M  V30 43 1 18 40
M  V30 44 1 19 41
M  V30 45 1 22 42
M  V30 46 1 23 43
M  V30 47 1 24 44
M  V30 48 1 25 45
M  V30 49 1 26 46
M  V30 50 1 27 47
M  V30 51 1 27 48
M  V30 END BOND
M  V30 END CTAB
M  END
>  <Dataset>  (873) 
ChEMBL_Kinases

>  <Ligand_Instance>  (873) 
nan

>  <PDB_ID>  (873) 
nan

>  <Standardized_SMILES>  (873) 
N[C@@H]1CCCN(c2c(/C=C3\SC(=O)NC3=O)cccc2-c2ccccc2)C1

>  <Name>  (873) 
nan

>  <Pocket>  (873) 
nan

>  <ATP_Site>  (873) 
nan

>  <Peripheral>  (873) 
nan

>  <Num_H_Atoms_ProtBoundConf>  (873) 
nan

>  <Num_Resolved_Atoms>  (873) 
nan

>  <Num_Not_Resolved_Atoms>  (873) 
nan

$$$$
CHEMBL5085430
     RDKit          3D

  0  0  0  0  0  0  0  0  0  0999 V3000
M  V30 BEGIN CTAB
M  V30 COUNTS 63 66 0 0 0
M  V30 BEGIN ATOM
M  V30 1 O -0.249917 -3.064563 4.175415 0
M  V30 2 C -0.346234 -1.865951 3.745086 0
M  V30 3 N 0.876967 -1.125913 3.651635 0
M  V30 4 C 2.137251 -1.687758 4.016179 0
M  V30 5 C 3.238338 -0.672513 3.806688 0
M  V30 6 C 3.269371 -0.287201 2.366729 0
M  V30 7 N 3.523136 -1.434658 1.494365 0
M  V30 8 C 3.572314 -1.229068 0.087798 0
M  V30 9 N 3.392590 -0.028624 -0.447612 0
M  V30 10 C 3.418908 0.258527 -1.762523 0
M  V30 11 N 3.202989 1.612089 -2.143426 0
M  V30 12 C 1.855376 2.041756 -2.327611 0
M  V30 13 C 1.597648 3.332028 -2.729761 0
M  V30 14 C 0.280169 3.701541 -2.888376 0
M  V30 15 C -0.751226 2.821189 -2.656241 0
M  V30 16 C -0.542177 1.520646 -2.252637 0
M  V30 17 N -1.637193 0.669891 -2.026637 0
M  V30 18 C -1.692320 -0.673473 -1.625026 0
M  V30 19 O -0.606843 -1.269193 -1.419311 0
M  V30 20 N -2.908587 -1.387219 -1.441368 0
M  V30 21 C -4.313435 -1.046315 -1.576655 0
M  V30 22 C -4.816545 -2.171049 -2.455439 0
M  V30 23 C -4.175211 -3.376544 -1.802922 0
M  V30 24 C -3.046254 -2.769938 -1.031911 0
M  V30 25 C 0.783737 1.203194 -2.109609 0
M  V30 26 N 3.647675 -0.762382 -2.605435 0
M  V30 27 C 3.845021 -2.019746 -2.196980 0
M  V30 28 C 3.805913 -2.252230 -0.827958 0
M  V30 29 Br 4.079393 -4.033228 -0.146685 0
M  V30 30 C -1.665589 -1.276033 3.362572 0
M  V30 31 C -2.046666 -0.056704 4.156415 0
M  V30 32 C -3.300077 -0.773047 4.616764 0
M  V30 33 C -2.831945 -2.031912 3.919129 0
M  V30 34 H 0.726338 -0.149283 3.293110 0
M  V30 35 H 2.407038 -2.577806 3.407029 0
M  V30 36 H 2.155598 -2.014522 5.093036 0
M  V30 37 H 2.973147 0.249525 4.379066 0
M  V30 38 H 4.224378 -1.056296 4.128544 0
M  V30 39 H 2.299322 0.140630 2.048824 0
M  V30 40 H 4.038783 0.476749 2.130061 0
M  V30 41 H 3.676055 -2.419906 1.818198 0
M  V30 42 H 3.977458 2.268702 -2.284783 0
M  V30 43 H 2.361893 4.052367 -2.922671 0
M  V30 44 H 0.013973 4.706836 -3.204074 0
M  V30 45 H -1.781772 3.173443 -2.799357 0
M  V30 46 H -2.603654 1.070995 -2.172621 0
M  V30 47 H -4.475722 -0.042045 -2.009277 0
M  V30 48 H -4.791270 -1.161757 -0.579435 0
M  V30 49 H -5.921821 -2.233944 -2.454402 0
M  V30 50 H -4.368900 -2.036268 -3.460575 0
M  V30 51 H -4.914399 -3.782710 -1.072725 0
M  V30 52 H -3.871907 -4.141724 -2.546035 0
M  V30 53 H -3.214529 -2.791015 0.071157 0
M  V30 54 H -2.122131 -3.361014 -1.284163 0
M  V30 55 H 1.060628 0.208653 -1.796894 0
M  V30 56 H 4.028336 -2.828635 -2.901703 0
M  V30 57 H -1.675509 -1.126134 2.249610 0
M  V30 58 H -2.340454 0.773505 3.459345 0
M  V30 59 H -1.341008 0.252411 4.947765 0
M  V30 60 H -3.367033 -0.890228 5.703332 0
M  V30 61 H -4.261498 -0.362462 4.188056 0
M  V30 62 H -2.601440 -2.895323 4.584436 0
M  V30 63 H -3.541940 -2.300908 3.082788 0
M  V30 END ATOM
M  V30 BEGIN BOND
M  V30 1 2 1 2
M  V30 2 1 2 3
M  V30 3 1 3 4
M  V30 4 1 4 5
M  V30 5 1 5 6
M  V30 6 1 6 7
M  V30 7 1 7 8
M  V30 8 2 8 9
M  V30 9 1 9 10
M  V30 10 1 10 11
M  V30 11 1 11 12
M  V30 12 2 12 13
M  V30 13 1 13 14
M  V30 14 2 14 15
M  V30 15 1 15 16
M  V30 16 1 16 17
M  V30 17 1 17 18
M  V30 18 2 18 19
M  V30 19 1 18 20
M  V30 20 1 20 21
M  V30 21 1 21 22
M  V30 22 1 22 23
M  V30 23 1 23 24
M  V30 24 2 16 25
M  V30 25 2 10 26
M  V30 26 1 26 27
M  V30 27 2 27 28
M  V30 28 1 28 29
M  V30 29 1 2 30
M  V30 30 1 30 31
M  V30 31 1 31 32
M  V30 32 1 32 33
M  V30 33 1 28 8
M  V30 34 1 33 30
M  V30 35 1 25 12
M  V30 36 1 24 20
M  V30 37 1 3 34
M  V30 38 1 4 35
M  V30 39 1 4 36
M  V30 40 1 5 37
M  V30 41 1 5 38
M  V30 42 1 6 39
M  V30 43 1 6 40
M  V30 44 1 7 41
M  V30 45 1 11 42
M  V30 46 1 13 43
M  V30 47 1 14 44
M  V30 48 1 15 45
M  V30 49 1 17 46
M  V30 50 1 21 47
M  V30 51 1 21 48
M  V30 52 1 22 49
M  V30 53 1 22 50
M  V30 54 1 23 51
M  V30 55 1 23 52
M  V30 56 1 24 53
M  V30 57 1 24 54
M  V30 58 1 25 55
M  V30 59 1 27 56
M  V30 60 1 30 57
M  V30 61 1 31 58
M  V30 62 1 31 59
M  V30 63 1 32 60
M  V30 64 1 32 61
M  V30 65 1 33 62
M  V30 66 1 33 63
M  V30 END BOND
M  V30 END CTAB
M  END
>  <Dataset>  (874) 
ChEMBL_Kinases

>  <Ligand_Instance>  (874) 
nan

>  <PDB_ID>  (874) 
nan

>  <Standardized_SMILES>  (874) 
O=C(NCCCNc1nc(Nc2cccc(NC(=O)N3CCCC3)c2)ncc1Br)C1CCC1

>  <Name>  (874) 
nan

>  <Pocket>  (874) 
nan

>  <ATP_Site>  (874) 
nan

>  <Peripheral>  (874) 
nan

>  <Num_H_Atoms_ProtBoundConf>  (874) 
nan

>  <Num_Resolved_Atoms>  (874) 
nan

>  <Num_Not_Resolved_Atoms>  (874) 
nan

$$$$
CHEMBL388566
     RDKit          3D

  0  0  0  0  0  0  0  0  0  0999 V3000
M  V30 BEGIN CTAB
M  V30 COUNTS 37 40 0 0 0
M  V30 BEGIN ATOM
M  V30 1 O -0.133810 -3.642141 3.937394 0
M  V30 2 C 0.652587 -4.108519 3.043342 0
M  V30 3 N 1.279224 -5.406607 3.123010 0
M  V30 4 C 1.581560 -5.955837 1.821057 0
M  V30 5 C 2.404024 -5.035305 0.956418 0
M  V30 6 C 1.784071 -3.691631 0.826845 0
M  V30 7 N 1.838024 -2.714839 -0.096975 0
M  V30 8 C 1.059787 -1.694006 0.309594 0
M  V30 9 C 0.857189 -0.446370 -0.424088 0
M  V30 10 C 1.502215 -0.273565 -1.631864 0
M  V30 11 C 1.234857 0.943962 -2.233555 0
M  V30 12 N 0.426899 1.894531 -1.718572 0
M  V30 13 C -0.193070 1.710074 -0.542010 0
M  V30 14 C -1.051835 2.780098 -0.045738 0
M  V30 15 C -1.178212 3.918974 -0.811879 0
M  V30 16 C -1.979756 4.985715 -0.406831 0
M  V30 17 C -2.661260 4.881826 0.801921 0
M  V30 18 C -2.540030 3.741769 1.577524 0
M  V30 19 C -1.734498 2.698761 1.145632 0
M  V30 20 C 0.032594 0.532220 0.094278 0
M  V30 21 C 0.495166 -2.028692 1.523932 0
M  V30 22 C 0.940511 -3.285777 1.866598 0
M  V30 23 H 1.424859 -5.764240 4.114578 0
M  V30 24 H 2.226210 -6.863499 2.005777 0
M  V30 25 H 0.690527 -6.330082 1.287003 0
M  V30 26 H 2.487834 -5.525469 -0.031517 0
M  V30 27 H 3.416772 -4.906416 1.344569 0
M  V30 28 H 2.387624 -2.735172 -0.983072 0
M  V30 29 H 2.158425 -1.004848 -2.084975 0
M  V30 30 H 1.694167 1.194340 -3.202440 0
M  V30 31 H -0.692690 4.098789 -1.763494 0
M  V30 32 H -2.124581 5.903058 -0.953219 0
M  V30 33 H -3.305393 5.676468 1.180961 0
M  V30 34 H -3.088943 3.695237 2.519343 0
M  V30 35 H -1.656956 1.833823 1.757787 0
M  V30 36 H -0.451090 0.351222 1.043905 0
M  V30 37 H -0.185356 -1.384280 2.091729 0
M  V30 END ATOM
M  V30 BEGIN BOND
M  V30 1 2 1 2
M  V30 2 1 2 3
M  V30 3 1 3 4
M  V30 4 1 4 5
M  V30 5 1 5 6
M  V30 6 1 6 7
M  V30 7 1 7 8
M  V30 8 1 8 9
M  V30 9 2 9 10
M  V30 10 1 10 11
M  V30 11 2 11 12
M  V30 12 1 12 13
M  V30 13 1 13 14
M  V30 14 2 14 15
M  V30 15 1 15 16
M  V30 16 2 16 17
M  V30 17 1 17 18
M  V30 18 2 18 19
M  V30 19 2 13 20
M  V30 20 2 8 21
M  V30 21 1 21 22
M  V30 22 1 22 2
M  V30 23 2 22 6
M  V30 24 1 20 9
M  V30 25 1 19 14
M  V30 26 1 3 23
M  V30 27 1 4 24
M  V30 28 1 4 25
M  V30 29 1 5 26
M  V30 30 1 5 27
M  V30 31 1 7 28
M  V30 32 1 10 29
M  V30 33 1 11 30
M  V30 34 1 15 31
M  V30 35 1 16 32
M  V30 36 1 17 33
M  V30 37 1 18 34
M  V30 38 1 19 35
M  V30 39 1 20 36
M  V30 40 1 21 37
M  V30 END BOND
M  V30 END CTAB
M  END
>  <Dataset>  (875) 
ChEMBL_Kinases

>  <Ligand_Instance>  (875) 
nan

>  <PDB_ID>  (875) 
nan

>  <Standardized_SMILES>  (875) 
O=C1NCCc2[nH]c(-c3ccnc(-c4ccccc4)c3)cc21

>  <Name>  (875) 
nan

>  <Pocket>  (875) 
nan

>  <ATP_Site>  (875) 
nan

>  <Peripheral>  (875) 
nan

>  <Num_H_Atoms_ProtBoundConf>  (875) 
nan

>  <Num_Resolved_Atoms>  (875) 
nan

>  <Num_Not_Resolved_Atoms>  (875) 
nan

$$$$
CHEMBL450786
     RDKit          3D

  0  0  0  0  0  0  0  0  0  0999 V3000
M  V30 BEGIN CTAB
M  V30 COUNTS 77 82 0 0 0
M  V30 BEGIN ATOM
M  V30 1 C -0.870132 -1.764661 4.925380 0
M  V30 2 C -0.357609 -1.621956 3.542753 0
M  V30 3 N -0.857979 -2.166154 2.422028 0
M  V30 4 C -0.161797 -1.846267 1.317267 0
M  V30 5 C -0.289351 -2.184683 -0.085767 0
M  V30 6 C -0.481974 -3.330024 -0.709169 0
M  V30 7 C -0.602746 -4.572016 0.016417 0
M  V30 8 O -0.525719 -4.758371 1.252400 0
M  V30 9 N -0.829650 -5.583727 -0.949538 0
M  V30 10 C -0.842165 -4.953256 -2.222675 0
M  V30 11 C -1.023620 -5.458151 -3.497719 0
M  V30 12 C -1.000774 -4.643079 -4.629461 0
M  V30 13 C -0.792931 -3.286367 -4.510692 0
M  V30 14 S -0.737541 -2.124080 -5.803557 0
M  V30 15 O 0.334154 -1.091543 -5.582044 0
M  V30 16 O -0.351309 -2.859478 -7.055381 0
M  V30 17 C -2.298823 -1.333207 -6.090607 0
M  V30 18 C -3.327705 -2.331222 -6.447462 0
M  V30 19 C -3.493414 -2.947791 -7.667942 0
M  V30 20 Cl -2.409322 -2.522175 -8.949637 0
M  V30 21 C -4.512995 -3.876603 -7.850050 0
M  V30 22 C -5.403297 -4.236667 -6.857122 0
M  V30 23 C -5.244519 -3.617926 -5.616926 0
M  V30 24 C -4.228383 -2.704674 -5.465958 0
M  V30 25 Cl -4.119541 -1.986224 -3.868567 0
M  V30 26 C -0.606327 -2.749577 -3.234122 0
M  V30 27 C -0.635816 -3.587704 -2.136582 0
M  V30 28 C 0.871370 -1.026517 1.770629 0
M  V30 29 C 1.945578 -0.379400 1.000811 0
M  V30 30 C 0.749385 -0.888637 3.145094 0
M  V30 31 C 1.589112 -0.112851 4.091748 0
M  V30 32 O 2.734836 -0.517641 4.479776 0
M  V30 33 N 0.988801 1.132888 4.527567 0
M  V30 34 C -0.327697 1.677782 4.132385 0
M  V30 35 C -0.333314 3.063529 4.722873 0
M  V30 36 C 0.599563 3.001713 5.887907 0
M  V30 37 C 1.652792 1.989394 5.452084 0 CFG=2
M  V30 38 C 2.826897 2.765868 4.970504 0
M  V30 39 N 2.630462 3.679825 3.902246 0
M  V30 40 C 2.400442 3.161222 2.601515 0
M  V30 41 C 3.793396 3.029947 1.988314 0
M  V30 42 C 4.561550 4.169853 2.587701 0
M  V30 43 C 3.684108 4.642478 3.726892 0
M  V30 44 H -0.135367 -1.377896 5.633219 0
M  V30 45 H -1.816275 -1.189559 4.980353 0
M  V30 46 H -1.049546 -2.828158 5.211437 0
M  V30 47 H -1.703238 -2.746817 2.459904 0
M  V30 48 H -0.215697 -1.325734 -0.779829 0
M  V30 49 H -0.958134 -6.589333 -0.715916 0
M  V30 50 H -1.191430 -6.530789 -3.634893 0
M  V30 51 H -1.139521 -5.004874 -5.638901 0
M  V30 52 H -2.144209 -0.690201 -7.004643 0
M  V30 53 H -2.639401 -0.728491 -5.234976 0
M  V30 54 H -4.597459 -4.337902 -8.844276 0
M  V30 55 H -6.191570 -4.962472 -7.018433 0
M  V30 56 H -5.932007 -3.885275 -4.825909 0
M  V30 57 H -0.431675 -1.683417 -3.021508 0
M  V30 58 H 2.878869 -0.247898 1.592123 0
M  V30 59 H 2.245394 -1.134893 0.211068 0
M  V30 60 H 1.631286 0.518366 0.465095 0
M  V30 61 H -1.158136 1.085554 4.514762 0
M  V30 62 H -0.378598 1.686073 3.039614 0
M  V30 63 H -0.050881 3.848298 3.990929 0
M  V30 64 H -1.390191 3.288226 5.032078 0
M  V30 65 H 0.100334 2.680483 6.824523 0
M  V30 66 H 1.073528 3.984916 6.049056 0
M  V30 67 H 1.932022 1.348754 6.342493 0
M  V30 68 H 3.587135 2.023327 4.602436 0
M  V30 69 H 3.353270 3.255213 5.841321 0
M  V30 70 H 1.790343 3.892928 2.016015 0
M  V30 71 H 1.911311 2.201223 2.501499 0
M  V30 72 H 3.778831 2.995886 0.899407 0
M  V30 73 H 4.229523 2.083807 2.377721 0
M  V30 74 H 4.739826 4.993000 1.853179 0
M  V30 75 H 5.534932 3.828349 3.022799 0
M  V30 76 H 4.300873 4.772011 4.662276 0
M  V30 77 H 3.201602 5.612430 3.468333 0
M  V30 END ATOM
M  V30 BEGIN BOND
M  V30 1 1 1 2
M  V30 2 1 2 3
M  V30 3 1 3 4
M  V30 4 1 4 5
M  V30 5 2 5 6
M  V30 6 1 6 7
M  V30 7 2 7 8
M  V30 8 1 7 9
M  V30 9 1 9 10
M  V30 10 2 10 11
M  V30 11 1 11 12
M  V30 12 2 12 13
M  V30 13 1 13 14
M  V30 14 2 14 15
M  V30 15 2 14 16
M  V30 16 1 14 17
M  V30 17 1 17 18
M  V30 18 2 18 19
M  V30 19 1 19 20
M  V30 20 1 19 21
M  V30 21 2 21 22
M  V30 22 1 22 23
M  V30 23 2 23 24
M  V30 24 1 24 25
M  V30 25 1 13 26
M  V30 26 2 26 27
M  V30 27 2 4 28
M  V30 28 1 28 29
M  V30 29 1 28 30
M  V30 30 1 30 31
M  V30 31 2 31 32
M  V30 32 1 31 33
M  V30 33 1 33 34
M  V30 34 1 34 35
M  V30 35 1 35 36
M  V30 36 1 36 37
M  V30 37 1 37 38
M  V30 38 1 38 39
M  V30 39 1 39 40
M  V30 40 1 40 41
M  V30 41 1 41 42
M  V30 42 1 42 43
M  V30 43 2 30 2
M  V30 44 1 37 33
M  V30 45 1 43 39
M  V30 46 1 27 6
M  V30 47 1 27 10
M  V30 48 1 24 18
M  V30 49 1 1 44
M  V30 50 1 1 45
M  V30 51 1 1 46
M  V30 52 1 3 47
M  V30 53 1 5 48
M  V30 54 1 9 49
M  V30 55 1 11 50
M  V30 56 1 12 51
M  V30 57 1 17 52
M  V30 58 1 17 53
M  V30 59 1 21 54
M  V30 60 1 22 55
M  V30 61 1 23 56
M  V30 62 1 26 57
M  V30 63 1 29 58
M  V30 64 1 29 59
M  V30 65 1 29 60
M  V30 66 1 34 61
M  V30 67 1 34 62
M  V30 68 1 35 63
M  V30 69 1 35 64
M  V30 70 1 36 65
M  V30 71 1 36 66
M  V30 72 1 37 67 CFG=1
M  V30 73 1 38 68
M  V30 74 1 38 69
M  V30 75 1 40 70
M  V30 76 1 40 71
M  V30 77 1 41 72
M  V30 78 1 41 73
M  V30 79 1 42 74
M  V30 80 1 42 75
M  V30 81 1 43 76
M  V30 82 1 43 77
M  V30 END BOND
M  V30 END CTAB
M  END
>  <Dataset>  (876) 
ChEMBL_Kinases

>  <Ligand_Instance>  (876) 
nan

>  <PDB_ID>  (876) 
nan

>  <Standardized_SMILES>  (876) 
Cc1[nH]c(/C=C2\C(=O)Nc3ccc(S(=O)(=O)Cc4c(Cl)cccc4Cl)cc32)c(C)c1C(=O)N1CCC[C@@H]1CN1CCCC1

>  <Name>  (876) 
PHA-665752

>  <Pocket>  (876) 
nan

>  <ATP_Site>  (876) 
nan

>  <Peripheral>  (876) 
nan

>  <Num_H_Atoms_ProtBoundConf>  (876) 
nan

>  <Num_Resolved_Atoms>  (876) 
nan

>  <Num_Not_Resolved_Atoms>  (876) 
nan

$$$$
CHEMBL449216
     RDKit          3D

  0  0  0  0  0  0  0  0  0  0999 V3000
M  V30 BEGIN CTAB
M  V30 COUNTS 22 23 0 0 0
M  V30 BEGIN ATOM
M  V30 1 N 0.358985 -0.248527 5.013785 0
M  V30 2 C 0.152633 0.466579 3.800450 0
M  V30 3 O -0.264520 1.651466 3.878996 0
M  V30 4 C 0.406961 -0.126096 2.493212 0
M  V30 5 N 0.848699 -1.376697 2.366480 0
M  V30 6 N 1.076089 -1.902382 1.156507 0
M  V30 7 C 0.863213 -1.178528 0.042744 0
M  V30 8 C 1.090855 -1.699522 -1.219573 0
M  V30 9 C 0.872443 -0.955195 -2.378171 0
M  V30 10 C 0.415751 0.338148 -2.251130 0
M  V30 11 C 0.169099 0.917001 -1.022567 0
M  V30 12 C 0.401038 0.138434 0.092841 0
M  V30 13 C 0.176969 0.646926 1.377416 0
M  V30 14 N -0.287710 1.964989 1.486440 0
M  V30 15 H 1.019566 -0.266180 5.827052 0
M  V30 16 H -0.064991 -1.029118 5.562402 0
M  V30 17 H 1.454920 -2.729015 -1.335649 0
M  V30 18 H 1.055940 -1.379546 -3.353161 0
M  V30 19 H 0.238219 0.936784 -3.130992 0
M  V30 20 H -0.191582 1.933806 -0.877313 0
M  V30 21 H 0.165780 2.850037 1.113582 0
M  V30 22 H -1.071830 2.539054 1.872907 0
M  V30 END ATOM
M  V30 BEGIN BOND
M  V30 1 1 1 2
M  V30 2 2 2 3
M  V30 3 1 2 4
M  V30 4 2 4 5
M  V30 5 1 5 6
M  V30 6 2 6 7
M  V30 7 1 7 8
M  V30 8 2 8 9
M  V30 9 1 9 10
M  V30 10 2 10 11
M  V30 11 1 11 12
M  V30 12 2 12 13
M  V30 13 1 13 14
M  V30 14 1 13 4
M  V30 15 1 12 7
M  V30 16 1 1 15
M  V30 17 1 1 16
M  V30 18 1 8 17
M  V30 19 1 9 18
M  V30 20 1 10 19
M  V30 21 1 11 20
M  V30 22 1 14 21
M  V30 23 1 14 22
M  V30 END BOND
M  V30 END CTAB
M  END
>  <Dataset>  (877) 
ChEMBL_Kinases

>  <Ligand_Instance>  (877) 
nan

>  <PDB_ID>  (877) 
nan

>  <Standardized_SMILES>  (877) 
NC(=O)c1nnc2ccccc2c1N

>  <Name>  (877) 
nan

>  <Pocket>  (877) 
nan

>  <ATP_Site>  (877) 
nan

>  <Peripheral>  (877) 
nan

>  <Num_H_Atoms_ProtBoundConf>  (877) 
nan

>  <Num_Resolved_Atoms>  (877) 
nan

>  <Num_Not_Resolved_Atoms>  (877) 
nan

$$$$
CHEMBL4878958
     RDKit          3D

  0  0  0  0  0  0  0  0  0  0999 V3000
M  V30 BEGIN CTAB
M  V30 COUNTS 56 61 0 0 0
M  V30 BEGIN ATOM
M  V30 1 C 5.403526 2.589648 0.465486 0
M  V30 2 O 3.991480 2.622898 0.678134 0
M  V30 3 C 3.131879 1.830238 -0.070881 0
M  V30 4 N 3.477765 0.973292 -1.043541 0
M  V30 5 C 2.565823 0.220792 -1.743270 0
M  V30 6 C 1.296823 0.479531 -1.298635 0
M  V30 7 C 0.816579 1.315174 -0.332584 0
M  V30 8 C 1.821689 2.014934 0.296035 0
M  V30 9 N 1.197100 2.843269 1.226814 0
M  V30 10 S -0.290253 2.762380 2.026139 0
M  V30 11 O -1.463361 2.851285 1.053903 0
M  V30 12 O -0.433441 4.017942 2.882763 0
M  V30 13 C -0.536874 1.384973 3.059691 0
M  V30 14 C -0.917408 1.614788 4.393357 0
M  V30 15 C -1.196146 0.696410 5.377195 0
M  V30 16 C -1.079149 -0.644326 4.977186 0
M  V30 17 F -1.331185 -1.714456 5.801871 0
M  V30 18 C -0.704555 -0.901230 3.671816 0
M  V30 19 C -0.433879 0.055258 2.716265 0
M  V30 20 C -0.594899 -2.302157 3.365069 0
M  V30 21 O -1.806904 -2.668171 3.334439 0
M  V30 22 N -0.549830 -3.670333 3.068031 0
M  V30 23 C -1.541177 -4.710925 2.872328 0
M  V30 24 C -2.370651 -4.493171 1.776417 0
M  V30 25 C -3.593970 -4.466914 1.126010 0
M  V30 26 C -3.727494 -4.095076 -0.179560 0
M  V30 27 C -2.497805 -3.755285 -0.748155 0
M  V30 28 S -1.139882 -3.916235 0.413948 0
M  V30 29 C -2.189149 -3.292238 -2.136007 0
M  V30 30 N -2.750573 -3.826335 -3.229612 0
M  V30 31 C -2.341220 -3.291393 -4.433578 0
M  V30 32 N -1.427798 -2.282475 -4.576292 0
M  V30 33 C -0.869524 -1.751030 -3.478038 0
M  V30 34 C 0.047559 -0.742528 -3.413389 0
M  V30 35 C 0.757040 0.101753 -4.380299 0
M  V30 36 C 0.445208 -0.393049 -2.080753 0
M  V30 37 S -0.554903 -1.573568 -0.981599 0
M  V30 38 C -1.310545 -2.320983 -2.264324 0
M  V30 39 H 5.807605 1.571095 0.456863 0
M  V30 40 H 5.912889 3.157038 1.264023 0
M  V30 41 H 5.641808 3.056653 -0.502892 0
M  V30 42 H 2.879085 -0.455207 -2.522110 0
M  V30 43 H -0.256368 1.297303 -0.214267 0
M  V30 44 H 1.853287 3.660778 1.330814 0
M  V30 45 H -1.026773 2.644757 4.780486 0
M  V30 46 H -1.484575 0.908592 6.392247 0
M  V30 47 H -0.158274 -0.314996 1.741668 0
M  V30 48 H 0.490834 -3.873993 2.996120 0
M  V30 49 H -1.051047 -5.706163 2.834977 0
M  V30 50 H -2.164003 -4.778069 3.820476 0
M  V30 51 H -4.389809 -4.772651 1.787855 0
M  V30 52 H -4.624314 -4.047844 -0.756900 0
M  V30 53 H -2.773710 -3.694985 -5.356442 0
M  V30 54 H 1.790268 -0.212945 -4.611274 0
M  V30 55 H 0.669869 1.200060 -4.162414 0
M  V30 56 H 0.206839 -0.007976 -5.348766 0
M  V30 END ATOM
M  V30 BEGIN BOND
M  V30 1 1 1 2
M  V30 2 1 2 3
M  V30 3 2 3 4
M  V30 4 1 4 5
M  V30 5 2 5 6
M  V30 6 1 6 7
M  V30 7 2 7 8
M  V30 8 1 8 9
M  V30 9 1 9 10
M  V30 10 2 10 11
M  V30 11 2 10 12
M  V30 12 1 10 13
M  V30 13 2 13 14
M  V30 14 1 14 15
M  V30 15 2 15 16
M  V30 16 1 16 17
M  V30 17 1 16 18
M  V30 18 2 18 19
M  V30 19 1 18 20
M  V30 20 2 20 21
M  V30 21 1 20 22
M  V30 22 1 22 23
M  V30 23 1 23 24
M  V30 24 2 24 25
M  V30 25 1 25 26
M  V30 26 2 26 27
M  V30 27 1 27 28
M  V30 28 1 27 29
M  V30 29 1 29 30
M  V30 30 2 30 31
M  V30 31 1 31 32
M  V30 32 2 32 33
M  V30 33 1 33 34
M  V30 34 1 34 35
M  V30 35 2 34 36
M  V30 36 1 36 37
M  V30 37 1 37 38
M  V30 38 1 8 3
M  V30 39 1 19 13
M  V30 40 1 28 24
M  V30 41 2 38 29
M  V30 42 1 36 6
M  V30 43 1 38 33
M  V30 44 1 1 39
M  V30 45 1 1 40
M  V30 46 1 1 41
M  V30 47 1 5 42
M  V30 48 1 7 43
M  V30 49 1 9 44
M  V30 50 1 14 45
M  V30 51 1 15 46
M  V30 52 1 19 47
M  V30 53 1 22 48
M  V30 54 1 23 49
M  V30 55 1 23 50
M  V30 56 1 25 51
M  V30 57 1 26 52
M  V30 58 1 31 53
M  V30 59 1 35 54
M  V30 60 1 35 55
M  V30 61 1 35 56
M  V30 END BOND
M  V30 END CTAB
M  END
>  <Dataset>  (878) 
ChEMBL_Kinases

>  <Ligand_Instance>  (878) 
nan

>  <PDB_ID>  (878) 
nan

>  <Standardized_SMILES>  (878) 
COc1ncc2cc1NS(=O)(=O)c1ccc(F)c(c1)C(=O)NCc1ccc(s1)-c1ncnc3c(C)c-2sc13

>  <Name>  (878) 
nan

>  <Pocket>  (878) 
nan

>  <ATP_Site>  (878) 
nan

>  <Peripheral>  (878) 
nan

>  <Num_H_Atoms_ProtBoundConf>  (878) 
nan

>  <Num_Resolved_Atoms>  (878) 
nan

>  <Num_Not_Resolved_Atoms>  (878) 
nan

$$$$
CHEMBL4857979
     RDKit          3D

  0  0  0  0  0  0  0  0  0  0999 V3000
M  V30 BEGIN CTAB
M  V30 COUNTS 40 43 0 0 0
M  V30 BEGIN ATOM
M  V30 1 C 5.232490 -6.987563 0.873147 0
M  V30 2 N 4.685371 -5.903789 0.061797 0
M  V30 3 C 3.476660 -5.357481 0.574013 0
M  V30 4 O 3.017949 -5.861060 1.654990 0
M  V30 5 C 2.836424 -4.271502 -0.148150 0
M  V30 6 C 1.718322 -3.596451 0.113960 0
M  V30 7 C 1.294870 -2.606393 -0.702695 0
M  V30 8 N 0.129582 -1.797994 -0.560370 0
M  V30 9 N -1.135322 -1.988590 -0.963963 0
M  V30 10 C -1.883320 -0.919872 -0.585370 0
M  V30 11 C -1.067484 -0.022162 0.079739 0
M  V30 12 C -1.313651 1.217045 0.668023 0
M  V30 13 C -0.241694 1.864204 1.263784 0
M  V30 14 N -0.453792 3.135147 1.876853 0
M  V30 15 C -1.768262 3.684551 1.848051 0
M  V30 16 C -2.602637 3.365655 2.907163 0
M  V30 17 F -2.234239 2.566051 3.957061 0
M  V30 18 C -3.875845 3.870964 2.922642 0
M  V30 19 C -4.318186 4.689730 1.890071 0
M  V30 20 C -3.488149 5.018630 0.817644 0
M  V30 21 C -2.201161 4.496192 0.820815 0
M  V30 22 Cl -1.062543 4.822166 -0.448273 0
M  V30 23 C 1.013679 1.285898 1.263358 0
M  V30 24 N 1.203636 0.084383 0.681257 0
M  V30 25 C 0.188426 -0.600262 0.079551 0
M  V30 26 C 2.071326 -2.343078 -1.797760 0
M  V30 27 S 3.497701 -3.553332 -1.696769 0
M  V30 28 H 6.184800 -7.313915 0.443726 0
M  V30 29 H 5.343418 -6.708961 1.943441 0
M  V30 30 H 4.464941 -7.812140 0.861151 0
M  V30 31 H 5.101294 -5.512962 -0.836302 0
M  V30 32 H 1.139449 -3.861400 1.015981 0
M  V30 33 H -2.938944 -0.825182 -0.789608 0
M  V30 34 H -2.319212 1.616602 0.635097 0
M  V30 35 H 0.348639 3.628884 2.327630 0
M  V30 36 H -4.583936 3.656263 3.731201 0
M  V30 37 H -5.298041 5.131763 1.816211 0
M  V30 38 H -3.780729 5.648274 -0.007490 0
M  V30 39 H 1.827238 1.829262 1.742783 0
M  V30 40 H 1.994409 -1.616021 -2.628565 0
M  V30 END ATOM
M  V30 BEGIN BOND
M  V30 1 1 1 2
M  V30 2 1 2 3
M  V30 3 2 3 4
M  V30 4 1 3 5
M  V30 5 2 5 6
M  V30 6 1 6 7
M  V30 7 1 7 8
M  V30 8 1 8 9
M  V30 9 2 9 10
M  V30 10 1 10 11
M  V30 11 2 11 12
M  V30 12 1 12 13
M  V30 13 1 13 14
M  V30 14 1 14 15
M  V30 15 2 15 16
M  V30 16 1 16 17
M  V30 17 1 16 18
M  V30 18 2 18 19
M  V30 19 1 19 20
M  V30 20 2 20 21
M  V30 21 1 21 22
M  V30 22 2 13 23
M  V30 23 1 23 24
M  V30 24 2 24 25
M  V30 25 2 7 26
M  V30 26 1 26 27
M  V30 27 1 27 5
M  V30 28 1 25 8
M  V30 29 1 25 11
M  V30 30 1 21 15
M  V30 31 1 1 28
M  V30 32 1 1 29
M  V30 33 1 1 30
M  V30 34 1 2 31
M  V30 35 1 6 32
M  V30 36 1 10 33
M  V30 37 1 12 34
M  V30 38 1 14 35
M  V30 39 1 18 36
M  V30 40 1 19 37
M  V30 41 1 20 38
M  V30 42 1 23 39
M  V30 43 1 26 40
M  V30 END BOND
M  V30 END CTAB
M  END
>  <Dataset>  (879) 
ChEMBL_Kinases

>  <Ligand_Instance>  (879) 
nan

>  <PDB_ID>  (879) 
nan

>  <Standardized_SMILES>  (879) 
CNC(=O)c1cc(-n2ncc3cc(Nc4c(F)cccc4Cl)cnc32)cs1

>  <Name>  (879) 
nan

>  <Pocket>  (879) 
nan

>  <ATP_Site>  (879) 
nan

>  <Peripheral>  (879) 
nan

>  <Num_H_Atoms_ProtBoundConf>  (879) 
nan

>  <Num_Resolved_Atoms>  (879) 
nan

>  <Num_Not_Resolved_Atoms>  (879) 
nan

$$$$
CHEMBL1435542
     RDKit          3D

  0  0  0  0  0  0  0  0  0  0999 V3000
M  V30 BEGIN CTAB
M  V30 COUNTS 43 47 0 0 0
M  V30 BEGIN ATOM
M  V30 1 C -4.167004 -4.931391 1.403648 0
M  V30 2 C -3.011077 -4.621125 0.505330 0
M  V30 3 N -2.723675 -3.572879 -0.302167 0
M  V30 4 C -1.570670 -3.695714 -0.935308 0
M  V30 5 C -1.163115 -2.582624 -1.855894 0
M  V30 6 N -0.397748 -1.559223 -1.138105 0
M  V30 7 C 0.082648 -0.421630 -1.852568 0
M  V30 8 N -0.175398 -0.321926 -3.167226 0
M  V30 9 C 0.217032 0.686018 -3.950545 0
M  V30 10 N 0.934965 1.694037 -3.377083 0
M  V30 11 C 1.219314 1.640960 -2.064334 0
M  V30 12 C 1.948502 2.672238 -1.499803 0
M  V30 13 C 2.250280 2.630012 -0.141343 0
M  V30 14 C 1.821838 1.558683 0.643680 0
M  V30 15 C 2.170987 1.566021 2.073245 0
M  V30 16 C 3.327054 2.122045 2.582082 0
M  V30 17 C 3.575357 2.080430 3.954401 0
M  V30 18 C 2.671347 1.484927 4.816923 0
M  V30 19 C 1.518054 0.925730 4.344901 0
M  V30 20 C 1.294328 0.978797 2.986981 0
M  V30 21 O 0.752017 0.382032 5.381893 0
M  V30 22 C 1.568153 0.432428 6.537939 0
M  V30 23 O 2.638300 1.291739 6.191999 0
M  V30 24 C 1.096534 0.522591 0.107915 0
M  V30 25 C 0.810841 0.587912 -1.239049 0
M  V30 26 C -0.691309 -4.789836 -0.815710 0
M  V30 27 S -1.581099 -5.864899 0.377269 0
M  V30 28 H -3.839159 -5.547303 2.268833 0
M  V30 29 H -4.465220 -3.925911 1.821154 0
M  V30 30 H -5.037134 -5.325423 0.877213 0
M  V30 31 H -2.031817 -2.044829 -2.287632 0
M  V30 32 H -0.598690 -2.960871 -2.735707 0
M  V30 33 H -0.262593 -1.753871 -0.126895 0
M  V30 34 H -0.056385 0.646961 -4.995791 0
M  V30 35 H 2.302779 3.529574 -2.080814 0
M  V30 36 H 2.830379 3.470277 0.259467 0
M  V30 37 H 4.019882 2.585802 1.863567 0
M  V30 38 H 4.491390 2.525364 4.324338 0
M  V30 39 H 0.384365 0.541297 2.587928 0
M  V30 40 H 1.893027 -0.598341 6.729637 0
M  V30 41 H 0.940194 0.846934 7.350856 0
M  V30 42 H 0.774349 -0.295212 0.725948 0
M  V30 43 H 0.213145 -4.969182 -1.262383 0
M  V30 END ATOM
M  V30 BEGIN BOND
M  V30 1 1 1 2
M  V30 2 2 2 3
M  V30 3 1 3 4
M  V30 4 1 4 5
M  V30 5 1 5 6
M  V30 6 1 6 7
M  V30 7 2 7 8
M  V30 8 1 8 9
M  V30 9 2 9 10
M  V30 10 1 10 11
M  V30 11 2 11 12
M  V30 12 1 12 13
M  V30 13 2 13 14
M  V30 14 1 14 15
M  V30 15 2 15 16
M  V30 16 1 16 17
M  V30 17 2 17 18
M  V30 18 1 18 19
M  V30 19 2 19 20
M  V30 20 1 19 21
M  V30 21 1 21 22
M  V30 22 1 22 23
M  V30 23 1 14 24
M  V30 24 2 24 25
M  V30 25 2 4 26
M  V30 26 1 26 27
M  V30 27 1 27 2
M  V30 28 1 25 7
M  V30 29 1 25 11
M  V30 30 1 20 15
M  V30 31 1 23 18
M  V30 32 1 1 28
M  V30 33 1 1 29
M  V30 34 1 1 30
M  V30 35 1 5 31
M  V30 36 1 5 32
M  V30 37 1 6 33
M  V30 38 1 9 34
M  V30 39 1 12 35
M  V30 40 1 13 36
M  V30 41 1 16 37
M  V30 42 1 17 38
M  V30 43 1 20 39
M  V30 44 1 22 40
M  V30 45 1 22 41
M  V30 46 1 24 42
M  V30 47 1 26 43
M  V30 END BOND
M  V30 END CTAB
M  END
>  <Dataset>  (880) 
ChEMBL_Kinases

>  <Ligand_Instance>  (880) 
nan

>  <PDB_ID>  (880) 
nan

>  <Standardized_SMILES>  (880) 
Cc1nc(CNc2ncnc3ccc(-c4ccc5c(c4)OCO5)cc23)cs1

>  <Name>  (880) 
nan

>  <Pocket>  (880) 
nan

>  <ATP_Site>  (880) 
nan

>  <Peripheral>  (880) 
nan

>  <Num_H_Atoms_ProtBoundConf>  (880) 
nan

>  <Num_Resolved_Atoms>  (880) 
nan

>  <Num_Not_Resolved_Atoms>  (880) 
nan

$$$$
CHEMBL4582326
     RDKit          3D

  0  0  0  0  0  0  0  0  0  0999 V3000
M  V30 BEGIN CTAB
M  V30 COUNTS 50 53 0 0 0
M  V30 BEGIN ATOM
M  V30 1 O -1.141023 -3.248665 0.869829 0
M  V30 2 C -1.444017 -3.734602 -0.253094 0
M  V30 3 N -1.077481 -4.166548 -1.586304 0
M  V30 4 C 0.281514 -3.810804 -1.742817 0
M  V30 5 N 1.497275 -4.180454 -1.806716 0
M  V30 6 N 2.479043 -3.362535 -1.804382 0
M  V30 7 C 1.887280 -2.039733 -1.685849 0
M  V30 8 C 2.266920 -0.672543 -1.589717 0
M  V30 9 C 1.198433 0.285627 -1.489527 0
M  V30 10 C 1.490866 1.625811 -0.906701 0
M  V30 11 C 2.654299 2.359263 -0.952386 0
M  V30 12 C 2.738771 3.353589 -0.045372 0
M  V30 13 C 1.797766 3.724435 0.935611 0
M  V30 14 C 0.640988 2.970785 0.961481 0
M  V30 15 C -0.233150 2.915729 2.187779 0
M  V30 16 N -0.495558 1.485258 2.344660 0
M  V30 17 S 0.422524 0.301443 2.666978 0
M  V30 18 O 0.705210 -0.637863 1.351317 0
M  V30 19 O -0.809788 -0.847400 3.157290 0
M  V30 20 C 1.577285 -0.298522 3.802326 0
M  V30 21 C 1.109354 -0.408355 5.191674 0
M  V30 22 F -0.023717 -1.232003 5.174823 0
M  V30 23 F 0.889307 0.818159 5.725296 0
M  V30 24 F 2.060905 -1.194157 5.877035 0
M  V30 25 C 0.515961 1.944711 0.030714 0
M  V30 26 C -0.180482 -0.073836 -1.509235 0
M  V30 27 C -0.168658 -1.422587 -1.605996 0
M  V30 28 C 0.622024 -2.539785 -1.685793 0
M  V30 29 C -2.734900 -3.619176 0.575162 0
M  V30 30 C -4.011208 -3.952829 -0.125819 0
M  V30 31 C -3.670289 -2.538425 -0.000491 0
M  V30 32 H -1.886495 -4.595745 -2.028456 0
M  V30 33 H 3.526709 -3.388085 -1.817168 0
M  V30 34 H 3.300190 -0.552590 -1.590459 0
M  V30 35 H 3.382847 2.027741 -1.707003 0
M  V30 36 H 3.602050 4.003915 0.037356 0
M  V30 37 H 1.925444 4.482629 1.684524 0
M  V30 38 H -1.182906 3.381042 1.816630 0
M  V30 39 H 0.111924 3.381548 3.049888 0
M  V30 40 H -1.555986 1.431212 2.615698 0
M  V30 41 H 2.593143 0.160727 3.649015 0
M  V30 42 H 1.803931 -1.401666 3.456771 0
M  V30 43 H -0.507767 1.509014 0.195296 0
M  V30 44 H -0.924824 0.678795 -1.450415 0
M  V30 45 H -1.317030 -1.545574 -1.653493 0
M  V30 46 H -2.530063 -3.419524 1.601626 0
M  V30 47 H -3.916047 -4.473238 -1.118551 0
M  V30 48 H -4.860416 -4.312752 0.464177 0
M  V30 49 H -3.284125 -1.929705 -0.826649 0
M  V30 50 H -4.224513 -1.883168 0.728702 0
M  V30 END ATOM
M  V30 BEGIN BOND
M  V30 1 2 1 2
M  V30 2 1 2 3
M  V30 3 1 3 4
M  V30 4 2 4 5
M  V30 5 1 5 6
M  V30 6 1 6 7
M  V30 7 2 7 8
M  V30 8 1 8 9
M  V30 9 1 9 10
M  V30 10 2 10 11
M  V30 11 1 11 12
M  V30 12 2 12 13
M  V30 13 1 13 14
M  V30 14 1 14 15
M  V30 15 1 15 16
M  V30 16 1 16 17
M  V30 17 2 17 18
M  V30 18 2 17 19
M  V30 19 1 17 20
M  V30 20 1 20 21
M  V30 21 1 21 22
M  V30 22 1 21 23
M  V30 23 1 21 24
M  V30 24 2 14 25
M  V30 25 2 9 26
M  V30 26 1 26 27
M  V30 27 2 27 28
M  V30 28 1 2 29
M  V30 29 1 29 30
M  V30 30 1 30 31
M  V30 31 1 28 4
M  V30 32 1 31 29
M  V30 33 1 28 7
M  V30 34 1 25 10
M  V30 35 1 3 32
M  V30 36 1 6 33
M  V30 37 1 8 34
M  V30 38 1 11 35
M  V30 39 1 12 36
M  V30 40 1 13 37
M  V30 41 1 15 38
M  V30 42 1 15 39
M  V30 43 1 16 40
M  V30 44 1 20 41
M  V30 45 1 20 42
M  V30 46 1 25 43
M  V30 47 1 26 44
M  V30 48 1 27 45
M  V30 49 1 29 46
M  V30 50 1 30 47
M  V30 51 1 30 48
M  V30 52 1 31 49
M  V30 53 1 31 50
M  V30 END BOND
M  V30 END CTAB
M  END
>  <Dataset>  (881) 
ChEMBL_Kinases

>  <Ligand_Instance>  (881) 
nan

>  <PDB_ID>  (881) 
nan

>  <Standardized_SMILES>  (881) 
O=C(Nc1n[nH]c2cc(-c3cccc(CNS(=O)(=O)CC(F)(F)F)c3)ccc12)C1CC1

>  <Name>  (881) 
nan

>  <Pocket>  (881) 
nan

>  <ATP_Site>  (881) 
nan

>  <Peripheral>  (881) 
nan

>  <Num_H_Atoms_ProtBoundConf>  (881) 
nan

>  <Num_Resolved_Atoms>  (881) 
nan

>  <Num_Not_Resolved_Atoms>  (881) 
nan

$$$$
CHEMBL3651854
     RDKit          3D

  0  0  0  0  0  0  0  0  0  0999 V3000
M  V30 BEGIN CTAB
M  V30 COUNTS 83 87 0 0 0
M  V30 BEGIN ATOM
M  V30 1 C 3.057571 -2.215374 4.932427 0
M  V30 2 C 2.180184 -1.671888 3.925493 0
M  V30 3 C 0.930664 -2.298637 3.652037 0
M  V30 4 C 0.037378 -1.628157 2.805372 0
M  V30 5 N -1.089179 -1.978962 2.153964 0
M  V30 6 C -2.244323 -2.341521 1.503050 0
M  V30 7 N -2.138098 -1.912192 0.206713 0
M  V30 8 C -3.012416 -1.930970 -0.787873 0
M  V30 9 N -2.817108 -1.388794 -2.085868 0
M  V30 10 C -2.174960 -0.418728 -2.803829 0
M  V30 11 C -3.080775 0.497758 -3.412828 0
M  V30 12 C -2.690768 1.591422 -4.206980 0
M  V30 13 C -1.343598 1.780737 -4.384137 0
M  V30 14 C -0.414647 0.952738 -3.827306 0
M  V30 15 C -0.826914 -0.155598 -3.034079 0
M  V30 16 S 0.352671 -1.225511 -2.443374 0
M  V30 17 O 1.677206 -0.795170 -3.080802 0
M  V30 18 O 0.627066 -1.167023 -0.975613 0
M  V30 19 C 0.168781 -2.889552 -3.025449 0
M  V30 20 C 0.113454 -2.783554 -4.546919 0
M  V30 21 C 1.429692 -3.652859 -2.708628 0
M  V30 22 C -4.192844 -2.491929 -0.391005 0
M  V30 23 C -5.328940 -2.720322 -1.084978 0
M  V30 24 C -5.669030 -2.456795 -2.518089 0
M  V30 25 N -6.192152 -3.306917 -0.238281 0
M  V30 26 N -5.625584 -3.448386 0.946801 0
M  V30 27 C -4.352437 -2.951516 0.928758 0
M  V30 28 N -3.399955 -2.857756 1.794282 0
M  V30 29 C 0.527656 -0.339341 2.307455 0
M  V30 30 O -0.561016 0.045502 1.656771 0
M  V30 31 C -1.143654 1.071176 1.029978 0
M  V30 32 C -0.415489 2.381537 1.468600 0
M  V30 33 C -2.569421 1.285072 1.679896 0
M  V30 34 C 1.713028 0.337213 2.497469 0
M  V30 35 C 2.511233 -0.430356 3.355430 0
M  V30 36 C 3.863121 0.194652 3.369375 0
M  V30 37 C 3.898466 1.580881 3.833927 0
M  V30 38 C 3.806773 2.635536 2.777191 0
M  V30 39 N 4.312645 2.358695 1.502447 0
M  V30 40 C 3.638478 2.928801 0.371884 0
M  V30 41 C 4.974751 1.118204 1.263827 0
M  V30 42 C 4.399767 -0.059020 1.966757 0
M  V30 43 H 4.041918 -2.579311 4.692175 0
M  V30 44 H 2.527372 -2.997608 5.563992 0
M  V30 45 H 3.177238 -1.398771 5.757706 0
M  V30 46 H 0.667267 -3.232398 4.079334 0
M  V30 47 H -0.372280 -2.298217 1.377034 0
M  V30 48 H -3.311953 -1.959406 -2.835848 0
M  V30 49 H -4.197556 0.468118 -3.416205 0
M  V30 50 H -3.342051 2.284374 -4.689357 0
M  V30 51 H -0.983697 2.600325 -4.971610 0
M  V30 52 H 0.614725 1.122877 -3.981307 0
M  V30 53 H -0.719081 -3.419889 -2.633582 0
M  V30 54 H 0.585723 -1.848552 -4.883375 0
M  V30 55 H -0.955034 -2.869482 -4.886509 0
M  V30 56 H 0.665852 -3.600089 -5.046340 0
M  V30 57 H 1.270340 -4.706986 -2.991795 0
M  V30 58 H 2.318071 -3.226647 -3.227013 0
M  V30 59 H 1.638691 -3.523851 -1.622205 0
M  V30 60 H -5.216293 -3.295356 -3.117933 0
M  V30 61 H -6.774086 -2.708248 -2.610366 0
M  V30 62 H -5.572801 -1.484149 -2.913958 0
M  V30 63 H -7.185290 -3.654095 -0.370513 0
M  V30 64 H -1.149355 1.120549 -0.030231 0
M  V30 65 H -0.190127 2.299735 2.512238 0
M  V30 66 H 0.376485 2.558620 0.743173 0
M  V30 67 H -1.192914 3.185969 1.383391 0
M  V30 68 H -3.014260 0.346706 2.012662 0
M  V30 69 H -2.399716 1.911136 2.616626 0
M  V30 70 H -3.247616 1.835569 1.025370 0
M  V30 71 H 1.837278 1.213668 1.994830 0
M  V30 72 H 4.535215 -0.418998 4.041291 0
M  V30 73 H 3.070771 1.739607 4.548532 0
M  V30 74 H 4.878738 1.711605 4.426736 0
M  V30 75 H 4.443419 3.502352 3.180465 0
M  V30 76 H 2.779719 3.088617 2.810995 0
M  V30 77 H 4.313954 3.502016 -0.292241 0
M  V30 78 H 2.826769 3.585133 0.731953 0
M  V30 79 H 3.151861 2.131702 -0.253562 0
M  V30 80 H 4.875198 0.915999 0.135803 0
M  V30 81 H 6.068006 1.188644 1.435318 0
M  V30 82 H 3.561418 -0.471392 1.292733 0
M  V30 83 H 5.137260 -0.881636 1.947126 0
M  V30 END ATOM
M  V30 BEGIN BOND
M  V30 1 1 1 2
M  V30 2 2 2 3
M  V30 3 1 3 4
M  V30 4 1 4 5
M  V30 5 1 5 6
M  V30 6 1 6 7
M  V30 7 2 7 8
M  V30 8 1 8 9
M  V30 9 1 9 10
M  V30 10 2 10 11
M  V30 11 1 11 12
M  V30 12 2 12 13
M  V30 13 1 13 14
M  V30 14 2 14 15
M  V30 15 1 15 16
M  V30 16 2 16 17
M  V30 17 2 16 18
M  V30 18 1 16 19
M  V30 19 1 19 20
M  V30 20 1 19 21
M  V30 21 1 8 22
M  V30 22 2 22 23
M  V30 23 1 23 24
M  V30 24 1 23 25
M  V30 25 1 25 26
M  V30 26 2 26 27
M  V30 27 1 27 28
M  V30 28 2 4 29
M  V30 29 1 29 30
M  V30 30 1 30 31
M  V30 31 1 31 32
M  V30 32 1 31 33
M  V30 33 1 29 34
M  V30 34 2 34 35
M  V30 35 1 35 36
M  V30 36 1 36 37
M  V30 37 1 37 38
M  V30 38 1 38 39
M  V30 39 1 39 40
M  V30 40 1 39 41
M  V30 41 1 41 42
M  V30 42 1 35 2
M  V30 43 1 42 36
M  V30 44 2 28 6
M  V30 45 1 15 10
M  V30 46 1 27 22
M  V30 47 1 1 43
M  V30 48 1 1 44
M  V30 49 1 1 45
M  V30 50 1 3 46
M  V30 51 1 5 47
M  V30 52 1 9 48
M  V30 53 1 11 49
M  V30 54 1 12 50
M  V30 55 1 13 51
M  V30 56 1 14 52
M  V30 57 1 19 53
M  V30 58 1 20 54
M  V30 59 1 20 55
M  V30 60 1 20 56
M  V30 61 1 21 57
M  V30 62 1 21 58
M  V30 63 1 21 59
M  V30 64 1 24 60
M  V30 65 1 24 61
M  V30 66 1 24 62
M  V30 67 1 25 63
M  V30 68 1 31 64
M  V30 69 1 32 65
M  V30 70 1 32 66
M  V30 71 1 32 67
M  V30 72 1 33 68
M  V30 73 1 33 69
M  V30 74 1 33 70
M  V30 75 1 34 71
M  V30 76 1 36 72
M  V30 77 1 37 73
M  V30 78 1 37 74
M  V30 79 1 38 75
M  V30 80 1 38 76
M  V30 81 1 40 77
M  V30 82 1 40 78
M  V30 83 1 40 79
M  V30 84 1 41 80
M  V30 85 1 41 81
M  V30 86 1 42 82
M  V30 87 1 42 83
M  V30 END BOND
M  V30 END CTAB
M  END
>  <Dataset>  (882) 
ChEMBL_Kinases

>  <Ligand_Instance>  (882) 
nan

>  <PDB_ID>  (882) 
nan

>  <Standardized_SMILES>  (882) 
Cc1cc(Nc2nc(Nc3ccccc3S(=O)(=O)C(C)C)c3c(C)[nH]nc3n2)c(OC(C)C)cc1C1CCN(C)CC1

>  <Name>  (882) 
nan

>  <Pocket>  (882) 
nan

>  <ATP_Site>  (882) 
nan

>  <Peripheral>  (882) 
nan

>  <Num_H_Atoms_ProtBoundConf>  (882) 
nan

>  <Num_Resolved_Atoms>  (882) 
nan

>  <Num_Not_Resolved_Atoms>  (882) 
nan

$$$$
CHEMBL216543
     RDKit          3D

  0  0  0  0  0  0  0  0  0  0999 V3000
M  V30 BEGIN CTAB
M  V30 COUNTS 32 35 0 0 0
M  V30 BEGIN ATOM
M  V30 1 O 2.284363 -1.338752 3.370197 0
M  V30 2 C 1.733963 -2.003060 2.476483 0
M  V30 3 N 1.889393 -3.411104 2.358114 0
M  V30 4 C 1.094471 -3.767612 1.207436 0
M  V30 5 C 0.980998 -5.081546 0.749750 0
M  V30 6 C 0.198074 -5.317871 -0.356831 0
M  V30 7 C -0.439647 -4.228337 -0.960330 0
M  V30 8 C -0.261429 -2.974853 -0.429720 0
M  V30 9 C 0.485753 -2.677290 0.643075 0
M  V30 10 C 0.862516 -1.535717 1.414435 0
M  V30 11 C 0.483527 -0.320358 1.187759 0
M  V30 12 N 0.873935 0.793570 1.971104 0
M  V30 13 C 0.314618 2.006702 1.501656 0
M  V30 14 C 0.449409 3.306195 1.984760 0
M  V30 15 C -0.234161 4.281951 1.293262 0
M  V30 16 C -1.009965 4.014402 0.188874 0
M  V30 17 C -1.099742 2.710302 -0.234831 0
M  V30 18 C -0.446223 1.646649 0.395885 0
M  V30 19 C -0.366724 0.220226 0.171180 0
M  V30 20 N -0.985603 -0.276799 -0.775720 0
M  V30 21 O -1.756236 0.348391 -1.665680 0
M  V30 22 H 2.464012 -4.008581 2.991206 0
M  V30 23 H 1.468583 -5.924511 1.208852 0
M  V30 24 H 0.105955 -6.329823 -0.715678 0
M  V30 25 H -1.030540 -4.536907 -1.825706 0
M  V30 26 H -0.812582 -2.317651 -1.017367 0
M  V30 27 H 1.492937 0.745049 2.791367 0
M  V30 28 H 1.056885 3.518397 2.850126 0
M  V30 29 H -0.108985 5.277959 1.692958 0
M  V30 30 H -1.519159 4.830432 -0.305493 0
M  V30 31 H -1.715426 2.572747 -1.093927 0
M  V30 32 H -2.755085 0.433501 -1.659822 0
M  V30 END ATOM
M  V30 BEGIN BOND
M  V30 1 2 1 2
M  V30 2 1 2 3
M  V30 3 1 3 4
M  V30 4 2 4 5
M  V30 5 1 5 6
M  V30 6 2 6 7
M  V30 7 1 7 8
M  V30 8 2 8 9
M  V30 9 1 9 10
M  V30 10 2 10 11
M  V30 11 1 11 12
M  V30 12 1 12 13
M  V30 13 2 13 14
M  V30 14 1 14 15
M  V30 15 2 15 16
M  V30 16 1 16 17
M  V30 17 2 17 18
M  V30 18 1 18 19
M  V30 19 2 19 20
M  V30 20 1 20 21
M  V30 21 1 10 2
M  V30 22 1 19 11
M  V30 23 1 9 4
M  V30 24 1 18 13
M  V30 25 1 3 22
M  V30 26 1 5 23
M  V30 27 1 6 24
M  V30 28 1 7 25
M  V30 29 1 8 26
M  V30 30 1 12 27
M  V30 31 1 14 28
M  V30 32 1 15 29
M  V30 33 1 16 30
M  V30 34 1 17 31
M  V30 35 1 21 32
M  V30 END BOND
M  V30 END CTAB
M  END
>  <Dataset>  (883) 
ChEMBL_Kinases

>  <Ligand_Instance>  (883) 
nan

>  <PDB_ID>  (883) 
nan

>  <Standardized_SMILES>  (883) 
O=C1Nc2ccccc2/C1=C1/Nc2ccccc2/C1=N\O

>  <Name>  (883) 
nan

>  <Pocket>  (883) 
nan

>  <ATP_Site>  (883) 
nan

>  <Peripheral>  (883) 
nan

>  <Num_H_Atoms_ProtBoundConf>  (883) 
nan

>  <Num_Resolved_Atoms>  (883) 
nan

>  <Num_Not_Resolved_Atoms>  (883) 
nan

$$$$
CHEMBL212049
     RDKit          3D

  0  0  0  0  0  0  0  0  0  0999 V3000
M  V30 BEGIN CTAB
M  V30 COUNTS 47 50 0 0 0
M  V30 BEGIN ATOM
M  V30 1 C 1.406377 -4.878280 2.055387 0
M  V30 2 C 1.979469 -3.578053 1.657686 0
M  V30 3 C 3.320928 -3.319186 1.801591 0
M  V30 4 N 3.713374 -2.103828 1.400394 0
M  V30 5 C 2.865533 -1.200255 0.894089 0
M  V30 6 O 3.275505 0.060700 0.478195 0
M  V30 7 C 2.371013 1.008469 -0.061903 0
M  V30 8 C 2.730123 1.359364 -1.464933 0
M  V30 9 C 3.155348 2.798250 -1.632673 0
M  V30 10 C 4.056067 3.198082 -0.502781 0
M  V30 11 C 3.277709 3.213463 0.771786 0
M  V30 12 C 2.181023 2.208491 0.828556 0
M  V30 13 N 1.579801 -1.505865 0.778421 0
M  V30 14 C 1.051846 -2.708021 1.150027 0
M  V30 15 C -0.394104 -2.842420 0.948815 0
M  V30 16 C -1.381587 -3.750972 1.158766 0
M  V30 17 N -2.627637 -3.508458 0.839089 0
M  V30 18 C -2.981197 -2.473219 0.341658 0
M  V30 19 N -4.239846 -1.850420 -0.141914 0
M  V30 20 C -4.838987 -1.167813 0.951178 0
M  V30 21 C -4.441648 0.147799 1.132378 0
M  V30 22 C -5.004028 0.859813 2.192947 0
M  V30 23 C -5.912566 0.157410 2.958151 0
M  V30 24 C -6.318511 -1.150656 2.791350 0
M  V30 25 N -5.739011 -1.790179 1.746919 0
M  V30 26 S -1.411363 -1.538005 0.222243 0
M  V30 27 H 0.967248 -5.350989 1.164616 0
M  V30 28 H 2.265471 -5.511142 2.412624 0
M  V30 29 H 0.710804 -4.749023 2.890700 0
M  V30 30 H 3.929419 -4.094500 2.214497 0
M  V30 31 H 1.379683 0.491939 -0.076687 0
M  V30 32 H 3.613861 0.740520 -1.781830 0
M  V30 33 H 1.938947 1.135670 -2.210059 0
M  V30 34 H 2.246564 3.395507 -1.688992 0
M  V30 35 H 3.768845 2.877508 -2.567553 0
M  V30 36 H 4.402161 4.235085 -0.733776 0
M  V30 37 H 4.884988 2.482862 -0.398853 0
M  V30 38 H 4.010246 3.091811 1.618182 0
M  V30 39 H 2.872512 4.255572 0.920227 0
M  V30 40 H 1.236691 2.712922 0.528363 0
M  V30 41 H 2.085815 1.845064 1.872879 0
M  V30 42 H -1.185316 -4.706510 1.598705 0
M  V30 43 H -4.308435 -2.095831 -1.129352 0
M  V30 44 H -3.732240 0.649860 0.510841 0
M  V30 45 H -4.770435 1.888824 2.430742 0
M  V30 46 H -6.357069 0.704012 3.787756 0
M  V30 47 H -7.043303 -1.589646 3.463145 0
M  V30 END ATOM
M  V30 BEGIN BOND
M  V30 1 1 1 2
M  V30 2 2 2 3
M  V30 3 1 3 4
M  V30 4 2 4 5
M  V30 5 1 5 6
M  V30 6 1 6 7
M  V30 7 1 7 8
M  V30 8 1 8 9
M  V30 9 1 9 10
M  V30 10 1 10 11
M  V30 11 1 11 12
M  V30 12 1 5 13
M  V30 13 2 13 14
M  V30 14 1 14 15
M  V30 15 2 15 16
M  V30 16 1 16 17
M  V30 17 2 17 18
M  V30 18 1 18 19
M  V30 19 1 19 20
M  V30 20 2 20 21
M  V30 21 1 21 22
M  V30 22 2 22 23
M  V30 23 1 23 24
M  V30 24 2 24 25
M  V30 25 1 18 26
M  V30 26 1 14 2
M  V30 27 1 26 15
M  V30 28 1 12 7
M  V30 29 1 25 20
M  V30 30 1 1 27
M  V30 31 1 1 28
M  V30 32 1 1 29
M  V30 33 1 3 30
M  V30 34 1 7 31
M  V30 35 1 8 32
M  V30 36 1 8 33
M  V30 37 1 9 34
M  V30 38 1 9 35
M  V30 39 1 10 36
M  V30 40 1 10 37
M  V30 41 1 11 38
M  V30 42 1 11 39
M  V30 43 1 12 40
M  V30 44 1 12 41
M  V30 45 1 16 42
M  V30 46 1 19 43
M  V30 47 1 21 44
M  V30 48 1 22 45
M  V30 49 1 23 46
M  V30 50 1 24 47
M  V30 END BOND
M  V30 END CTAB
M  END
>  <Dataset>  (884) 
ChEMBL_Kinases

>  <Ligand_Instance>  (884) 
nan

>  <PDB_ID>  (884) 
nan

>  <Standardized_SMILES>  (884) 
Cc1cnc(OC2CCCCC2)nc1-c1cnc(Nc2ccccn2)s1

>  <Name>  (884) 
nan

>  <Pocket>  (884) 
nan

>  <ATP_Site>  (884) 
nan

>  <Peripheral>  (884) 
nan

>  <Num_H_Atoms_ProtBoundConf>  (884) 
nan

>  <Num_Resolved_Atoms>  (884) 
nan

>  <Num_Not_Resolved_Atoms>  (884) 
nan

$$$$
CHEMBL1077979
     RDKit          3D

  0  0  0  0  0  0  0  0  0  0999 V3000
M  V30 BEGIN CTAB
M  V30 COUNTS 48 49 0 0 0
M  V30 BEGIN ATOM
M  V30 1 C 3.493549 -5.032327 1.341395 0
M  V30 2 O 2.256566 -5.450051 0.796586 0
M  V30 3 C 1.322436 -4.476593 0.498770 0
M  V30 4 C 0.109392 -4.847331 -0.032072 0
M  V30 5 C -0.798759 -3.848818 -0.315378 0
M  V30 6 O -2.088796 -3.952270 -0.857139 0
M  V30 7 C -0.559720 -2.535737 -0.099524 0
M  V30 8 C 0.671251 -2.116526 0.438664 0
M  V30 9 C 1.557646 -3.135725 0.713572 0
M  V30 10 C 1.195743 -0.758211 0.716179 0
M  V30 11 C 2.217034 -0.200713 0.060996 0
M  V30 12 C 2.791797 1.174534 0.291791 0
M  V30 13 C 1.754530 1.983361 1.140857 0 CFG=2
M  V30 14 O 1.433223 1.280534 2.253484 0
M  V30 15 C 0.684026 2.394820 0.189218 0 CFG=2
M  V30 16 O 1.358567 3.204863 -0.785578 0
M  V30 17 C -0.480836 3.075953 0.669018 0
M  V30 18 O 0.272965 3.933794 0.111376 0
M  V30 19 C -1.765749 3.411725 1.277061 0
M  V30 20 C -2.558897 2.459270 1.831139 0
M  V30 21 C -2.028893 1.119650 1.763282 0
M  V30 22 C -2.808406 0.067324 1.025891 0 CFG=2
M  V30 23 C -4.134346 -0.274750 1.604289 0
M  V30 24 O -1.900758 -1.032319 0.958451 0
M  V30 25 C -1.502454 -1.420521 -0.313981 0
M  V30 26 O -1.416120 -1.441858 -1.560710 0
M  V30 27 H 3.848172 -4.178998 0.725459 0
M  V30 28 H 4.236445 -5.855489 1.365607 0
M  V30 29 H 3.294938 -4.621428 2.372102 0
M  V30 30 H -0.219920 -5.847659 -0.256652 0
M  V30 31 H -2.182823 -4.297755 -1.804908 0
M  V30 32 H 2.462950 -2.737813 1.145546 0
M  V30 33 H 0.447633 -0.753643 1.475701 0
M  V30 34 H 2.664470 -0.812049 -0.709602 0
M  V30 35 H 3.687115 1.105843 0.925884 0
M  V30 36 H 2.942259 1.744407 -0.616736 0
M  V30 37 H 2.336040 2.885644 1.449039 0
M  V30 38 H 1.868377 1.593393 3.083208 0
M  V30 39 H 0.456070 1.477070 -0.438394 0
M  V30 40 H 0.781506 3.195851 -1.590144 0
M  V30 41 H -1.981434 4.469438 1.224799 0
M  V30 42 H -3.482621 2.805855 2.253699 0
M  V30 43 H -2.008526 0.737080 2.838351 0
M  V30 44 H -1.032987 1.107909 1.326070 0
M  V30 45 H -2.981037 0.423737 -0.021377 0
M  V30 46 H -4.087498 -0.735761 2.603092 0
M  V30 47 H -4.792634 0.595154 1.508220 0
M  V30 48 H -4.587461 -1.050078 0.918128 0
M  V30 END ATOM
M  V30 BEGIN BOND
M  V30 1 1 1 2
M  V30 2 1 2 3
M  V30 3 2 3 4
M  V30 4 1 4 5
M  V30 5 1 5 6
M  V30 6 2 5 7
M  V30 7 1 7 8
M  V30 8 2 8 9
M  V30 9 1 8 10
M  V30 10 2 10 11
M  V30 11 1 11 12
M  V30 12 1 12 13
M  V30 13 1 13 14
M  V30 14 1 13 15
M  V30 15 1 15 16
M  V30 16 1 15 17
M  V30 17 2 17 18
M  V30 18 1 17 19
M  V30 19 2 19 20
M  V30 20 1 20 21
M  V30 21 1 21 22
M  V30 22 1 22 23
M  V30 23 1 22 24
M  V30 24 1 24 25
M  V30 25 2 25 26
M  V30 26 1 9 3
M  V30 27 1 25 7
M  V30 28 1 1 27
M  V30 29 1 1 28
M  V30 30 1 1 29
M  V30 31 1 4 30
M  V30 32 1 6 31
M  V30 33 1 9 32
M  V30 34 1 10 33
M  V30 35 1 11 34
M  V30 36 1 12 35
M  V30 37 1 12 36
M  V30 38 1 13 37 CFG=1
M  V30 39 1 14 38
M  V30 40 1 15 39 CFG=3
M  V30 41 1 16 40
M  V30 42 1 19 41
M  V30 43 1 20 42
M  V30 44 1 21 43
M  V30 45 1 21 44
M  V30 46 1 22 45 CFG=3
M  V30 47 1 23 46
M  V30 48 1 23 47
M  V30 49 1 23 48
M  V30 END BOND
M  V30 END CTAB
M  END
>  <Dataset>  (885) 
ChEMBL_Kinases

>  <Ligand_Instance>  (885) 
nan

>  <PDB_ID>  (885) 
nan

>  <Standardized_SMILES>  (885) 
COc1cc(O)c2c(c1)/C=C/C[C@H](O)[C@H](O)C(=O)/C=C\C[C@H](C)OC2=O

>  <Name>  (885) 
nan

>  <Pocket>  (885) 
nan

>  <ATP_Site>  (885) 
nan

>  <Peripheral>  (885) 
nan

>  <Num_H_Atoms_ProtBoundConf>  (885) 
nan

>  <Num_Resolved_Atoms>  (885) 
nan

>  <Num_Not_Resolved_Atoms>  (885) 
nan

$$$$
CHEMBL3648680
     RDKit          3D

  0  0  0  0  0  0  0  0  0  0999 V3000
M  V30 BEGIN CTAB
M  V30 COUNTS 54 57 0 0 0
M  V30 BEGIN ATOM
M  V30 1 C -1.146397 -5.046606 2.947116 0
M  V30 2 N -0.269524 -3.916471 2.708986 0
M  V30 3 N 0.968349 -3.909410 3.227724 0
M  V30 4 C 1.633965 -2.794470 2.892137 0
M  V30 5 C 0.769422 -2.058274 2.120870 0
M  V30 6 N 1.167679 -0.799587 1.610785 0
M  V30 7 C 2.453445 -0.233942 1.794886 0
M  V30 8 O 3.345044 -0.818948 2.434506 0
M  V30 9 C 2.874336 1.064475 1.271410 0
M  V30 10 N 2.103731 1.854229 0.567467 0
M  V30 11 C 2.389875 2.922674 0.113190 0
M  V30 12 C 1.654605 3.954366 -0.705614 0
M  V30 13 C 2.278762 5.101254 -1.075120 0
M  V30 14 F 3.557087 5.362137 -0.731371 0
M  V30 15 C 1.493439 5.975475 -1.830583 0
M  V30 16 C 0.185035 5.686925 -2.170097 0
M  V30 17 C -0.379432 4.507162 -1.760960 0
M  V30 18 C 0.357768 3.595613 -1.004036 0
M  V30 19 F -0.220156 2.431475 -0.608475 0
M  V30 20 S 4.097383 3.185443 0.615365 0
M  V30 21 C 4.170264 1.547855 1.503166 0
M  V30 22 N 5.314863 1.003832 2.217758 0
M  V30 23 C -0.398726 -2.767342 2.019193 0
M  V30 24 N -1.566432 -2.343780 1.336846 0
M  V30 25 C -2.902997 -2.831011 1.587275 0
M  V30 26 C -3.472613 -3.706115 0.529776 0
M  V30 27 C -2.489786 -4.064599 -0.564401 0 CFG=1
M  V30 28 N -2.888242 -5.291072 -1.228347 0
M  V30 29 C -2.336228 -2.919645 -1.526758 0 CFG=2
M  V30 30 F -1.063933 -2.930873 -2.065649 0
M  V30 31 C -2.512081 -1.585405 -0.850020 0
M  V30 32 C -1.494145 -1.376556 0.254818 0
M  V30 33 H -1.688882 -5.382070 2.035450 0
M  V30 34 H -1.754209 -4.980960 3.857887 0
M  V30 35 H -0.505490 -5.967048 3.161953 0
M  V30 36 H 2.633306 -2.760713 3.295561 0
M  V30 37 H 0.609409 -0.117732 1.059099 0
M  V30 38 H 1.923888 6.911751 -2.162145 0
M  V30 39 H -0.407772 6.364429 -2.749625 0
M  V30 40 H -1.420691 4.307720 -2.047054 0
M  V30 41 H 5.873807 0.358233 1.586765 0
M  V30 42 H 5.280806 1.408138 3.196797 0
M  V30 43 H -2.881332 -3.404962 2.522161 0
M  V30 44 H -3.651980 -1.979975 1.663213 0
M  V30 45 H -4.453018 -3.378740 0.114475 0
M  V30 46 H -3.720848 -4.687715 0.986229 0
M  V30 47 H -1.515305 -4.254365 -0.070759 0
M  V30 48 H -2.189396 -5.520788 -1.961946 0
M  V30 49 H -2.867447 -6.071025 -0.534217 0
M  V30 50 H -3.043803 -3.005834 -2.371483 0
M  V30 51 H -3.536012 -1.379394 -0.530332 0
M  V30 52 H -2.274339 -0.821709 -1.619756 0
M  V30 53 H -1.654772 -0.364012 0.607214 0
M  V30 54 H -0.539324 -1.595491 -0.262632 0
M  V30 END ATOM
M  V30 BEGIN BOND
M  V30 1 1 1 2
M  V30 2 1 2 3
M  V30 3 2 3 4
M  V30 4 1 4 5
M  V30 5 1 5 6
M  V30 6 1 6 7
M  V30 7 2 7 8
M  V30 8 1 7 9
M  V30 9 1 9 10
M  V30 10 2 10 11
M  V30 11 1 11 12
M  V30 12 2 12 13
M  V30 13 1 13 14
M  V30 14 1 13 15
M  V30 15 2 15 16
M  V30 16 1 16 17
M  V30 17 2 17 18
M  V30 18 1 18 19
M  V30 19 1 11 20
M  V30 20 1 20 21
M  V30 21 1 21 22
M  V30 22 2 5 23
M  V30 23 1 23 24
M  V30 24 1 24 25
M  V30 25 1 25 26
M  V30 26 1 26 27
M  V30 27 1 27 28
M  V30 28 1 27 29
M  V30 29 1 29 30
M  V30 30 1 29 31
M  V30 31 1 31 32
M  V30 32 1 23 2
M  V30 33 1 32 24
M  V30 34 2 21 9
M  V30 35 1 18 12
M  V30 36 1 1 33
M  V30 37 1 1 34
M  V30 38 1 1 35
M  V30 39 1 4 36
M  V30 40 1 6 37
M  V30 41 1 15 38
M  V30 42 1 16 39
M  V30 43 1 17 40
M  V30 44 1 22 41
M  V30 45 1 22 42
M  V30 46 1 25 43
M  V30 47 1 25 44
M  V30 48 1 26 45
M  V30 49 1 26 46
M  V30 50 1 27 47 CFG=1
M  V30 51 1 28 48
M  V30 52 1 28 49
M  V30 53 1 29 50 CFG=3
M  V30 54 1 31 51
M  V30 55 1 31 52
M  V30 56 1 32 53
M  V30 57 1 32 54
M  V30 END BOND
M  V30 END CTAB
M  END
>  <Dataset>  (886) 
ChEMBL_Kinases

>  <Ligand_Instance>  (886) 
nan

>  <PDB_ID>  (886) 
nan

>  <Standardized_SMILES>  (886) 
Cn1ncc(NC(=O)c2nc(-c3c(F)cccc3F)sc2N)c1N1CC[C@@H](N)[C@H](F)CC1

>  <Name>  (886) 
nan

>  <Pocket>  (886) 
nan

>  <ATP_Site>  (886) 
nan

>  <Peripheral>  (886) 
nan

>  <Num_H_Atoms_ProtBoundConf>  (886) 
nan

>  <Num_Resolved_Atoms>  (886) 
nan

>  <Num_Not_Resolved_Atoms>  (886) 
nan

$$$$
CHEMBL86755
     RDKit          3D

  0  0  0  0  0  0  0  0  0  0999 V3000
M  V30 BEGIN CTAB
M  V30 COUNTS 26 28 0 0 0
M  V30 BEGIN ATOM
M  V30 1 O -1.686156 -0.249323 2.209461 0
M  V30 2 C -0.541448 -0.677116 1.988436 0
M  V30 3 N 0.271697 -1.510141 2.791445 0
M  V30 4 C 1.495364 -1.709284 2.095523 0
M  V30 5 C 2.567392 -2.458887 2.525873 0
M  V30 6 C 3.711173 -2.583110 1.764463 0
M  V30 7 C 3.686753 -1.901974 0.554931 0
M  V30 8 C 2.617748 -1.146897 0.111544 0
M  V30 9 C 1.481732 -1.036359 0.890485 0
M  V30 10 C 0.199384 -0.360565 0.774988 0
M  V30 11 C -0.089960 0.341237 -0.297164 0
M  V30 12 C -1.395031 0.979563 -0.415782 0
M  V30 13 C -1.856437 2.274187 -0.687371 0
M  V30 14 C -3.228963 2.201945 -0.716530 0
M  V30 15 C -3.611148 0.917190 -0.473545 0
M  V30 16 N -2.492911 0.172291 -0.290952 0
M  V30 17 H -0.093689 -1.846733 3.713077 0
M  V30 18 H 2.561333 -2.985019 3.480054 0
M  V30 19 H 4.572053 -3.160406 2.065603 0
M  V30 20 H 4.544534 -1.951161 -0.098213 0
M  V30 21 H 2.640993 -0.640202 -0.825207 0
M  V30 22 H 0.590561 0.485536 -1.122122 0
M  V30 23 H -1.034860 2.995278 -0.806248 0
M  V30 24 H -3.677650 3.176134 -0.923347 0
M  V30 25 H -4.682500 0.776247 -0.477439 0
M  V30 26 H -2.774007 -0.839361 -0.113819 0
M  V30 END ATOM
M  V30 BEGIN BOND
M  V30 1 2 1 2
M  V30 2 1 2 3
M  V30 3 1 3 4
M  V30 4 2 4 5
M  V30 5 1 5 6
M  V30 6 2 6 7
M  V30 7 1 7 8
M  V30 8 2 8 9
M  V30 9 1 9 10
M  V30 10 2 10 11
M  V30 11 1 11 12
M  V30 12 2 12 13
M  V30 13 1 13 14
M  V30 14 2 14 15
M  V30 15 1 15 16
M  V30 16 1 10 2
M  V30 17 1 16 12
M  V30 18 1 9 4
M  V30 19 1 3 17
M  V30 20 1 5 18
M  V30 21 1 6 19
M  V30 22 1 7 20
M  V30 23 1 8 21
M  V30 24 1 11 22
M  V30 25 1 13 23
M  V30 26 1 14 24
M  V30 27 1 15 25
M  V30 28 1 16 26
M  V30 END BOND
M  V30 END CTAB
M  END
>  <Dataset>  (887) 
ChEMBL_Kinases

>  <Ligand_Instance>  (887) 
nan

>  <PDB_ID>  (887) 
nan

>  <Standardized_SMILES>  (887) 
O=C1Nc2ccccc2/C1=C/c1ccc[nH]1

>  <Name>  (887) 
nan

>  <Pocket>  (887) 
nan

>  <ATP_Site>  (887) 
nan

>  <Peripheral>  (887) 
nan

>  <Num_H_Atoms_ProtBoundConf>  (887) 
nan

>  <Num_Resolved_Atoms>  (887) 
nan

>  <Num_Not_Resolved_Atoms>  (887) 
nan

$$$$
CHEMBL2321961
     RDKit          3D

  0  0  0  0  0  0  0  0  0  0999 V3000
M  V30 BEGIN CTAB
M  V30 COUNTS 41 44 0 0 0
M  V30 BEGIN ATOM
M  V30 1 C 6.544852 -4.806732 1.499326 0
M  V30 2 O 5.396240 -4.009101 1.340008 0
M  V30 3 C 4.948615 -3.645177 0.078266 0
M  V30 4 O 5.623296 -4.066258 -0.900209 0
M  V30 5 C 3.763330 -2.820676 -0.117927 0
M  V30 6 C 3.366564 -2.491189 -1.393108 0
M  V30 7 C 2.243088 -1.711381 -1.540993 0
M  V30 8 C 1.488003 -1.238225 -0.488428 0
M  V30 9 C 1.965815 -1.622441 0.762967 0
M  V30 10 C 3.082222 -2.401403 1.001721 0
M  V30 11 N 1.040170 -1.026549 1.694834 0
M  V30 12 C 0.025943 -0.300232 1.056252 0
M  V30 13 C -0.925369 0.327158 1.675941 0
M  V30 14 C -1.117628 0.396048 3.111095 0
M  V30 15 O -0.436370 -0.113562 4.031806 0
M  V30 16 N -2.274626 1.181426 3.359500 0
M  V30 17 C -2.767707 1.578241 2.060269 0
M  V30 18 C -1.963772 1.068673 1.069969 0
M  V30 19 C -2.376821 1.407402 -0.161670 0
M  V30 20 C -3.477483 2.177586 -0.447005 0
M  V30 21 C -4.260904 2.670258 0.606154 0
M  V30 22 C -3.899500 2.364284 1.900917 0
M  V30 23 C -4.712483 2.875081 3.002647 0
M  V30 24 F -5.255791 1.887086 3.793144 0
M  V30 25 F -3.975700 3.724508 3.839363 0
M  V30 26 F -5.748898 3.651730 2.528925 0
M  V30 27 C 0.300090 -0.426865 -0.346916 0
M  V30 28 N -0.266621 0.007694 -1.353430 0
M  V30 29 O 0.128849 -0.208412 -2.621921 0
M  V30 30 H 6.389277 -5.564140 2.290772 0
M  V30 31 H 6.786930 -5.314531 0.534116 0
M  V30 32 H 7.399415 -4.172389 1.841398 0
M  V30 33 H 3.957784 -2.861815 -2.213778 0
M  V30 34 H 2.007640 -1.503659 -2.573365 0
M  V30 35 H 3.393667 -2.659385 1.988001 0
M  V30 36 H 1.146117 -1.144952 2.723142 0
M  V30 37 H -2.649465 1.396499 4.330549 0
M  V30 38 H -1.954943 1.156951 -1.064948 0
M  V30 39 H -3.874941 2.494316 -1.423630 0
M  V30 40 H -5.137315 3.280284 0.452152 0
M  V30 41 H -0.368739 -0.632202 -3.370824 0
M  V30 END ATOM
M  V30 BEGIN BOND
M  V30 1 1 1 2
M  V30 2 1 2 3
M  V30 3 2 3 4
M  V30 4 1 3 5
M  V30 5 2 5 6
M  V30 6 1 6 7
M  V30 7 2 7 8
M  V30 8 1 8 9
M  V30 9 2 9 10
M  V30 10 1 9 11
M  V30 11 1 11 12
M  V30 12 2 12 13
M  V30 13 1 13 14
M  V30 14 2 14 15
M  V30 15 1 14 16
M  V30 16 1 16 17
M  V30 17 2 17 18
M  V30 18 1 18 19
M  V30 19 2 19 20
M  V30 20 1 20 21
M  V30 21 2 21 22
M  V30 22 1 22 23
M  V30 23 1 23 24
M  V30 24 1 23 25
M  V30 25 1 23 26
M  V30 26 1 12 27
M  V30 27 2 27 28
M  V30 28 1 28 29
M  V30 29 1 10 5
M  V30 30 1 18 13
M  V30 31 1 27 8
M  V30 32 1 22 17
M  V30 33 1 1 30
M  V30 34 1 1 31
M  V30 35 1 1 32
M  V30 36 1 6 33
M  V30 37 1 7 34
M  V30 38 1 10 35
M  V30 39 1 11 36
M  V30 40 1 16 37
M  V30 41 1 19 38
M  V30 42 1 20 39
M  V30 43 1 21 40
M  V30 44 1 29 41
M  V30 END BOND
M  V30 END CTAB
M  END
>  <Dataset>  (888) 
ChEMBL_Kinases

>  <Ligand_Instance>  (888) 
nan

>  <PDB_ID>  (888) 
nan

>  <Standardized_SMILES>  (888) 
COC(=O)c1ccc2c(c1)NC(=C1\C(=O)Nc3c1cccc3C(F)(F)F)/C2=N/O

>  <Name>  (888) 
nan

>  <Pocket>  (888) 
nan

>  <ATP_Site>  (888) 
nan

>  <Peripheral>  (888) 
nan

>  <Num_H_Atoms_ProtBoundConf>  (888) 
nan

>  <Num_Resolved_Atoms>  (888) 
nan

>  <Num_Not_Resolved_Atoms>  (888) 
nan

$$$$
CHEMBL3330260
     RDKit          3D

  0  0  0  0  0  0  0  0  0  0999 V3000
M  V30 BEGIN CTAB
M  V30 COUNTS 58 61 0 0 0
M  V30 BEGIN ATOM
M  V30 1 C 3.001176 3.027032 3.561204 0
M  V30 2 C 2.887555 1.540032 3.827925 0
M  V30 3 C 3.707435 0.840158 2.815161 0
M  V30 4 C 4.955830 0.286124 3.108696 0
M  V30 5 C 5.656851 -0.355626 2.100506 0
M  V30 6 C 5.179859 -0.475054 0.812913 0
M  V30 7 C 3.933325 0.073896 0.503865 0
M  V30 8 C 3.339251 0.004017 -0.846750 0
M  V30 9 C 3.516689 1.371435 -1.474017 0
M  V30 10 C 3.246016 0.709840 1.516860 0
M  V30 11 N 1.952193 1.279930 1.229942 0
M  V30 12 C 0.919621 0.330261 1.502853 0
M  V30 13 O 1.377217 -0.779446 1.929863 0
M  V30 14 N -0.444849 0.671786 1.293215 0
M  V30 15 C -1.656197 -0.012493 1.468864 0
M  V30 16 C -2.143764 0.218101 2.741957 0
M  V30 17 C -3.339269 -0.329206 3.219103 0
M  V30 18 C -4.071403 -1.150562 2.355531 0
M  V30 19 N -5.222756 -1.843463 2.418700 0
M  V30 20 N -5.452719 -2.466475 1.279428 0
M  V30 21 C -4.438721 -2.201772 0.403039 0
M  V30 22 C -4.341842 -2.717323 -0.961751 0
M  V30 23 C -5.492042 -2.663690 -1.758830 0
M  V30 24 C -5.357386 -3.166530 -3.036694 0
M  V30 25 C -4.193130 -3.707098 -3.572152 0
M  V30 26 C -3.089488 -3.743540 -2.765736 0
M  V30 27 S -1.563088 -4.409830 -3.328746 0
M  V30 28 N -0.633020 -3.175451 -4.076454 0
M  V30 29 O -0.805149 -4.913668 -2.128841 0
M  V30 30 O -1.809533 -5.504045 -4.323548 0
M  V30 31 C -3.178499 -3.249772 -1.476319 0
M  V30 32 C -3.571647 -1.373065 1.084550 0
M  V30 33 C -2.399260 -0.827072 0.638230 0
M  V30 34 H 2.141724 3.569840 4.036740 0
M  V30 35 H 3.086840 3.252890 2.494099 0
M  V30 36 H 3.903141 3.445107 4.068011 0
M  V30 37 H 3.364702 1.363422 4.814656 0
M  V30 38 H 1.824244 1.224590 3.803120 0
M  V30 39 H 5.341218 0.372444 4.113397 0
M  V30 40 H 6.640773 -0.799109 2.308865 0
M  V30 41 H 5.738593 -0.978967 0.035847 0
M  V30 42 H 3.901328 -0.746437 -1.435659 0
M  V30 43 H 2.277328 -0.315538 -0.847254 0
M  V30 44 H 3.885497 2.129686 -0.732615 0
M  V30 45 H 2.548116 1.721792 -1.849125 0
M  V30 46 H 4.298364 1.323951 -2.287868 0
M  V30 47 H 1.637940 2.229279 0.870049 0
M  V30 48 H -0.675362 1.621855 0.929257 0
M  V30 49 H -1.701220 0.831609 3.543604 0
M  V30 50 H -3.771136 -0.196031 4.177491 0
M  V30 51 H -5.800836 -1.834344 3.297916 0
M  V30 52 H -6.452740 -2.260477 -1.436671 0
M  V30 53 H -6.252299 -3.128964 -3.669650 0
M  V30 54 H -4.145029 -4.086032 -4.577756 0
M  V30 55 H -0.645113 -2.294518 -3.507804 0
M  V30 56 H 0.350472 -3.529027 -4.122548 0
M  V30 57 H -2.284490 -3.296480 -0.870328 0
M  V30 58 H -1.936701 -0.945818 -0.331078 0
M  V30 END ATOM
M  V30 BEGIN BOND
M  V30 1 1 1 2
M  V30 2 1 2 3
M  V30 3 2 3 4
M  V30 4 1 4 5
M  V30 5 2 5 6
M  V30 6 1 6 7
M  V30 7 1 7 8
M  V30 8 1 8 9
M  V30 9 2 7 10
M  V30 10 1 10 11
M  V30 11 1 11 12
M  V30 12 2 12 13
M  V30 13 1 12 14
M  V30 14 1 14 15
M  V30 15 2 15 16
M  V30 16 1 16 17
M  V30 17 2 17 18
M  V30 18 1 18 19
M  V30 19 1 19 20
M  V30 20 2 20 21
M  V30 21 1 21 22
M  V30 22 2 22 23
M  V30 23 1 23 24
M  V30 24 2 24 25
M  V30 25 1 25 26
M  V30 26 1 26 27
M  V30 27 1 27 28
M  V30 28 2 27 29
M  V30 29 2 27 30
M  V30 30 2 26 31
M  V30 31 1 21 32
M  V30 32 2 32 33
M  V30 33 1 10 3
M  V30 34 1 33 15
M  V30 35 1 32 18
M  V30 36 1 31 22
M  V30 37 1 1 34
M  V30 38 1 1 35
M  V30 39 1 1 36
M  V30 40 1 2 37
M  V30 41 1 2 38
M  V30 42 1 4 39
M  V30 43 1 5 40
M  V30 44 1 6 41
M  V30 45 1 8 42
M  V30 46 1 8 43
M  V30 47 1 9 44
M  V30 48 1 9 45
M  V30 49 1 9 46
M  V30 50 1 11 47
M  V30 51 1 14 48
M  V30 52 1 16 49
M  V30 53 1 17 50
M  V30 54 1 19 51
M  V30 55 1 23 52
M  V30 56 1 24 53
M  V30 57 1 25 54
M  V30 58 1 28 55
M  V30 59 1 28 56
M  V30 60 1 31 57
M  V30 61 1 33 58
M  V30 END BOND
M  V30 END CTAB
M  END
>  <Dataset>  (889) 
ChEMBL_Kinases

>  <Ligand_Instance>  (889) 
nan

>  <PDB_ID>  (889) 
nan

>  <Standardized_SMILES>  (889) 
CCc1cccc(CC)c1NC(=O)Nc1ccc2[nH]nc(-c3cccc(S(N)(=O)=O)c3)c2c1

>  <Name>  (889) 
nan

>  <Pocket>  (889) 
nan

>  <ATP_Site>  (889) 
nan

>  <Peripheral>  (889) 
nan

>  <Num_H_Atoms_ProtBoundConf>  (889) 
nan

>  <Num_Resolved_Atoms>  (889) 
nan

>  <Num_Not_Resolved_Atoms>  (889) 
nan

$$$$
CHEMBL398606
     RDKit          3D

  0  0  0  0  0  0  0  0  0  0999 V3000
M  V30 BEGIN CTAB
M  V30 COUNTS 57 60 0 0 0
M  V30 BEGIN ATOM
M  V30 1 C 2.884573 -0.385858 3.168042 0
M  V30 2 C 4.174030 -1.157252 3.089780 0
M  V30 3 C 3.811025 -2.633676 3.380230 0
M  V30 4 N 4.845799 -1.054369 1.858289 0
M  V30 5 C 5.392174 0.136584 1.382938 0
M  V30 6 C 4.389622 1.155999 1.030053 0
M  V30 7 C 3.865553 2.240855 1.694071 0
M  V30 8 C 2.916382 3.066639 1.172840 0
M  V30 9 C 2.405587 2.864033 -0.085685 0
M  V30 10 N 1.409966 3.618583 -0.745817 0
M  V30 11 C 0.200831 3.043638 -0.227485 0
M  V30 12 C -0.334861 1.874470 -0.715526 0
M  V30 13 C -1.521360 1.507488 -0.063792 0
M  V30 14 C -2.331856 0.328030 -0.327700 0
M  V30 15 C -3.465395 0.113527 0.421068 0
M  V30 16 C -4.263501 -0.996024 0.210962 0
M  V30 17 C -3.892006 -1.902597 -0.785816 0
M  V30 18 C -4.634836 -3.116793 -1.122544 0
M  V30 19 C -6.000541 -3.223735 -1.283883 0
M  V30 20 C -6.616623 -4.415843 -1.605715 0
M  V30 21 C -5.860423 -5.578905 -1.782444 0
M  V30 22 O -6.514296 -6.758895 -2.105834 0
M  V30 23 C -4.484685 -5.447263 -1.614340 0
M  V30 24 C -3.876430 -4.255225 -1.293437 0
M  V30 25 O -2.491007 -4.381297 -1.181218 0
M  V30 26 C -2.736119 -1.660670 -1.532205 0
M  V30 27 C -1.933346 -0.541770 -1.318631 0
M  V30 28 N -1.652024 2.511438 0.820566 0
M  V30 29 N -0.671322 3.393531 0.733471 0
M  V30 30 C 2.895819 1.782290 -0.807948 0
M  V30 31 C 3.873518 0.940317 -0.259105 0
M  V30 32 H 2.429554 -0.162893 2.187339 0
M  V30 33 H 2.125533 -0.974685 3.751196 0
M  V30 34 H 3.079221 0.528268 3.777236 0
M  V30 35 H 4.892183 -0.828909 3.890045 0
M  V30 36 H 3.180624 -3.026407 2.551899 0
M  V30 37 H 4.754082 -3.201321 3.496425 0
M  V30 38 H 3.247695 -2.684623 4.332184 0
M  V30 39 H 4.403514 -1.670468 1.142897 0
M  V30 40 H 6.100667 0.585727 2.152244 0
M  V30 41 H 6.076819 -0.024517 0.506117 0
M  V30 42 H 4.308267 2.345584 2.677428 0
M  V30 43 H 2.541027 3.898765 1.733352 0
M  V30 44 H 1.477709 4.397672 -1.434459 0
M  V30 45 H 0.105946 1.275596 -1.527551 0
M  V30 46 H -3.789499 0.806257 1.211651 0
M  V30 47 H -5.168179 -1.219197 0.767227 0
M  V30 48 H -6.549119 -2.295403 -1.137584 0
M  V30 49 H -7.699047 -4.415932 -1.715158 0
M  V30 50 H -5.960633 -7.602271 -2.244302 0
M  V30 51 H -3.984455 -6.406480 -1.771083 0
M  V30 52 H -2.076937 -4.413176 -0.269462 0
M  V30 53 H -2.428231 -2.348001 -2.313269 0
M  V30 54 H -1.037248 -0.393538 -1.926952 0
M  V30 55 H -2.456505 2.563940 1.496707 0
M  V30 56 H 2.522267 1.569749 -1.822876 0
M  V30 57 H 4.182509 0.115261 -0.923344 0
M  V30 END ATOM
M  V30 BEGIN BOND
M  V30 1 1 1 2
M  V30 2 1 2 3
M  V30 3 1 2 4
M  V30 4 1 4 5
M  V30 5 1 5 6
M  V30 6 2 6 7
M  V30 7 1 7 8
M  V30 8 2 8 9
M  V30 9 1 9 10
M  V30 10 1 10 11
M  V30 11 1 11 12
M  V30 12 2 12 13
M  V30 13 1 13 14
M  V30 14 2 14 15
M  V30 15 1 15 16
M  V30 16 2 16 17
M  V30 17 1 17 18
M  V30 18 2 18 19
M  V30 19 1 19 20
M  V30 20 2 20 21
M  V30 21 1 21 22
M  V30 22 1 21 23
M  V30 23 2 23 24
M  V30 24 1 24 25
M  V30 25 1 17 26
M  V30 26 2 26 27
M  V30 27 1 13 28
M  V30 28 1 28 29
M  V30 29 1 9 30
M  V30 30 2 30 31
M  V30 31 1 31 6
M  V30 32 2 29 11
M  V30 33 1 27 14
M  V30 34 1 24 18
M  V30 35 1 1 32
M  V30 36 1 1 33
M  V30 37 1 1 34
M  V30 38 1 2 35
M  V30 39 1 3 36
M  V30 40 1 3 37
M  V30 41 1 3 38
M  V30 42 1 4 39
M  V30 43 1 5 40
M  V30 44 1 5 41
M  V30 45 1 7 42
M  V30 46 1 8 43
M  V30 47 1 10 44
M  V30 48 1 12 45
M  V30 49 1 15 46
M  V30 50 1 16 47
M  V30 51 1 19 48
M  V30 52 1 20 49
M  V30 53 1 22 50
M  V30 54 1 23 51
M  V30 55 1 25 52
M  V30 56 1 26 53
M  V30 57 1 27 54
M  V30 58 1 28 55
M  V30 59 1 30 56
M  V30 60 1 31 57
M  V30 END BOND
M  V30 END CTAB
M  END
>  <Dataset>  (890) 
ChEMBL_Kinases

>  <Ligand_Instance>  (890) 
nan

>  <PDB_ID>  (890) 
nan

>  <Standardized_SMILES>  (890) 
CC(C)NCc1ccc(Nc2cc(-c3ccc(-c4ccc(O)cc4O)cc3)[nH]n2)cc1

>  <Name>  (890) 
nan

>  <Pocket>  (890) 
nan

>  <ATP_Site>  (890) 
nan

>  <Peripheral>  (890) 
nan

>  <Num_H_Atoms_ProtBoundConf>  (890) 
nan

>  <Num_Resolved_Atoms>  (890) 
nan

>  <Num_Not_Resolved_Atoms>  (890) 
nan

$$$$
CHEMBL3989870
     RDKit          3D

  0  0  0  0  0  0  0  0  0  0999 V3000
M  V30 BEGIN CTAB
M  V30 COUNTS 58 61 0 0 0
M  V30 BEGIN ATOM
M  V30 1 C 5.166285 -3.282500 4.867996 0
M  V30 2 N 6.237139 -2.347308 5.163197 0
M  V30 3 C 5.817566 -0.991949 4.979353 0
M  V30 4 C 5.373470 -0.682653 3.600390 0
M  V30 5 C 6.182872 -0.231615 2.598768 0
M  V30 6 C 5.738952 0.049063 1.319288 0
M  V30 7 C 4.391990 -0.158581 1.105798 0
M  V30 8 C 3.833880 0.111220 -0.215046 0
M  V30 9 C 2.522437 -0.033082 -0.621650 0
M  V30 10 C 2.413498 0.328273 -1.948118 0
M  V30 11 C 1.197766 0.318484 -2.754292 0
M  V30 12 N 0.038619 -0.073053 -2.195186 0
M  V30 13 C -1.122075 -0.111570 -2.861653 0
M  V30 14 C -2.320020 -0.552934 -2.157057 0
M  V30 15 C -2.186382 -0.909012 -0.831105 0
M  V30 16 C -3.277654 -1.341576 -0.082948 0
M  V30 17 C -4.518791 -1.413363 -0.688200 0
M  V30 18 S -5.821231 -1.967701 0.336479 0
M  V30 19 O -5.343460 -2.950103 1.367167 0
M  V30 20 O -6.891654 -2.687297 -0.464147 0
M  V30 21 C -6.635600 -0.652495 1.182089 0
M  V30 22 C -7.344458 0.258973 0.214737 0
M  V30 23 C -7.624415 -1.321665 2.144593 0
M  V30 24 C -4.674450 -1.061595 -2.014486 0
M  V30 25 C -3.565816 -0.631242 -2.743007 0
M  V30 26 C -1.084271 0.276141 -4.180418 0
M  V30 27 N 0.072472 0.668632 -4.744589 0
M  V30 28 C 1.239468 0.707789 -4.076031 0
M  V30 29 N 2.438237 1.129920 -4.714442 0
M  V30 30 O 3.623663 0.676106 -2.316201 0
M  V30 31 N 4.457512 0.555466 -1.322223 0
M  V30 32 C 3.544214 -0.613364 2.093839 0
M  V30 33 C 4.015300 -0.885199 3.361493 0
M  V30 34 H 4.215529 -3.005672 5.403186 0
M  V30 35 H 4.939666 -3.186647 3.788028 0
M  V30 36 H 5.452775 -4.324190 5.049824 0
M  V30 37 H 6.524926 -2.432759 6.164966 0
M  V30 38 H 5.000583 -0.774001 5.711615 0
M  V30 39 H 6.660907 -0.324770 5.243827 0
M  V30 40 H 7.235346 -0.103218 2.882476 0
M  V30 41 H 6.431680 0.404073 0.569390 0
M  V30 42 H 1.674374 -0.378284 -0.012935 0
M  V30 43 H -1.223090 -0.866938 -0.314190 0
M  V30 44 H -3.120355 -1.611611 0.961300 0
M  V30 45 H -5.944940 -0.074641 1.846382 0
M  V30 46 H -7.171239 1.302861 0.550747 0
M  V30 47 H -8.446516 0.090105 0.349648 0
M  V30 48 H -7.017281 0.093972 -0.832077 0
M  V30 49 H -8.110432 -0.565327 2.785831 0
M  V30 50 H -8.328385 -1.941537 1.569773 0
M  V30 51 H -7.028493 -1.999165 2.788406 0
M  V30 52 H -5.658879 -1.132518 -2.445949 0
M  V30 53 H -3.685148 -0.356300 -3.777719 0
M  V30 54 H -2.003922 0.257152 -4.748381 0
M  V30 55 H 2.277832 1.970728 -5.345695 0
M  V30 56 H 3.402747 0.735349 -4.641762 0
M  V30 57 H 2.488835 -0.757105 1.861218 0
M  V30 58 H 3.283020 -1.237621 4.074966 0
M  V30 END ATOM
M  V30 BEGIN BOND
M  V30 1 1 1 2
M  V30 2 1 2 3
M  V30 3 1 3 4
M  V30 4 2 4 5
M  V30 5 1 5 6
M  V30 6 2 6 7
M  V30 7 1 7 8
M  V30 8 1 8 9
M  V30 9 2 9 10
M  V30 10 1 10 11
M  V30 11 2 11 12
M  V30 12 1 12 13
M  V30 13 1 13 14
M  V30 14 2 14 15
M  V30 15 1 15 16
M  V30 16 2 16 17
M  V30 17 1 17 18
M  V30 18 2 18 19
M  V30 19 2 18 20
M  V30 20 1 18 21
M  V30 21 1 21 22
M  V30 22 1 21 23
M  V30 23 1 17 24
M  V30 24 2 24 25
M  V30 25 2 13 26
M  V30 26 1 26 27
M  V30 27 2 27 28
M  V30 28 1 28 29
M  V30 29 1 10 30
M  V30 30 1 30 31
M  V30 31 1 7 32
M  V30 32 2 32 33
M  V30 33 1 33 4
M  V30 34 2 31 8
M  V30 35 1 28 11
M  V30 36 1 25 14
M  V30 37 1 1 34
M  V30 38 1 1 35
M  V30 39 1 1 36
M  V30 40 1 2 37
M  V30 41 1 3 38
M  V30 42 1 3 39
M  V30 43 1 5 40
M  V30 44 1 6 41
M  V30 45 1 9 42
M  V30 46 1 15 43
M  V30 47 1 16 44
M  V30 48 1 21 45
M  V30 49 1 22 46
M  V30 50 1 22 47
M  V30 51 1 22 48
M  V30 52 1 23 49
M  V30 53 1 23 50
M  V30 54 1 23 51
M  V30 55 1 24 52
M  V30 56 1 25 53
M  V30 57 1 26 54
M  V30 58 1 29 55
M  V30 59 1 29 56
M  V30 60 1 32 57
M  V30 61 1 33 58
M  V30 END BOND
M  V30 END CTAB
M  END
>  <Dataset>  (891) 
ChEMBL_Kinases

>  <Ligand_Instance>  (891) 
nan

>  <PDB_ID>  (891) 
nan

>  <Standardized_SMILES>  (891) 
CNCc1ccc(-c2cc(-c3nc(-c4ccc(S(=O)(=O)C(C)C)cc4)cnc3N)on2)cc1

>  <Name>  (891) 
BERZOSERTIB

>  <Pocket>  (891) 
nan

>  <ATP_Site>  (891) 
nan

>  <Peripheral>  (891) 
nan

>  <Num_H_Atoms_ProtBoundConf>  (891) 
nan

>  <Num_Resolved_Atoms>  (891) 
nan

>  <Num_Not_Resolved_Atoms>  (891) 
nan

$$$$
CHEMBL5087558
     RDKit          3D

  0  0  0  0  0  0  0  0  0  0999 V3000
M  V30 BEGIN CTAB
M  V30 COUNTS 54 57 0 0 0
M  V30 BEGIN ATOM
M  V30 1 C 3.302939 1.851304 3.848656 0
M  V30 2 C 2.452422 0.741716 4.426367 0
M  V30 3 C 1.526347 1.401121 5.425820 0
M  V30 4 C 3.373600 -0.173789 5.185841 0
M  V30 5 N 1.645138 0.089508 3.445566 0
M  V30 6 C 2.204799 -0.564902 2.336780 0
M  V30 7 O 3.455682 -0.462283 2.402039 0
M  V30 8 C 1.675501 -1.284209 1.206940 0
M  V30 9 C 2.497771 -1.885543 0.290575 0
M  V30 10 C 1.999570 -2.610259 -0.767819 0
M  V30 11 C 0.635493 -2.723739 -0.891656 0
M  V30 12 C -0.187199 -2.121594 0.029457 0
M  V30 13 C 0.321881 -1.394968 1.083066 0
M  V30 14 O -0.747265 -0.884683 1.848777 0
M  V30 15 C -1.327713 0.364799 1.504890 0
M  V30 16 C -1.844145 0.331097 0.071172 0
M  V30 17 O -2.398303 1.519506 -0.293146 0
M  V30 18 C -2.817285 1.647483 -1.572819 0
M  V30 19 C -3.877115 0.773552 -2.108055 0
M  V30 20 N -3.655594 -0.634787 -2.179552 0
M  V30 21 C -2.902178 -1.715448 -2.688806 0
M  V30 22 C -3.285676 -2.493614 -3.778458 0
M  V30 23 C -2.501777 -3.554920 -4.236606 0
M  V30 24 N -1.340845 -3.876608 -3.647054 0
M  V30 25 N -0.390500 -4.777141 -3.796091 0
M  V30 26 C 0.527287 -4.531968 -2.812774 0
M  V30 27 C 0.144067 -3.462253 -2.038458 0
M  V30 28 C -1.038043 -3.093413 -2.614734 0
M  V30 29 N -1.748042 -2.081546 -2.150765 0
M  V30 30 H 2.660580 2.467433 3.187153 0
M  V30 31 H 3.597203 2.482524 4.722429 0
M  V30 32 H 4.230415 1.514084 3.377710 0
M  V30 33 H 0.601623 0.790617 5.473153 0
M  V30 34 H 1.986654 1.405333 6.450311 0
M  V30 35 H 1.228841 2.415312 5.095998 0
M  V30 36 H 4.360240 -0.246032 4.682099 0
M  V30 37 H 3.519862 0.248783 6.197748 0
M  V30 38 H 2.913746 -1.179824 5.283041 0
M  V30 39 H 0.607360 0.037166 3.477028 0
M  V30 40 H 3.563498 -1.774511 0.422087 0
M  V30 41 H 2.642400 -3.085416 -1.490993 0
M  V30 42 H -1.245285 -2.285123 -0.101373 0
M  V30 43 H -2.193671 0.527939 2.172225 0
M  V30 44 H -0.622047 1.210347 1.630196 0
M  V30 45 H -2.673502 -0.421743 0.078149 0
M  V30 46 H -1.017317 0.108093 -0.598377 0
M  V30 47 H -1.935639 1.589102 -2.302294 0
M  V30 48 H -3.169270 2.709258 -1.762219 0
M  V30 49 H -4.160854 1.194464 -3.123411 0
M  V30 50 H -4.799494 0.978845 -1.497547 0
M  V30 51 H -4.284058 -1.295143 -1.672896 0
M  V30 52 H -4.238066 -2.149762 -4.163620 0
M  V30 53 H -2.851316 -4.108495 -5.073867 0
M  V30 54 H 1.468241 -5.049123 -2.583184 0
M  V30 END ATOM
M  V30 BEGIN BOND
M  V30 1 1 1 2
M  V30 2 1 2 3
M  V30 3 1 2 4
M  V30 4 1 2 5
M  V30 5 1 5 6
M  V30 6 2 6 7
M  V30 7 1 6 8
M  V30 8 2 8 9
M  V30 9 1 9 10
M  V30 10 2 10 11
M  V30 11 1 11 12
M  V30 12 2 12 13
M  V30 13 1 13 14
M  V30 14 1 14 15
M  V30 15 1 15 16
M  V30 16 1 16 17
M  V30 17 1 17 18
M  V30 18 1 18 19
M  V30 19 1 19 20
M  V30 20 1 20 21
M  V30 21 1 21 22
M  V30 22 2 22 23
M  V30 23 1 23 24
M  V30 24 1 24 25
M  V30 25 2 25 26
M  V30 26 1 26 27
M  V30 27 2 27 28
M  V30 28 1 28 29
M  V30 29 1 13 8
M  V30 30 2 29 21
M  V30 31 1 27 11
M  V30 32 1 28 24
M  V30 33 1 1 30
M  V30 34 1 1 31
M  V30 35 1 1 32
M  V30 36 1 3 33
M  V30 37 1 3 34
M  V30 38 1 3 35
M  V30 39 1 4 36
M  V30 40 1 4 37
M  V30 41 1 4 38
M  V30 42 1 5 39
M  V30 43 1 9 40
M  V30 44 1 10 41
M  V30 45 1 12 42
M  V30 46 1 15 43
M  V30 47 1 15 44
M  V30 48 1 16 45
M  V30 49 1 16 46
M  V30 50 1 18 47
M  V30 51 1 18 48
M  V30 52 1 19 49
M  V30 53 1 19 50
M  V30 54 1 20 51
M  V30 55 1 22 52
M  V30 56 1 23 53
M  V30 57 1 26 54
M  V30 END BOND
M  V30 END CTAB
M  END
>  <Dataset>  (892) 
ChEMBL_Kinases

>  <Ligand_Instance>  (892) 
nan

>  <PDB_ID>  (892) 
nan

>  <Standardized_SMILES>  (892) 
CC(C)(C)NC(=O)c1ccc2cc1OCCOCCNc1ccn3ncc-2c3n1

>  <Name>  (892) 
nan

>  <Pocket>  (892) 
nan

>  <ATP_Site>  (892) 
nan

>  <Peripheral>  (892) 
nan

>  <Num_H_Atoms_ProtBoundConf>  (892) 
nan

>  <Num_Resolved_Atoms>  (892) 
nan

>  <Num_Not_Resolved_Atoms>  (892) 
nan

$$$$
CHEMBL7917
     RDKit          3D

  0  0  0  0  0  0  0  0  0  0999 V3000
M  V30 BEGIN CTAB
M  V30 COUNTS 36 38 0 0 0
M  V30 BEGIN ATOM
M  V30 1 C -0.491237 -5.409668 2.662573 0
M  V30 2 O -0.782822 -4.034332 2.781332 0
M  V30 3 C -0.122813 -3.058329 2.054446 0
M  V30 4 C 0.873380 -3.450822 1.185913 0
M  V30 5 C 1.569480 -2.521176 0.432296 0
M  V30 6 N 2.565663 -2.829122 -0.431995 0
M  V30 7 C 3.213254 -1.901436 -1.127843 0
M  V30 8 N 2.900788 -0.601644 -1.000059 0
M  V30 9 C 1.926396 -0.169998 -0.170506 0
M  V30 10 N 1.523350 1.189668 0.040807 0
M  V30 11 C 0.684493 2.036279 -0.756199 0
M  V30 12 C 0.324930 3.273227 -0.267309 0
M  V30 13 C -0.477325 4.000910 -1.142569 0
M  V30 14 C -0.882941 3.538660 -2.387782 0
M  V30 15 C -0.471307 2.286370 -2.788601 0
M  V30 16 Cl -1.001444 1.731299 -4.375514 0
M  V30 17 C 0.333875 1.492707 -1.971159 0
M  V30 18 C 1.261719 -1.169840 0.550077 0
M  V30 19 C 0.259510 -0.822012 1.429152 0
M  V30 20 C -0.451226 -1.717874 2.192641 0
M  V30 21 O -1.462470 -1.449106 3.091297 0
M  V30 22 C -1.911442 -0.147596 3.348266 0
M  V30 23 H 0.435563 -5.690829 3.214838 0
M  V30 24 H -0.366593 -5.613119 1.567725 0
M  V30 25 H -1.289356 -6.065292 3.008453 0
M  V30 26 H 1.204339 -4.463295 1.005221 0
M  V30 27 H 4.023095 -2.158699 -1.829054 0
M  V30 28 H 1.965699 1.496108 0.927770 0
M  V30 29 H 0.625425 3.657133 0.695141 0
M  V30 30 H -0.813332 5.004411 -0.835653 0
M  V30 31 H -1.505095 4.149944 -3.019750 0
M  V30 32 H 0.650456 0.515950 -2.295096 0
M  V30 33 H 0.016647 0.205185 1.523663 0
M  V30 34 H -2.121766 -0.078605 4.459785 0
M  V30 35 H -1.109561 0.562325 3.153329 0
M  V30 36 H -2.883665 0.085747 2.869343 0
M  V30 END ATOM
M  V30 BEGIN BOND
M  V30 1 1 1 2
M  V30 2 1 2 3
M  V30 3 2 3 4
M  V30 4 1 4 5
M  V30 5 2 5 6
M  V30 6 1 6 7
M  V30 7 2 7 8
M  V30 8 1 8 9
M  V30 9 1 9 10
M  V30 10 1 10 11
M  V30 11 2 11 12
M  V30 12 1 12 13
M  V30 13 2 13 14
M  V30 14 1 14 15
M  V30 15 1 15 16
M  V30 16 2 15 17
M  V30 17 2 9 18
M  V30 18 1 18 19
M  V30 19 2 19 20
M  V30 20 1 20 21
M  V30 21 1 21 22
M  V30 22 1 20 3
M  V30 23 1 18 5
M  V30 24 1 17 11
M  V30 25 1 1 23
M  V30 26 1 1 24
M  V30 27 1 1 25
M  V30 28 1 4 26
M  V30 29 1 7 27
M  V30 30 1 10 28
M  V30 31 1 12 29
M  V30 32 1 13 30
M  V30 33 1 14 31
M  V30 34 1 17 32
M  V30 35 1 19 33
M  V30 36 1 22 34
M  V30 37 1 22 35
M  V30 38 1 22 36
M  V30 END BOND
M  V30 END CTAB
M  END
>  <Dataset>  (893) 
ChEMBL_Kinases

>  <Ligand_Instance>  (893) 
nan

>  <PDB_ID>  (893) 
nan

>  <Standardized_SMILES>  (893) 
COc1cc2ncnc(Nc3cccc(Cl)c3)c2cc1OC

>  <Name>  (893) 
TYRPHOSTIN AG-1478

>  <Pocket>  (893) 
nan

>  <ATP_Site>  (893) 
nan

>  <Peripheral>  (893) 
nan

>  <Num_H_Atoms_ProtBoundConf>  (893) 
nan

>  <Num_Resolved_Atoms>  (893) 
nan

>  <Num_Not_Resolved_Atoms>  (893) 
nan

$$$$
CHEMBL210963
     RDKit          3D

  0  0  0  0  0  0  0  0  0  0999 V3000
M  V30 BEGIN CTAB
M  V30 COUNTS 52 53 0 0 0
M  V30 BEGIN ATOM
M  V30 1 C 0.121968 -1.151157 3.158240 0
M  V30 2 C 1.392936 -1.732530 3.714376 0
M  V30 3 O 1.344360 -3.143882 3.500086 0
M  V30 4 C 1.210913 -3.589066 2.166875 0
M  V30 5 N 1.129745 -2.749553 1.160762 0
M  V30 6 C 0.995701 -3.052684 -0.148134 0
M  V30 7 N 0.929255 -1.840195 -0.916802 0
M  V30 8 C 1.943514 -1.105084 -1.592629 0
M  V30 9 O 3.099136 -1.593460 -1.520943 0
M  V30 10 C 1.505944 0.161411 -2.293052 0
M  V30 11 C 0.507507 0.825250 -1.422230 0
M  V30 12 C 0.993231 1.524460 -0.354069 0
M  V30 13 C 0.253494 2.123483 0.627428 0
M  V30 14 O 0.628750 2.842178 1.736642 0
M  V30 15 C 1.959844 3.100063 2.105989 0
M  V30 16 C -1.145669 2.006754 0.517210 0
M  V30 17 S -2.193222 2.719565 1.747870 0
M  V30 18 C -3.909445 2.495286 1.366607 0
M  V30 19 O -1.889610 2.067879 3.079044 0
M  V30 20 O -1.865468 4.176354 1.913243 0
M  V30 21 C -1.710437 1.305275 -0.550627 0
M  V30 22 C -0.884252 0.731550 -1.491546 0
M  V30 23 O -1.405301 0.026908 -2.571196 0
M  V30 24 C -2.791679 -0.086445 -2.697298 0
M  V30 25 C 0.942237 -4.372467 -0.482481 0
M  V30 26 C 1.021288 -5.326136 0.516987 0
M  V30 27 N 0.974566 -6.661504 0.080415 0
M  V30 28 C 1.151078 -4.905978 1.803298 0
M  V30 29 C 1.223688 -5.917116 2.802387 0
M  V30 30 N 1.279366 -6.724562 3.625757 0
M  V30 31 H -0.674598 -1.906065 3.225058 0
M  V30 32 H 0.263389 -0.785231 2.111106 0
M  V30 33 H -0.130661 -0.248878 3.777203 0
M  V30 34 H 1.433884 -1.497149 4.785791 0
M  V30 35 H 2.254044 -1.332572 3.177338 0
M  V30 36 H -0.106521 -1.591517 -0.847337 0
M  V30 37 H 2.444004 0.793343 -2.264755 0
M  V30 38 H 1.201353 -0.004020 -3.323401 0
M  V30 39 H 2.044838 1.657560 -0.220103 0
M  V30 40 H 2.100356 2.688251 3.142269 0
M  V30 41 H 2.145430 4.179384 2.104846 0
M  V30 42 H 2.655817 2.544764 1.449589 0
M  V30 43 H -4.533981 2.794695 2.205478 0
M  V30 44 H -4.162199 3.173623 0.518653 0
M  V30 45 H -4.070598 1.447504 1.017513 0
M  V30 46 H -2.787056 1.225860 -0.603436 0
M  V30 47 H -3.104070 -0.752955 -3.533269 0
M  V30 48 H -3.196194 0.936069 -2.905436 0
M  V30 49 H -3.228423 -0.423539 -1.741160 0
M  V30 50 H 0.841800 -4.485744 -1.549691 0
M  V30 51 H 1.195338 -7.585762 -0.248978 0
M  V30 52 H -0.035047 -6.878760 0.124204 0
M  V30 END ATOM
M  V30 BEGIN BOND
M  V30 1 1 1 2
M  V30 2 1 2 3
M  V30 3 1 3 4
M  V30 4 2 4 5
M  V30 5 1 5 6
M  V30 6 1 6 7
M  V30 7 1 7 8
M  V30 8 2 8 9
M  V30 9 1 8 10
M  V30 10 1 10 11
M  V30 11 2 11 12
M  V30 12 1 12 13
M  V30 13 1 13 14
M  V30 14 1 14 15
M  V30 15 2 13 16
M  V30 16 1 16 17
M  V30 17 1 17 18
M  V30 18 2 17 19
M  V30 19 2 17 20
M  V30 20 1 16 21
M  V30 21 2 21 22
M  V30 22 1 22 23
M  V30 23 1 23 24
M  V30 24 2 6 25
M  V30 25 1 25 26
M  V30 26 1 26 27
M  V30 27 2 26 28
M  V30 28 1 28 29
M  V30 29 3 29 30
M  V30 30 1 28 4
M  V30 31 1 22 11
M  V30 32 1 1 31
M  V30 33 1 1 32
M  V30 34 1 1 33
M  V30 35 1 2 34
M  V30 36 1 2 35
M  V30 37 1 7 36
M  V30 38 1 10 37
M  V30 39 1 10 38
M  V30 40 1 12 39
M  V30 41 1 15 40
M  V30 42 1 15 41
M  V30 43 1 15 42
M  V30 44 1 18 43
M  V30 45 1 18 44
M  V30 46 1 18 45
M  V30 47 1 21 46
M  V30 48 1 24 47
M  V30 49 1 24 48
M  V30 50 1 24 49
M  V30 51 1 25 50
M  V30 52 1 27 51
M  V30 53 1 27 52
M  V30 END BOND
M  V30 END CTAB
M  END
>  <Dataset>  (894) 
ChEMBL_Kinases

>  <Ligand_Instance>  (894) 
nan

>  <PDB_ID>  (894) 
nan

>  <Standardized_SMILES>  (894) 
CCOc1nc(NC(=O)Cc2cc(OC)c(S(C)(=O)=O)cc2OC)cc(N)c1C#N

>  <Name>  (894) 
nan

>  <Pocket>  (894) 
nan

>  <ATP_Site>  (894) 
nan

>  <Peripheral>  (894) 
nan

>  <Num_H_Atoms_ProtBoundConf>  (894) 
nan

>  <Num_Resolved_Atoms>  (894) 
nan

>  <Num_Not_Resolved_Atoms>  (894) 
nan

$$$$
CHEMBL4865410
     RDKit          3D

  0  0  0  0  0  0  0  0  0  0999 V3000
M  V30 BEGIN CTAB
M  V30 COUNTS 56 60 0 0 0
M  V30 BEGIN ATOM
M  V30 1 N 2.837139 -5.112607 -1.367490 0
M  V30 2 C 2.855103 -3.698065 -1.439525 0
M  V30 3 C 2.434151 -2.981621 -0.334991 0
M  V30 4 C 2.438207 -1.592241 -0.370296 0
M  V30 5 C 2.871338 -0.945792 -1.531900 0
M  V30 6 C 2.834628 0.513209 -1.461035 0
M  V30 7 C 3.748118 1.318537 -2.155169 0
M  V30 8 N 3.703878 2.666650 -2.083457 0
M  V30 9 C 2.761718 3.259020 -1.328957 0
M  V30 10 N 2.455029 4.530946 -1.031828 0
M  V30 11 N 1.412342 4.599003 -0.201963 0
M  V30 12 C 0.981255 3.367884 0.086353 0
M  V30 13 C -0.119994 3.137941 0.990503 0
M  V30 14 O -0.254335 4.090457 1.823053 0
M  V30 15 C -1.117671 2.118235 1.211127 0
M  V30 16 C -1.654244 2.001839 2.474205 0
M  V30 17 F -1.269287 2.776851 3.528736 0
M  V30 18 C -2.641815 1.066372 2.752620 0
M  V30 19 C -3.095552 0.238690 1.750363 0
M  V30 20 C -2.579807 0.332271 0.479755 0
M  V30 21 N -3.104796 -0.532120 -0.478901 0
M  V30 22 S -3.913048 -2.022228 -0.285677 0
M  V30 23 O -5.170877 -1.822912 0.541719 0
M  V30 24 O -4.400843 -2.562357 -1.617496 0
M  V30 25 C -2.977959 -3.291830 0.470074 0
M  V30 26 C -2.481066 -3.025616 1.813989 0
M  V30 27 C -3.273897 -3.301180 2.914545 0
M  V30 28 C -2.876907 -3.092917 4.214781 0
M  V30 29 C -1.612605 -2.575583 4.503230 0
M  V30 30 C -0.836712 -2.306818 3.400253 0
M  V30 31 C -1.211636 -2.506534 2.098553 0
M  V30 32 C -1.600077 1.273026 0.237650 0
M  V30 33 F -1.196095 1.311253 -1.033564 0
M  V30 34 C 1.825188 2.537202 -0.616245 0
M  V30 35 C 1.889684 1.170547 -0.702698 0
M  V30 36 C 3.289394 -1.668275 -2.629544 0
M  V30 37 C 3.280013 -3.045754 -2.579971 0
M  V30 38 H 3.355053 -5.754886 -2.000176 0
M  V30 39 H 2.282246 -5.606871 -0.647767 0
M  V30 40 H 2.102792 -3.528741 0.552763 0
M  V30 41 H 2.093594 -1.125757 0.539927 0
M  V30 42 H 4.496129 0.863188 -2.753869 0
M  V30 43 H 2.920180 5.394529 -1.364386 0
M  V30 44 H -3.060913 0.980560 3.753487 0
M  V30 45 H -3.864692 -0.472492 2.019997 0
M  V30 46 H -2.968000 -0.185718 -1.471337 0
M  V30 47 H -2.144296 -3.663691 -0.175748 0
M  V30 48 H -3.668510 -4.183358 0.556455 0
M  V30 49 H -4.271858 -3.710412 2.701591 0
M  V30 50 H -3.538532 -3.326310 5.053050 0
M  V30 51 H -1.329856 -2.423582 5.529246 0
M  V30 52 H 0.156814 -1.900615 3.612099 0
M  V30 53 H -0.563872 -2.279123 1.263875 0
M  V30 54 H 1.177327 0.580595 -0.143528 0
M  V30 55 H 3.610004 -1.095603 -3.493074 0
M  V30 56 H 3.611930 -3.593064 -3.450562 0
M  V30 END ATOM
M  V30 BEGIN BOND
M  V30 1 1 1 2
M  V30 2 2 2 3
M  V30 3 1 3 4
M  V30 4 2 4 5
M  V30 5 1 5 6
M  V30 6 2 6 7
M  V30 7 1 7 8
M  V30 8 2 8 9
M  V30 9 1 9 10
M  V30 10 1 10 11
M  V30 11 2 11 12
M  V30 12 1 12 13
M  V30 13 2 13 14
M  V30 14 1 13 15
M  V30 15 2 15 16
M  V30 16 1 16 17
M  V30 17 1 16 18
M  V30 18 2 18 19
M  V30 19 1 19 20
M  V30 20 1 20 21
M  V30 21 1 21 22
M  V30 22 2 22 23
M  V30 23 2 22 24
M  V30 24 1 22 25
M  V30 25 1 25 26
M  V30 26 2 26 27
M  V30 27 1 27 28
M  V30 28 2 28 29
M  V30 29 1 29 30
M  V30 30 2 30 31
M  V30 31 2 20 32
M  V30 32 1 32 33
M  V30 33 1 12 34
M  V30 34 2 34 35
M  V30 35 1 5 36
M  V30 36 2 36 37
M  V30 37 1 37 2
M  V30 38 1 35 6
M  V30 39 1 34 9
M  V30 40 1 32 15
M  V30 41 1 31 26
M  V30 42 1 1 38
M  V30 43 1 1 39
M  V30 44 1 3 40
M  V30 45 1 4 41
M  V30 46 1 7 42
M  V30 47 1 10 43
M  V30 48 1 18 44
M  V30 49 1 19 45
M  V30 50 1 21 46
M  V30 51 1 25 47
M  V30 52 1 25 48
M  V30 53 1 27 49
M  V30 54 1 28 50
M  V30 55 1 29 51
M  V30 56 1 30 52
M  V30 57 1 31 53
M  V30 58 1 35 54
M  V30 59 1 36 55
M  V30 60 1 37 56
M  V30 END BOND
M  V30 END CTAB
M  END
>  <Dataset>  (895) 
ChEMBL_Kinases

>  <Ligand_Instance>  (895) 
nan

>  <PDB_ID>  (895) 
nan

>  <Standardized_SMILES>  (895) 
Nc1ccc(-c2cnc3[nH]nc(C(=O)c4c(F)ccc(NS(=O)(=O)Cc5ccccc5)c4F)c3c2)cc1

>  <Name>  (895) 
nan

>  <Pocket>  (895) 
nan

>  <ATP_Site>  (895) 
nan

>  <Peripheral>  (895) 
nan

>  <Num_H_Atoms_ProtBoundConf>  (895) 
nan

>  <Num_Resolved_Atoms>  (895) 
nan

>  <Num_Not_Resolved_Atoms>  (895) 
nan

$$$$
CHEMBL7064
     RDKit          3D

  0  0  0  0  0  0  0  0  0  0999 V3000
M  V30 BEGIN CTAB
M  V30 COUNTS 25 28 0 0 0
M  V30 BEGIN ATOM
M  V30 1 O 1.697433 -1.220102 3.269549 0
M  V30 2 C 1.105711 -0.873297 2.216835 0
M  V30 3 C 0.592553 -1.831990 1.217516 0
M  V30 4 C 0.787203 -3.171903 1.479751 0
M  V30 5 C 0.287883 -4.027163 0.512710 0
M  V30 6 C -0.360379 -3.664926 -0.641810 0
M  V30 7 C -0.534690 -2.302077 -0.865470 0
M  V30 8 C -0.052746 -1.413024 0.072281 0
M  V30 9 C -0.251336 0.014455 -0.191110 0
M  V30 10 N -0.807626 0.786724 -1.150208 0
M  V30 11 N -0.673291 2.077848 -0.817289 0
M  V30 12 C -0.029473 2.172751 0.360508 0
M  V30 13 C 0.409866 3.164794 1.227790 0
M  V30 14 C 1.071311 2.861315 2.410322 0
M  V30 15 C 1.332704 1.540377 2.795295 0
M  V30 16 C 0.896333 0.554342 1.933831 0
M  V30 17 C 0.241121 0.880265 0.764175 0
M  V30 18 H 1.284223 -3.561470 2.357180 0
M  V30 19 H 0.404115 -5.110924 0.649903 0
M  V30 20 H -0.720376 -4.393806 -1.346715 0
M  V30 21 H -1.037226 -1.951204 -1.755709 0
M  V30 22 H -0.997369 2.916485 -1.349427 0
M  V30 23 H 0.210482 4.186526 0.935148 0
M  V30 24 H 1.388749 3.675936 3.043747 0
M  V30 25 H 1.840272 1.285433 3.701161 0
M  V30 END ATOM
M  V30 BEGIN BOND
M  V30 1 2 1 2
M  V30 2 1 2 3
M  V30 3 2 3 4
M  V30 4 1 4 5
M  V30 5 2 5 6
M  V30 6 1 6 7
M  V30 7 2 7 8
M  V30 8 1 8 9
M  V30 9 2 9 10
M  V30 10 1 10 11
M  V30 11 1 11 12
M  V30 12 1 12 13
M  V30 13 2 13 14
M  V30 14 1 14 15
M  V30 15 2 15 16
M  V30 16 1 16 17
M  V30 17 1 16 2
M  V30 18 1 8 3
M  V30 19 1 17 9
M  V30 20 2 17 12
M  V30 21 1 4 18
M  V30 22 1 5 19
M  V30 23 1 6 20
M  V30 24 1 7 21
M  V30 25 1 11 22
M  V30 26 1 13 23
M  V30 27 1 14 24
M  V30 28 1 15 25
M  V30 END BOND
M  V30 END CTAB
M  END
>  <Dataset>  (896) 
ChEMBL_Kinases

>  <Ligand_Instance>  (896) 
nan

>  <PDB_ID>  (896) 
nan

>  <Standardized_SMILES>  (896) 
O=C1c2ccccc2-c2n[nH]c3cccc1c23

>  <Name>  (896) 
nan

>  <Pocket>  (896) 
nan

>  <ATP_Site>  (896) 
nan

>  <Peripheral>  (896) 
nan

>  <Num_H_Atoms_ProtBoundConf>  (896) 
nan

>  <Num_Resolved_Atoms>  (896) 
nan

>  <Num_Not_Resolved_Atoms>  (896) 
nan

$$$$
CHEMBL3952214
     RDKit          3D

  0  0  0  0  0  0  0  0  0  0999 V3000
M  V30 BEGIN CTAB
M  V30 COUNTS 41 44 0 0 0
M  V30 BEGIN ATOM
M  V30 1 C 0.854694 -4.307297 0.871532 0
M  V30 2 C 1.011554 -2.967911 0.180467 0
M  V30 3 C -0.083951 -2.861597 -0.828006 0
M  V30 4 N 2.342523 -2.906660 -0.362791 0
M  V30 5 C 3.167913 -3.964429 -0.617200 0
M  V30 6 N 4.355024 -3.585107 -1.126192 0
M  V30 7 N 4.288112 -2.247045 -1.199845 0
M  V30 8 C 3.085894 -1.850639 -0.743140 0
M  V30 9 C 2.633877 -0.469578 -0.664202 0
M  V30 10 C 3.294061 0.568488 -1.290647 0
M  V30 11 C 2.855426 1.890367 -1.211009 0
M  V30 12 C 1.712904 2.184375 -0.476662 0
M  V30 13 C 1.065606 1.134838 0.142863 0
M  V30 14 N -0.129035 1.199189 0.951352 0
M  V30 15 C 0.080517 1.407041 2.379469 0
M  V30 16 C -1.294198 1.428231 2.930069 0
M  V30 17 C -1.803058 1.584201 4.194505 0
M  V30 18 C -3.150007 1.571924 4.497658 0
M  V30 19 C -4.015387 1.386983 3.424778 0
M  V30 20 C -3.593429 1.222165 2.122209 0
M  V30 21 C -2.225920 1.251374 1.934312 0
M  V30 22 C -1.519055 1.100819 0.650798 0
M  V30 23 O -1.894467 0.918117 -0.548454 0
M  V30 24 N 1.535616 -0.121835 0.030801 0
M  V30 25 H -0.029727 -4.313836 1.538175 0
M  V30 26 H 0.798688 -5.091276 0.088290 0
M  V30 27 H 1.715442 -4.566801 1.514631 0
M  V30 28 H 0.833140 -2.192316 0.971477 0
M  V30 29 H -0.427535 -1.831949 -1.042548 0
M  V30 30 H -0.975856 -3.375547 -0.410453 0
M  V30 31 H 0.168878 -3.416587 -1.770721 0
M  V30 32 H 2.841893 -4.988395 -0.408158 0
M  V30 33 H 4.192346 0.358829 -1.871604 0
M  V30 34 H 3.340229 2.718212 -1.681999 0
M  V30 35 H 1.258533 3.142207 -0.325335 0
M  V30 36 H 0.721168 0.620774 2.820342 0
M  V30 37 H 0.573037 2.406992 2.491468 0
M  V30 38 H -1.102789 1.728839 5.026701 0
M  V30 39 H -3.548382 1.693873 5.486454 0
M  V30 40 H -5.097455 1.365514 3.585211 0
M  V30 41 H -4.283991 1.079401 1.300488 0
M  V30 END ATOM
M  V30 BEGIN BOND
M  V30 1 1 1 2
M  V30 2 1 2 3
M  V30 3 1 2 4
M  V30 4 1 4 5
M  V30 5 2 5 6
M  V30 6 1 6 7
M  V30 7 2 7 8
M  V30 8 1 8 9
M  V30 9 2 9 10
M  V30 10 1 10 11
M  V30 11 2 11 12
M  V30 12 1 12 13
M  V30 13 1 13 14
M  V30 14 1 14 15
M  V30 15 1 15 16
M  V30 16 2 16 17
M  V30 17 1 17 18
M  V30 18 2 18 19
M  V30 19 1 19 20
M  V30 20 2 20 21
M  V30 21 1 21 22
M  V30 22 2 22 23
M  V30 23 2 13 24
M  V30 24 1 8 4
M  V30 25 1 24 9
M  V30 26 1 22 14
M  V30 27 1 21 16
M  V30 28 1 1 25
M  V30 29 1 1 26
M  V30 30 1 1 27
M  V30 31 1 2 28
M  V30 32 1 3 29
M  V30 33 1 3 30
M  V30 34 1 3 31
M  V30 35 1 5 32
M  V30 36 1 10 33
M  V30 37 1 11 34
M  V30 38 1 12 35
M  V30 39 1 15 36
M  V30 40 1 15 37
M  V30 41 1 17 38
M  V30 42 1 18 39
M  V30 43 1 19 40
M  V30 44 1 20 41
M  V30 END BOND
M  V30 END CTAB
M  END
>  <Dataset>  (897) 
ChEMBL_Kinases

>  <Ligand_Instance>  (897) 
nan

>  <PDB_ID>  (897) 
nan

>  <Standardized_SMILES>  (897) 
CC(C)n1cnnc1-c1cccc(N2Cc3ccccc3C2=O)n1

>  <Name>  (897) 
nan

>  <Pocket>  (897) 
nan

>  <ATP_Site>  (897) 
nan

>  <Peripheral>  (897) 
nan

>  <Num_H_Atoms_ProtBoundConf>  (897) 
nan

>  <Num_Resolved_Atoms>  (897) 
nan

>  <Num_Not_Resolved_Atoms>  (897) 
nan

$$$$
CHEMBL2144409
     RDKit          3D

  0  0  0  0  0  0  0  0  0  0999 V3000
M  V30 BEGIN CTAB
M  V30 COUNTS 63 68 0 0 0
M  V30 BEGIN ATOM
M  V30 1 C 8.923046 -0.707833 3.426373 0
M  V30 2 C 7.819011 0.259988 3.289811 0
M  V30 3 C 6.921589 0.402815 4.344262 0
M  V30 4 C 5.900056 1.312699 4.194372 0
M  V30 5 C 5.795627 2.042292 3.028816 0
M  V30 6 C 4.748769 3.032741 2.770597 0
M  V30 7 N 4.481840 4.353442 2.988810 0
M  V30 8 C 3.274133 4.612605 2.456272 0
M  V30 9 N 2.776633 3.488464 1.909474 0
M  V30 10 C 1.515624 3.396860 1.258727 0
M  V30 11 C 0.889631 2.164976 1.144743 0
M  V30 12 C -0.326142 2.143397 0.507696 0
M  V30 13 C -0.996501 3.206041 -0.031952 0
M  V30 14 N -2.252479 3.156652 -0.688250 0
M  V30 15 C -3.045121 2.021385 -0.976054 0
M  V30 16 N -4.230560 2.218695 -1.587936 0
M  V30 17 C -5.078810 1.240972 -1.922294 0
M  V30 18 C -4.723640 -0.045982 -1.625505 0
M  V30 19 C -3.526611 -0.309792 -1.001929 0
M  V30 20 C -3.121961 -1.669045 -0.680516 0
M  V30 21 C -1.911424 -1.895489 -0.062790 0
M  V30 22 C -1.506221 -3.185419 0.252378 0
M  V30 23 C -2.315398 -4.258029 -0.051413 0
M  V30 24 C -3.540859 -4.075057 -0.672546 0
M  V30 25 N -4.413482 -5.161066 -1.000334 0
M  V30 26 C -5.656883 -5.094916 -1.743385 0
M  V30 27 C -5.549744 -6.104564 -2.876467 0
M  V30 28 O -4.301467 -6.658080 -3.001393 0
M  V30 29 C -3.875268 -7.324249 -1.860670 0
M  V30 30 C -4.138081 -6.524053 -0.600412 0
M  V30 31 C -3.882421 -2.770200 -0.957633 0
M  V30 32 N -2.762768 0.750097 -0.717269 0
M  V30 33 C -0.319477 4.396686 0.116098 0
M  V30 34 C 0.898168 4.511307 0.737708 0
M  V30 35 N 3.681806 2.545289 2.109497 0
M  V30 36 C 6.705190 1.877891 1.995596 0
M  V30 37 N 7.696492 0.984275 2.160472 0
M  V30 38 H 9.075820 -1.186397 2.420053 0
M  V30 39 H 9.879529 -0.231930 3.687240 0
M  V30 40 H 8.645090 -1.554170 4.122566 0
M  V30 41 H 6.997569 -0.168185 5.264977 0
M  V30 42 H 5.159574 1.488101 4.960346 0
M  V30 43 H 2.833611 5.596097 2.498363 0
M  V30 44 H 1.360643 1.284185 1.547314 0
M  V30 45 H -0.768688 1.164293 0.448974 0
M  V30 46 H -2.618933 4.092407 -0.987923 0
M  V30 47 H -6.000807 1.536297 -2.411176 0
M  V30 48 H -5.439220 -0.797906 -1.914203 0
M  V30 49 H -1.221900 -1.138564 0.209679 0
M  V30 50 H -0.557112 -3.375453 0.737959 0
M  V30 51 H -1.961640 -5.237357 0.207215 0
M  V30 52 H -5.953895 -4.110457 -2.084300 0
M  V30 53 H -6.457011 -5.488321 -1.060353 0
M  V30 54 H -6.307808 -6.901786 -2.811917 0
M  V30 55 H -5.749847 -5.547475 -3.821396 0
M  V30 56 H -4.370455 -8.295074 -1.834229 0
M  V30 57 H -2.776580 -7.438609 -1.963840 0
M  V30 58 H -3.354099 -6.642805 0.148581 0
M  V30 59 H -5.100301 -6.937668 -0.176819 0
M  V30 60 H -4.816966 -2.620992 -1.430514 0
M  V30 61 H -0.738198 5.333254 -0.269002 0
M  V30 62 H 1.390218 5.470588 0.828727 0
M  V30 63 H 6.643645 2.439564 1.071013 0
M  V30 END ATOM
M  V30 BEGIN BOND
M  V30 1 1 1 2
M  V30 2 2 2 3
M  V30 3 1 3 4
M  V30 4 2 4 5
M  V30 5 1 5 6
M  V30 6 1 6 7
M  V30 7 2 7 8
M  V30 8 1 8 9
M  V30 9 1 9 10
M  V30 10 2 10 11
M  V30 11 1 11 12
M  V30 12 2 12 13
M  V30 13 1 13 14
M  V30 14 1 14 15
M  V30 15 2 15 16
M  V30 16 1 16 17
M  V30 17 2 17 18
M  V30 18 1 18 19
M  V30 19 1 19 20
M  V30 20 2 20 21
M  V30 21 1 21 22
M  V30 22 2 22 23
M  V30 23 1 23 24
M  V30 24 1 24 25
M  V30 25 1 25 26
M  V30 26 1 26 27
M  V30 27 1 27 28
M  V30 28 1 28 29
M  V30 29 1 29 30
M  V30 30 2 24 31
M  V30 31 2 19 32
M  V30 32 1 13 33
M  V30 33 2 33 34
M  V30 34 1 9 35
M  V30 35 1 5 36
M  V30 36 2 36 37
M  V30 37 1 37 2
M  V30 38 2 35 6
M  V30 39 1 34 10
M  V30 40 1 32 15
M  V30 41 1 31 20
M  V30 42 1 30 25
M  V30 43 1 1 38
M  V30 44 1 1 39
M  V30 45 1 1 40
M  V30 46 1 3 41
M  V30 47 1 4 42
M  V30 48 1 8 43
M  V30 49 1 11 44
M  V30 50 1 12 45
M  V30 51 1 14 46
M  V30 52 1 17 47
M  V30 53 1 18 48
M  V30 54 1 21 49
M  V30 55 1 22 50
M  V30 56 1 23 51
M  V30 57 1 26 52
M  V30 58 1 26 53
M  V30 59 1 27 54
M  V30 60 1 27 55
M  V30 61 1 29 56
M  V30 62 1 29 57
M  V30 63 1 30 58
M  V30 64 1 30 59
M  V30 65 1 31 60
M  V30 66 1 33 61
M  V30 67 1 34 62
M  V30 68 1 36 63
M  V30 END BOND
M  V30 END CTAB
M  END
>  <Dataset>  (898) 
ChEMBL_Kinases

>  <Ligand_Instance>  (898) 
nan

>  <PDB_ID>  (898) 
nan

>  <Standardized_SMILES>  (898) 
Cc1ccc(-c2ncn(-c3ccc(Nc4nccc(-c5cccc(N6CCOCC6)c5)n4)cc3)n2)cn1

>  <Name>  (898) 
nan

>  <Pocket>  (898) 
nan

>  <ATP_Site>  (898) 
nan

>  <Peripheral>  (898) 
nan

>  <Num_H_Atoms_ProtBoundConf>  (898) 
nan

>  <Num_Resolved_Atoms>  (898) 
nan

>  <Num_Not_Resolved_Atoms>  (898) 
nan

$$$$
CHEMBL2147534
     RDKit          3D

  0  0  0  0  0  0  0  0  0  0999 V3000
M  V30 BEGIN CTAB
M  V30 COUNTS 36 38 0 0 0
M  V30 BEGIN ATOM
M  V30 1 N -0.149154 -2.473595 4.643994 0
M  V30 2 C -0.614511 -3.453835 3.717489 0
M  V30 3 C 0.139423 -3.450755 2.387478 0
M  V30 4 N 0.080816 -2.277204 1.641973 0
M  V30 5 C 0.021187 -1.082935 0.883291 0
M  V30 6 C 0.815226 -0.778329 -0.228683 0
M  V30 7 C 0.776219 0.398303 -0.932641 0
M  V30 8 C 1.626890 0.636430 -2.068262 0
M  V30 9 C 2.005322 -0.429731 -2.887885 0
M  V30 10 C 2.812338 -0.334177 -3.999364 0
M  V30 11 N 3.282048 0.876844 -4.335940 0
M  V30 12 C 2.943557 1.930773 -3.575819 0
M  V30 13 C 2.136351 1.857111 -2.458171 0
M  V30 14 C -0.147608 1.275658 -0.423346 0
M  V30 15 C -0.981919 1.096743 0.653851 0
M  V30 16 C -1.857187 2.114959 1.001411 0
M  V30 17 N -2.669318 1.923123 2.043051 0
M  V30 18 C -2.649608 0.761413 2.755538 0
M  V30 19 C -1.758389 -0.202469 2.355951 0
M  V30 20 C -0.872509 -0.117074 1.299595 0
M  V30 21 H 0.458383 -1.741043 4.211514 0
M  V30 22 H -0.859088 -2.104267 5.282269 0
M  V30 23 H -1.690218 -3.382948 3.596151 0
M  V30 24 H -0.414052 -4.462526 4.164728 0
M  V30 25 H -0.383937 -4.299749 1.823709 0
M  V30 26 H 1.144168 -3.881306 2.643018 0
M  V30 27 H 0.804987 -2.789565 1.047452 0
M  V30 28 H 1.533840 -1.507591 -0.593803 0
M  V30 29 H 1.639806 -1.410278 -2.636139 0
M  V30 30 H 3.049462 -1.222216 -4.571995 0
M  V30 31 H 3.302220 2.921994 -3.815011 0
M  V30 32 H 1.873887 2.717021 -1.857233 0
M  V30 33 H -0.214249 2.221591 -0.946663 0
M  V30 34 H -1.898245 3.045646 0.459062 0
M  V30 35 H -3.304740 0.600531 3.599204 0
M  V30 36 H -1.767730 -1.103418 2.915210 0
M  V30 END ATOM
M  V30 BEGIN BOND
M  V30 1 1 1 2
M  V30 2 1 2 3
M  V30 3 1 3 4
M  V30 4 1 4 5
M  V30 5 2 5 6
M  V30 6 1 6 7
M  V30 7 1 7 8
M  V30 8 2 8 9
M  V30 9 1 9 10
M  V30 10 2 10 11
M  V30 11 1 11 12
M  V30 12 2 12 13
M  V30 13 2 7 14
M  V30 14 1 14 15
M  V30 15 2 15 16
M  V30 16 1 16 17
M  V30 17 2 17 18
M  V30 18 1 18 19
M  V30 19 2 19 20
M  V30 20 1 20 5
M  V30 21 1 13 8
M  V30 22 1 20 15
M  V30 23 1 1 21
M  V30 24 1 1 22
M  V30 25 1 2 23
M  V30 26 1 2 24
M  V30 27 1 3 25
M  V30 28 1 3 26
M  V30 29 1 4 27
M  V30 30 1 6 28
M  V30 31 1 9 29
M  V30 32 1 10 30
M  V30 33 1 12 31
M  V30 34 1 13 32
M  V30 35 1 14 33
M  V30 36 1 16 34
M  V30 37 1 18 35
M  V30 38 1 19 36
M  V30 END BOND
M  V30 END CTAB
M  END
>  <Dataset>  (899) 
ChEMBL_Kinases

>  <Ligand_Instance>  (899) 
nan

>  <PDB_ID>  (899) 
nan

>  <Standardized_SMILES>  (899) 
NCCNc1cc(-c2ccncc2)cc2cnccc12

>  <Name>  (899) 
nan

>  <Pocket>  (899) 
nan

>  <ATP_Site>  (899) 
nan

>  <Peripheral>  (899) 
nan

>  <Num_H_Atoms_ProtBoundConf>  (899) 
nan

>  <Num_Resolved_Atoms>  (899) 
nan

>  <Num_Not_Resolved_Atoms>  (899) 
nan

$$$$
CHEMBL2147535
     RDKit          3D

  0  0  0  0  0  0  0  0  0  0999 V3000
M  V30 BEGIN CTAB
M  V30 COUNTS 34 36 0 0 0
M  V30 BEGIN ATOM
M  V30 1 N -0.439224 -1.987843 4.018598 0
M  V30 2 C 0.517115 -2.365455 3.003279 0
M  V30 3 C -0.198820 -3.198597 1.938170 0
M  V30 4 N -1.268075 -2.496284 1.302945 0
M  V30 5 C -1.011225 -1.316468 0.560209 0
M  V30 6 N 0.244976 -0.852698 0.443032 0
M  V30 7 C 0.573661 0.254428 -0.244986 0
M  V30 8 C 1.959399 0.703196 -0.332350 0
M  V30 9 C 2.952940 -0.016253 0.299286 0
M  V30 10 C 4.279726 0.415888 0.213986 0
M  V30 11 N 4.598382 1.540709 -0.487335 0
M  V30 12 C 3.625389 2.244809 -1.105598 0
M  V30 13 C 2.307841 1.838091 -1.035834 0
M  V30 14 N -0.397322 0.958496 -0.862956 0
M  V30 15 C -1.693815 0.585602 -0.812537 0
M  V30 16 C -2.717982 1.276491 -1.429844 0
M  V30 17 N -4.004115 0.862009 -1.350099 0
M  V30 18 C -4.294331 -0.264263 -0.643431 0
M  V30 19 C -3.273993 -0.957171 -0.025363 0
M  V30 20 C -1.957134 -0.556130 -0.091448 0
M  V30 21 H -0.607638 -0.958974 3.934128 0
M  V30 22 H -1.333249 -2.511221 3.880182 0
M  V30 23 H 1.318497 -3.000559 3.482783 0
M  V30 24 H 1.053248 -1.511812 2.557896 0
M  V30 25 H -0.495473 -4.181936 2.339899 0
M  V30 26 H 0.581180 -3.405307 1.174575 0
M  V30 27 H -2.203878 -2.925574 1.440743 0
M  V30 28 H 2.774048 -0.909138 0.867322 0
M  V30 29 H 5.132226 -0.072078 0.669706 0
M  V30 30 H 3.793300 3.155086 -1.686894 0
M  V30 31 H 1.479110 2.353841 -1.506451 0
M  V30 32 H -2.379164 2.155631 -1.964287 0
M  V30 33 H -5.328799 -0.561958 -0.603079 0
M  V30 34 H -3.588406 -1.838043 0.513996 0
M  V30 END ATOM
M  V30 BEGIN BOND
M  V30 1 1 1 2
M  V30 2 1 2 3
M  V30 3 1 3 4
M  V30 4 1 4 5
M  V30 5 2 5 6
M  V30 6 1 6 7
M  V30 7 1 7 8
M  V30 8 2 8 9
M  V30 9 1 9 10
M  V30 10 2 10 11
M  V30 11 1 11 12
M  V30 12 2 12 13
M  V30 13 2 7 14
M  V30 14 1 14 15
M  V30 15 2 15 16
M  V30 16 1 16 17
M  V30 17 2 17 18
M  V30 18 1 18 19
M  V30 19 2 19 20
M  V30 20 1 20 5
M  V30 21 1 13 8
M  V30 22 1 20 15
M  V30 23 1 1 21
M  V30 24 1 1 22
M  V30 25 1 2 23
M  V30 26 1 2 24
M  V30 27 1 3 25
M  V30 28 1 3 26
M  V30 29 1 4 27
M  V30 30 1 9 28
M  V30 31 1 10 29
M  V30 32 1 12 30
M  V30 33 1 13 31
M  V30 34 1 16 32
M  V30 35 1 18 33
M  V30 36 1 19 34
M  V30 END BOND
M  V30 END CTAB
M  END
>  <Dataset>  (900) 
ChEMBL_Kinases

>  <Ligand_Instance>  (900) 
nan

>  <PDB_ID>  (900) 
nan

>  <Standardized_SMILES>  (900) 
NCCNc1nc(-c2ccncc2)nc2cnccc12

>  <Name>  (900) 
nan

>  <Pocket>  (900) 
nan

>  <ATP_Site>  (900) 
nan

>  <Peripheral>  (900) 
nan

>  <Num_H_Atoms_ProtBoundConf>  (900) 
nan

>  <Num_Resolved_Atoms>  (900) 
nan

>  <Num_Not_Resolved_Atoms>  (900) 
nan

$$$$
CHEMBL2147536
     RDKit          3D

  0  0  0  0  0  0  0  0  0  0999 V3000
M  V30 BEGIN CTAB
M  V30 COUNTS 34 36 0 0 0
M  V30 BEGIN ATOM
M  V30 1 N 0.243539 -1.880792 4.160484 0
M  V30 2 C 0.384687 -2.694693 2.973526 0
M  V30 3 C -0.965647 -2.990099 2.339660 0
M  V30 4 O -1.626925 -1.804412 1.963711 0
M  V30 5 C -1.144580 -0.874293 1.065466 0
M  V30 6 N 0.057327 -1.013323 0.431905 0
M  V30 7 C 0.492157 -0.083028 -0.437834 0
M  V30 8 C 1.784271 -0.300826 -1.074258 0
M  V30 9 C 2.472044 -1.447377 -0.739702 0
M  V30 10 C 3.711598 -1.639109 -1.361583 0
M  V30 11 N 4.264423 -0.789077 -2.250182 0
M  V30 12 C 3.578733 0.324040 -2.564142 0
M  V30 13 C 2.349799 0.567889 -1.982714 0
M  V30 14 C -0.315475 1.011971 -0.666335 0
M  V30 15 C -1.537011 1.193565 -0.048742 0
M  V30 16 C -2.272873 2.338486 -0.353056 0
M  V30 17 N -3.463856 2.462935 0.283493 0
M  V30 18 C -3.909009 1.528140 1.162385 0
M  V30 19 C -3.175695 0.386525 1.466080 0
M  V30 20 C -1.954436 0.219894 0.838837 0
M  V30 21 H 0.277936 -0.892982 3.873053 0
M  V30 22 H -0.708892 -2.058343 4.555283 0
M  V30 23 H 1.058894 -2.223035 2.220148 0
M  V30 24 H 0.850632 -3.658455 3.263650 0
M  V30 25 H -1.599546 -3.448734 3.150747 0
M  V30 26 H -0.823228 -3.666731 1.478514 0
M  V30 27 H 2.107752 -2.190373 -0.034669 0
M  V30 28 H 4.271928 -2.538987 -1.111376 0
M  V30 29 H 4.028990 0.996002 -3.274573 0
M  V30 30 H 1.825139 1.464928 -2.252555 0
M  V30 31 H 0.019376 1.765352 -1.360251 0
M  V30 32 H -1.891650 3.062581 -1.055774 0
M  V30 33 H -4.871646 1.694011 1.634265 0
M  V30 34 H -3.520363 -0.365135 2.164780 0
M  V30 END ATOM
M  V30 BEGIN BOND
M  V30 1 1 1 2
M  V30 2 1 2 3
M  V30 3 1 3 4
M  V30 4 1 4 5
M  V30 5 2 5 6
M  V30 6 1 6 7
M  V30 7 1 7 8
M  V30 8 2 8 9
M  V30 9 1 9 10
M  V30 10 2 10 11
M  V30 11 1 11 12
M  V30 12 2 12 13
M  V30 13 2 7 14
M  V30 14 1 14 15
M  V30 15 2 15 16
M  V30 16 1 16 17
M  V30 17 2 17 18
M  V30 18 1 18 19
M  V30 19 2 19 20
M  V30 20 1 20 5
M  V30 21 1 13 8
M  V30 22 1 20 15
M  V30 23 1 1 21
M  V30 24 1 1 22
M  V30 25 1 2 23
M  V30 26 1 2 24
M  V30 27 1 3 25
M  V30 28 1 3 26
M  V30 29 1 9 27
M  V30 30 1 10 28
M  V30 31 1 12 29
M  V30 32 1 13 30
M  V30 33 1 14 31
M  V30 34 1 16 32
M  V30 35 1 18 33
M  V30 36 1 19 34
M  V30 END BOND
M  V30 END CTAB
M  END
>  <Dataset>  (901) 
ChEMBL_Kinases

>  <Ligand_Instance>  (901) 
nan

>  <PDB_ID>  (901) 
nan

>  <Standardized_SMILES>  (901) 
NCCOc1nc(-c2ccncc2)cc2cnccc12

>  <Name>  (901) 
nan

>  <Pocket>  (901) 
nan

>  <ATP_Site>  (901) 
nan

>  <Peripheral>  (901) 
nan

>  <Num_H_Atoms_ProtBoundConf>  (901) 
nan

>  <Num_Resolved_Atoms>  (901) 
nan

>  <Num_Not_Resolved_Atoms>  (901) 
nan

$$$$
CHEMBL214329
     RDKit          3D

  0  0  0  0  0  0  0  0  0  0999 V3000
M  V30 BEGIN CTAB
M  V30 COUNTS 59 63 0 0 0
M  V30 BEGIN ATOM
M  V30 1 C 1.049460 -4.388790 2.467928 0
M  V30 2 N 2.429264 -4.704661 2.589613 0
M  V30 3 C 3.264775 -3.692671 3.126478 0
M  V30 4 C 4.136775 -3.120432 2.040699 0
M  V30 5 N 3.416523 -3.183180 0.792145 0
M  V30 6 C 2.808464 -2.157777 0.024661 0
M  V30 7 C 2.530033 -0.962260 0.637882 0
M  V30 8 C 1.934269 0.052204 -0.114777 0
M  V30 9 C 1.639382 -0.165881 -1.450650 0
M  V30 10 N 1.002128 0.859356 -2.235399 0
M  V30 11 C 0.642395 2.024631 -1.461896 0
M  V30 12 N 1.188117 3.251373 -1.276525 0
M  V30 13 C 0.575130 4.112328 -0.449002 0
M  V30 14 C -0.587582 3.827118 0.233323 0
M  V30 15 C -1.422906 4.492400 1.126696 0
M  V30 16 C -2.437377 3.589402 1.421063 0
M  V30 17 N -2.280890 2.425846 0.773580 0
M  V30 18 C -3.062106 1.225350 0.780254 0
M  V30 19 C -4.389851 1.499615 0.151356 0
M  V30 20 C -5.250038 0.257476 0.052220 0
M  V30 21 C -4.475691 -0.848381 -0.627280 0
M  V30 22 C -3.256467 -1.148881 0.222112 0
M  V30 23 C -2.356132 0.082967 0.082744 0
M  V30 24 C -1.135321 2.573315 0.037316 0
M  V30 25 N -0.485302 1.727656 -0.809210 0
M  V30 26 C 1.931432 -1.375709 -2.037554 0
M  V30 27 C 2.527769 -2.391831 -1.285918 0
M  V30 28 C 3.336779 -4.584844 0.320185 0
M  V30 29 C 2.997726 -5.474047 1.508721 0
M  V30 30 H 0.647561 -4.288525 3.521229 0
M  V30 31 H 0.832758 -3.413052 1.995792 0
M  V30 32 H 0.458034 -5.183441 1.990251 0
M  V30 33 H 3.930097 -4.091805 3.933036 0
M  V30 34 H 2.658954 -2.843280 3.557503 0
M  V30 35 H 4.492399 -2.096760 2.277903 0
M  V30 36 H 5.046366 -3.793702 2.008450 0
M  V30 37 H 2.745582 -0.763043 1.676086 0
M  V30 38 H 1.717555 0.995496 0.378032 0
M  V30 39 H 0.837010 0.743589 -3.238922 0
M  V30 40 H 1.038249 5.064710 -0.334397 0
M  V30 41 H -1.243249 5.497547 1.465460 0
M  V30 42 H -3.252227 3.816307 2.098124 0
M  V30 43 H -3.173505 0.873435 1.849225 0
M  V30 44 H -4.944236 2.221287 0.771399 0
M  V30 45 H -4.182226 1.965883 -0.843320 0
M  V30 46 H -5.508547 -0.017747 1.102951 0
M  V30 47 H -6.158538 0.519000 -0.491418 0
M  V30 48 H -5.105820 -1.728636 -0.765245 0
M  V30 49 H -4.098299 -0.468675 -1.599385 0
M  V30 50 H -2.715070 -1.958158 -0.320901 0
M  V30 51 H -3.485038 -1.396042 1.256216 0
M  V30 52 H -1.360201 -0.066161 0.492992 0
M  V30 53 H -2.300623 0.232076 -1.025614 0
M  V30 54 H 1.677251 -1.488589 -3.091410 0
M  V30 55 H 2.714329 -3.296991 -1.846943 0
M  V30 56 H 2.562869 -4.722191 -0.434271 0
M  V30 57 H 4.300586 -4.933317 -0.084747 0
M  V30 58 H 2.340313 -6.263913 1.165644 0
M  V30 59 H 3.925779 -5.931933 1.905063 0
M  V30 END ATOM
M  V30 BEGIN BOND
M  V30 1 1 1 2
M  V30 2 1 2 3
M  V30 3 1 3 4
M  V30 4 1 4 5
M  V30 5 1 5 6
M  V30 6 2 6 7
M  V30 7 1 7 8
M  V30 8 2 8 9
M  V30 9 1 9 10
M  V30 10 1 10 11
M  V30 11 2 11 12
M  V30 12 1 12 13
M  V30 13 2 13 14
M  V30 14 1 14 15
M  V30 15 2 15 16
M  V30 16 1 16 17
M  V30 17 1 17 18
M  V30 18 1 18 19
M  V30 19 1 19 20
M  V30 20 1 20 21
M  V30 21 1 21 22
M  V30 22 1 22 23
M  V30 23 1 17 24
M  V30 24 2 24 25
M  V30 25 1 9 26
M  V30 26 2 26 27
M  V30 27 1 5 28
M  V30 28 1 28 29
M  V30 29 1 29 2
M  V30 30 1 27 6
M  V30 31 1 25 11
M  V30 32 1 24 14
M  V30 33 1 23 18
M  V30 34 1 1 30
M  V30 35 1 1 31
M  V30 36 1 1 32
M  V30 37 1 3 33
M  V30 38 1 3 34
M  V30 39 1 4 35
M  V30 40 1 4 36
M  V30 41 1 7 37
M  V30 42 1 8 38
M  V30 43 1 10 39
M  V30 44 1 13 40
M  V30 45 1 15 41
M  V30 46 1 16 42
M  V30 47 1 18 43
M  V30 48 1 19 44
M  V30 49 1 19 45
M  V30 50 1 20 46
M  V30 51 1 20 47
M  V30 52 1 21 48
M  V30 53 1 21 49
M  V30 54 1 22 50
M  V30 55 1 22 51
M  V30 56 1 23 52
M  V30 57 1 23 53
M  V30 58 1 26 54
M  V30 59 1 27 55
M  V30 60 1 28 56
M  V30 61 1 28 57
M  V30 62 1 29 58
M  V30 63 1 29 59
M  V30 END BOND
M  V30 END CTAB
M  END
>  <Dataset>  (902) 
ChEMBL_Kinases

>  <Ligand_Instance>  (902) 
nan

>  <PDB_ID>  (902) 
nan

>  <Standardized_SMILES>  (902) 
CN1CCN(c2ccc(Nc3ncc4ccn(C5CCCCC5)c4n3)cc2)CC1

>  <Name>  (902) 
nan

>  <Pocket>  (902) 
nan

>  <ATP_Site>  (902) 
nan

>  <Peripheral>  (902) 
nan

>  <Num_H_Atoms_ProtBoundConf>  (902) 
nan

>  <Num_Resolved_Atoms>  (902) 
nan

>  <Num_Not_Resolved_Atoms>  (902) 
nan

$$$$
CHEMBL2147539
     RDKit          3D

  0  0  0  0  0  0  0  0  0  0999 V3000
M  V30 BEGIN CTAB
M  V30 COUNTS 48 51 0 0 0
M  V30 BEGIN ATOM
M  V30 1 N -1.299126 -3.292261 0.803005 0
M  V30 2 C -1.521688 -2.099110 0.037877 0
M  V30 3 C -0.330922 -1.200214 0.069070 0
M  V30 4 N 0.050278 -0.752956 1.391949 0
M  V30 5 C 1.165942 0.105547 1.554946 0
M  V30 6 N 1.860700 0.497267 0.480266 0
M  V30 7 C 2.931575 1.307903 0.526323 0
M  V30 8 C 3.603444 1.662017 -0.716030 0
M  V30 9 C 4.701155 2.476797 -0.802109 0
M  V30 10 C 5.318634 2.795509 -1.999156 0
M  V30 11 N 4.850972 2.303840 -3.151681 0
M  V30 12 C 3.778343 1.502831 -3.107433 0
M  V30 13 C 3.152288 1.175995 -1.924172 0
M  V30 14 C 3.366571 1.782815 1.743609 0
M  V30 15 C 2.704698 1.423801 2.883994 0
M  V30 16 C 3.116638 1.882559 4.110844 0
M  V30 17 N 2.442376 1.509730 5.214063 0
M  V30 18 C 1.364174 0.690870 5.145655 0
M  V30 19 C 0.948763 0.229021 3.914842 0
M  V30 20 C 1.613471 0.588960 2.764665 0
M  V30 21 C -2.771259 -1.425296 0.576458 0
M  V30 22 C -3.910320 -2.379011 0.423108 0
M  V30 23 C -4.629046 -2.327535 -0.756563 0
M  V30 24 C -5.706130 -3.174782 -0.991886 0
M  V30 25 C -6.065192 -4.095989 -0.011337 0
M  V30 26 C -5.326609 -4.133731 1.175796 0
M  V30 27 C -4.256689 -3.287400 1.401728 0
M  V30 28 H -0.563943 -3.912892 0.448591 0
M  V30 29 H -1.324055 -3.143344 1.826861 0
M  V30 30 H -1.680892 -2.408132 -1.011228 0
M  V30 31 H -0.567458 -0.286943 -0.548585 0
M  V30 32 H 0.499684 -1.717558 -0.446090 0
M  V30 33 H -0.564404 -1.124030 2.141250 0
M  V30 34 H 5.119874 2.900641 0.095042 0
M  V30 35 H 6.187159 3.443404 -2.040672 0
M  V30 36 H 3.422554 1.118692 -4.067255 0
M  V30 37 H 2.298161 0.525396 -1.993925 0
M  V30 38 H 4.205549 2.425663 1.843539 0
M  V30 39 H 3.978845 2.540619 4.192191 0
M  V30 40 H 0.872783 0.434333 6.074478 0
M  V30 41 H 0.090958 -0.418129 3.896020 0
M  V30 42 H -2.941979 -0.495242 -0.000902 0
M  V30 43 H -2.657092 -1.137920 1.636175 0
M  V30 44 H -4.359782 -1.610870 -1.534725 0
M  V30 45 H -6.271106 -3.132666 -1.921935 0
M  V30 46 H -6.888203 -4.775889 -0.137249 0
M  V30 47 H -5.573714 -4.835351 1.962775 0
M  V30 48 H -3.691960 -3.324172 2.322540 0
M  V30 END ATOM
M  V30 BEGIN BOND
M  V30 1 1 1 2
M  V30 2 1 2 3
M  V30 3 1 3 4
M  V30 4 1 4 5
M  V30 5 2 5 6
M  V30 6 1 6 7
M  V30 7 1 7 8
M  V30 8 2 8 9
M  V30 9 1 9 10
M  V30 10 2 10 11
M  V30 11 1 11 12
M  V30 12 2 12 13
M  V30 13 2 7 14
M  V30 14 1 14 15
M  V30 15 2 15 16
M  V30 16 1 16 17
M  V30 17 2 17 18
M  V30 18 1 18 19
M  V30 19 2 19 20
M  V30 20 1 2 21
M  V30 21 1 21 22
M  V30 22 2 22 23
M  V30 23 1 23 24
M  V30 24 2 24 25
M  V30 25 1 25 26
M  V30 26 2 26 27
M  V30 27 1 20 5
M  V30 28 1 27 22
M  V30 29 1 13 8
M  V30 30 1 20 15
M  V30 31 1 1 28
M  V30 32 1 1 29
M  V30 33 1 2 30
M  V30 34 1 3 31
M  V30 35 1 3 32
M  V30 36 1 4 33
M  V30 37 1 9 34
M  V30 38 1 10 35
M  V30 39 1 12 36
M  V30 40 1 13 37
M  V30 41 1 14 38
M  V30 42 1 16 39
M  V30 43 1 18 40
M  V30 44 1 19 41
M  V30 45 1 21 42
M  V30 46 1 21 43
M  V30 47 1 23 44
M  V30 48 1 24 45
M  V30 49 1 25 46
M  V30 50 1 26 47
M  V30 51 1 27 48
M  V30 END BOND
M  V30 END CTAB
M  END
>  <Dataset>  (903) 
ChEMBL_Kinases

>  <Ligand_Instance>  (903) 
nan

>  <PDB_ID>  (903) 
nan

>  <Standardized_SMILES>  (903) 
NC(CNc1nc(-c2ccncc2)cc2cnccc12)Cc1ccccc1

>  <Name>  (903) 
nan

>  <Pocket>  (903) 
nan

>  <ATP_Site>  (903) 
nan

>  <Peripheral>  (903) 
nan

>  <Num_H_Atoms_ProtBoundConf>  (903) 
nan

>  <Num_Resolved_Atoms>  (903) 
nan

>  <Num_Not_Resolved_Atoms>  (903) 
nan

$$$$
CHEMBL2147540
     RDKit          3D

  0  0  0  0  0  0  0  0  0  0999 V3000
M  V30 BEGIN CTAB
M  V30 COUNTS 38 40 0 0 0
M  V30 BEGIN ATOM
M  V30 1 C -1.873798 -1.864361 3.127203 0
M  V30 2 N -0.640820 -1.689083 2.367939 0
M  V30 3 C 0.396385 -2.368188 3.116135 0
M  V30 4 C 1.699028 -2.229766 2.392485 0
M  V30 5 N 1.556552 -2.825615 1.087221 0
M  V30 6 C -0.524059 -0.972461 1.121396 0
M  V30 7 N 0.308461 0.085321 1.104251 0
M  V30 8 C 0.501293 0.832868 0.001093 0
M  V30 9 C 1.403935 1.977997 -0.013642 0
M  V30 10 C 1.644362 2.781694 -1.108308 0
M  V30 11 C 2.510617 3.855580 -1.067466 0
M  V30 12 N 3.161093 4.143094 0.098143 0
M  V30 13 C 2.939492 3.369699 1.178456 0
M  V30 14 C 2.070177 2.284491 1.153938 0
M  V30 15 C -0.220614 0.427602 -1.103884 0
M  V30 16 C -1.083385 -0.648926 -1.129205 0
M  V30 17 C -1.785716 -1.018968 -2.257372 0
M  V30 18 N -2.611983 -2.080380 -2.215192 0
M  V30 19 C -2.796623 -2.828624 -1.087924 0
M  V30 20 C -2.099545 -2.474506 0.060575 0
M  V30 21 C -1.251006 -1.387661 0.024226 0
M  V30 22 H -2.086789 -2.906132 3.370080 0
M  V30 23 H -1.737115 -1.345293 4.112718 0
M  V30 24 H -2.743892 -1.388638 2.639448 0
M  V30 25 H 0.169095 -3.444716 3.261237 0
M  V30 26 H 0.536540 -1.944746 4.124531 0
M  V30 27 H 2.535488 -2.678638 2.972264 0
M  V30 28 H 1.972836 -1.163762 2.258458 0
M  V30 29 H 2.403527 -2.720630 0.489167 0
M  V30 30 H 1.325244 -3.838725 1.180043 0
M  V30 31 H 1.127978 2.551891 -2.030250 0
M  V30 32 H 2.670224 4.464941 -1.959984 0
M  V30 33 H 3.508892 3.692024 2.044228 0
M  V30 34 H 1.960208 1.727152 2.069633 0
M  V30 35 H -0.136019 0.957171 -2.028858 0
M  V30 36 H -1.654682 -0.437638 -3.167475 0
M  V30 37 H -3.468280 -3.679120 -1.080543 0
M  V30 38 H -2.212383 -3.036079 0.977417 0
M  V30 END ATOM
M  V30 BEGIN BOND
M  V30 1 1 1 2
M  V30 2 1 2 3
M  V30 3 1 3 4
M  V30 4 1 4 5
M  V30 5 1 2 6
M  V30 6 2 6 7
M  V30 7 1 7 8
M  V30 8 1 8 9
M  V30 9 2 9 10
M  V30 10 1 10 11
M  V30 11 2 11 12
M  V30 12 1 12 13
M  V30 13 2 13 14
M  V30 14 2 8 15
M  V30 15 1 15 16
M  V30 16 2 16 17
M  V30 17 1 17 18
M  V30 18 2 18 19
M  V30 19 1 19 20
M  V30 20 2 20 21
M  V30 21 1 21 6
M  V30 22 1 14 9
M  V30 23 1 21 16
M  V30 24 1 1 22
M  V30 25 1 1 23
M  V30 26 1 1 24
M  V30 27 1 3 25
M  V30 28 1 3 26
M  V30 29 1 4 27
M  V30 30 1 4 28
M  V30 31 1 5 29
M  V30 32 1 5 30
M  V30 33 1 10 31
M  V30 34 1 11 32
M  V30 35 1 13 33
M  V30 36 1 14 34
M  V30 37 1 15 35
M  V30 38 1 17 36
M  V30 39 1 19 37
M  V30 40 1 20 38
M  V30 END BOND
M  V30 END CTAB
M  END
>  <Dataset>  (904) 
ChEMBL_Kinases

>  <Ligand_Instance>  (904) 
nan

>  <PDB_ID>  (904) 
nan

>  <Standardized_SMILES>  (904) 
CN(CCN)c1nc(-c2ccncc2)cc2cnccc12

>  <Name>  (904) 
nan

>  <Pocket>  (904) 
nan

>  <ATP_Site>  (904) 
nan

>  <Peripheral>  (904) 
nan

>  <Num_H_Atoms_ProtBoundConf>  (904) 
nan

>  <Num_Resolved_Atoms>  (904) 
nan

>  <Num_Not_Resolved_Atoms>  (904) 
nan

$$$$
CHEMBL2147541
     RDKit          3D

  0  0  0  0  0  0  0  0  0  0999 V3000
M  V30 BEGIN CTAB
M  V30 COUNTS 38 40 0 0 0
M  V30 BEGIN ATOM
M  V30 1 C 0.020093 -2.058190 4.853053 0
M  V30 2 N 0.347270 -3.212488 4.035868 0
M  V30 3 C 1.596398 -2.899472 3.346658 0
M  V30 4 C 1.320857 -1.800048 2.349794 0
M  V30 5 N 0.325897 -2.231105 1.388885 0
M  V30 6 C -0.067048 -1.310714 0.347159 0
M  V30 7 N 0.502083 -0.096246 0.317072 0
M  V30 8 C 0.226168 0.852712 -0.592264 0
M  V30 9 C 0.899124 2.143944 -0.539269 0
M  V30 10 C 0.667585 3.163978 -1.436197 0
M  V30 11 C 1.304050 4.401388 -1.395241 0
M  V30 12 N 2.206296 4.608138 -0.408407 0
M  V30 13 C 2.430643 3.614034 0.464364 0
M  V30 14 C 1.829681 2.373333 0.468815 0
M  V30 15 C -0.710557 0.526043 -1.547795 0
M  V30 16 C -1.345728 -0.692431 -1.596587 0
M  V30 17 C -2.285026 -1.042566 -2.541366 0
M  V30 18 N -2.870570 -2.253195 -2.534261 0
M  V30 19 C -2.545251 -3.172626 -1.582189 0
M  V30 20 C -1.608347 -2.852750 -0.622017 0
M  V30 21 C -1.001628 -1.616683 -0.618226 0
M  V30 22 H -0.516584 -2.327791 5.771307 0
M  V30 23 H 0.929643 -1.483399 5.123312 0
M  V30 24 H -0.603491 -1.386551 4.227770 0
M  V30 25 H 0.497113 -4.012686 4.680318 0
M  V30 26 H 2.023143 -3.757904 2.827753 0
M  V30 27 H 2.354771 -2.523246 4.081338 0
M  V30 28 H 0.965324 -0.869705 2.882797 0
M  V30 29 H 2.310196 -1.575935 1.856825 0
M  V30 30 H -0.051670 -3.180840 1.500944 0
M  V30 31 H -0.047523 3.028377 -2.234703 0
M  V30 32 H 1.061158 5.161654 -2.150298 0
M  V30 33 H 3.172697 3.888315 1.212773 0
M  V30 34 H 2.076437 1.630818 1.218865 0
M  V30 35 H -0.984170 1.228450 -2.306292 0
M  V30 36 H -2.547177 -0.317226 -3.299780 0
M  V30 37 H -3.019612 -4.158070 -1.573336 0
M  V30 38 H -1.387525 -3.610448 0.104739 0
M  V30 END ATOM
M  V30 BEGIN BOND
M  V30 1 1 1 2
M  V30 2 1 2 3
M  V30 3 1 3 4
M  V30 4 1 4 5
M  V30 5 1 5 6
M  V30 6 2 6 7
M  V30 7 1 7 8
M  V30 8 1 8 9
M  V30 9 2 9 10
M  V30 10 1 10 11
M  V30 11 2 11 12
M  V30 12 1 12 13
M  V30 13 2 13 14
M  V30 14 2 8 15
M  V30 15 1 15 16
M  V30 16 2 16 17
M  V30 17 1 17 18
M  V30 18 2 18 19
M  V30 19 1 19 20
M  V30 20 2 20 21
M  V30 21 1 21 6
M  V30 22 1 14 9
M  V30 23 1 21 16
M  V30 24 1 1 22
M  V30 25 1 1 23
M  V30 26 1 1 24
M  V30 27 1 2 25
M  V30 28 1 3 26
M  V30 29 1 3 27
M  V30 30 1 4 28
M  V30 31 1 4 29
M  V30 32 1 5 30
M  V30 33 1 10 31
M  V30 34 1 11 32
M  V30 35 1 13 33
M  V30 36 1 14 34
M  V30 37 1 15 35
M  V30 38 1 17 36
M  V30 39 1 19 37
M  V30 40 1 20 38
M  V30 END BOND
M  V30 END CTAB
M  END
>  <Dataset>  (905) 
ChEMBL_Kinases

>  <Ligand_Instance>  (905) 
nan

>  <PDB_ID>  (905) 
nan

>  <Standardized_SMILES>  (905) 
CNCCNc1nc(-c2ccncc2)cc2cnccc12

>  <Name>  (905) 
nan

>  <Pocket>  (905) 
nan

>  <ATP_Site>  (905) 
nan

>  <Peripheral>  (905) 
nan

>  <Num_H_Atoms_ProtBoundConf>  (905) 
nan

>  <Num_Resolved_Atoms>  (905) 
nan

>  <Num_Not_Resolved_Atoms>  (905) 
nan

$$$$
CHEMBL4582624
     RDKit          3D

  0  0  0  0  0  0  0  0  0  0999 V3000
M  V30 BEGIN CTAB
M  V30 COUNTS 69 73 0 0 0
M  V30 BEGIN ATOM
M  V30 1 C 5.300981 4.472270 3.490387 0
M  V30 2 O 4.811392 3.354005 2.813117 0
M  V30 3 C 5.000324 3.164763 1.450030 0
M  V30 4 O 5.584024 3.848123 0.555886 0
M  V30 5 N 4.432629 1.966632 0.922744 0
M  V30 6 C 4.495361 1.547587 -0.469363 0
M  V30 7 C 3.089187 1.153541 -0.883778 0
M  V30 8 N 2.125363 1.630235 0.085132 0
M  V30 9 C 0.806911 1.659269 -0.518487 0 CFG=1
M  V30 10 C 0.353977 0.313343 -0.985497 0
M  V30 11 C -1.147820 0.098837 -0.747868 0
M  V30 12 C -1.335623 0.288172 0.731075 0 CFG=2
M  V30 13 N -2.530784 -0.311995 1.266704 0
M  V30 14 C -2.575960 -1.754468 1.174114 0
M  V30 15 N -1.577202 -2.482140 0.646287 0
M  V30 16 C -1.532093 -3.797852 0.516388 0
M  V30 17 N -0.304142 -4.199179 -0.085756 0
M  V30 18 C -0.276676 -4.157301 -1.507546 0
M  V30 19 C -1.274115 -3.790321 -2.386104 0
M  V30 20 N -0.850728 -3.878146 -3.666528 0
M  V30 21 N 0.404910 -4.295645 -3.644978 0
M  V30 22 C 1.187716 -4.502737 -4.846324 0
M  V30 23 C 0.780934 -4.473050 -2.366516 0
M  V30 24 N -2.599756 -4.498110 0.958502 0
M  V30 25 C -3.639336 -3.847861 1.499528 0
M  V30 26 C -4.692183 -4.612614 1.932091 0
M  V30 27 C -5.758161 -3.923834 2.490737 0
M  V30 28 C -5.758114 -2.534759 2.605243 0
M  V30 29 C -6.881661 -1.763489 3.199811 0
M  V30 30 C -7.874249 -1.385075 2.198052 0
M  V30 31 N -8.664364 -1.082879 1.422072 0
M  V30 32 N -4.709490 -1.811757 2.171290 0
M  V30 33 C -3.667359 -2.465497 1.626825 0
M  V30 34 C -1.237176 1.764402 0.998208 0
M  V30 35 C -0.186836 2.465303 0.238124 0
M  V30 36 C 2.212500 0.972870 1.342788 0
M  V30 37 C 3.699041 0.983778 1.727881 0
M  V30 38 H 5.874923 4.118862 4.380860 0
M  V30 39 H 5.868066 5.143019 2.828935 0
M  V30 40 H 4.412097 5.031824 3.884473 0
M  V30 41 H 5.117944 0.614028 -0.564971 0
M  V30 42 H 4.924480 2.313240 -1.130364 0
M  V30 43 H 2.881586 1.667845 -1.843104 0
M  V30 44 H 2.975482 0.073302 -1.028999 0
M  V30 45 H 1.004459 2.228672 -1.481409 0
M  V30 46 H 0.838622 -0.530333 -0.435749 0
M  V30 47 H 0.525331 0.110441 -2.064911 0
M  V30 48 H -1.397452 -0.908072 -1.075484 0
M  V30 49 H -1.655132 0.891774 -1.342346 0
M  V30 50 H -0.442888 -0.186459 1.229846 0
M  V30 51 H -3.331246 0.159135 1.694754 0
M  V30 52 H 0.558994 -4.514468 0.407171 0
M  V30 53 H -2.275861 -3.468699 -2.116115 0
M  V30 54 H 2.262369 -4.637360 -4.622767 0
M  V30 55 H 1.094613 -3.613340 -5.537458 0
M  V30 56 H 0.849083 -5.386713 -5.416012 0
M  V30 57 H 1.762291 -4.811262 -2.058975 0
M  V30 58 H -4.742055 -5.686425 1.867029 0
M  V30 59 H -6.636072 -4.418893 2.863316 0
M  V30 60 H -6.536960 -0.865914 3.738350 0
M  V30 61 H -7.437317 -2.362909 3.975650 0
M  V30 62 H -1.231811 1.925127 2.097906 0
M  V30 63 H -2.245820 2.167674 0.685231 0
M  V30 64 H -0.627837 3.303592 -0.379515 0
M  V30 65 H 0.419282 3.041488 1.001514 0
M  V30 66 H 1.939555 -0.095673 1.330506 0
M  V30 67 H 1.667410 1.543332 2.092433 0
M  V30 68 H 4.179989 0.013632 1.557714 0
M  V30 69 H 3.801294 1.219334 2.812544 0
M  V30 END ATOM
M  V30 BEGIN BOND
M  V30 1 1 1 2
M  V30 2 1 2 3
M  V30 3 2 3 4
M  V30 4 1 3 5
M  V30 5 1 5 6
M  V30 6 1 6 7
M  V30 7 1 7 8
M  V30 8 1 8 9
M  V30 9 1 9 10
M  V30 10 1 10 11
M  V30 11 1 11 12
M  V30 12 1 12 13
M  V30 13 1 13 14
M  V30 14 2 14 15
M  V30 15 1 15 16
M  V30 16 1 16 17
M  V30 17 1 17 18
M  V30 18 1 18 19
M  V30 19 2 19 20
M  V30 20 1 20 21
M  V30 21 1 21 22
M  V30 22 1 21 23
M  V30 23 2 16 24
M  V30 24 1 24 25
M  V30 25 2 25 26
M  V30 26 1 26 27
M  V30 27 2 27 28
M  V30 28 1 28 29
M  V30 29 1 29 30
M  V30 30 3 30 31
M  V30 31 1 28 32
M  V30 32 2 32 33
M  V30 33 1 12 34
M  V30 34 1 34 35
M  V30 35 1 8 36
M  V30 36 1 36 37
M  V30 37 1 37 5
M  V30 38 1 35 9
M  V30 39 1 33 14
M  V30 40 2 23 18
M  V30 41 1 33 25
M  V30 42 1 1 38
M  V30 43 1 1 39
M  V30 44 1 1 40
M  V30 45 1 6 41
M  V30 46 1 6 42
M  V30 47 1 7 43
M  V30 48 1 7 44
M  V30 49 1 9 45 CFG=3
M  V30 50 1 10 46
M  V30 51 1 10 47
M  V30 52 1 11 48
M  V30 53 1 11 49
M  V30 54 1 12 50 CFG=1
M  V30 55 1 13 51
M  V30 56 1 17 52
M  V30 57 1 19 53
M  V30 58 1 22 54
M  V30 59 1 22 55
M  V30 60 1 22 56
M  V30 61 1 23 57
M  V30 62 1 26 58
M  V30 63 1 27 59
M  V30 64 1 29 60
M  V30 65 1 29 61
M  V30 66 1 34 62
M  V30 67 1 34 63
M  V30 68 1 35 64
M  V30 69 1 35 65
M  V30 70 1 36 66
M  V30 71 1 36 67
M  V30 72 1 37 68
M  V30 73 1 37 69
M  V30 END BOND
M  V30 END CTAB
M  END
>  <Dataset>  (906) 
ChEMBL_Kinases

>  <Ligand_Instance>  (906) 
nan

>  <PDB_ID>  (906) 
nan

>  <Standardized_SMILES>  (906) 
COC(=O)N1CCN([C@H]2CC[C@H](Nc3nc(Nc4cnn(C)c4)nc4ccc(CC#N)nc34)CC2)CC1

>  <Name>  (906) 
nan

>  <Pocket>  (906) 
nan

>  <ATP_Site>  (906) 
nan

>  <Peripheral>  (906) 
nan

>  <Num_H_Atoms_ProtBoundConf>  (906) 
nan

>  <Num_Resolved_Atoms>  (906) 
nan

>  <Num_Not_Resolved_Atoms>  (906) 
nan

$$$$
CHEMBL2147545
     RDKit          3D

  0  0  0  0  0  0  0  0  0  0999 V3000
M  V30 BEGIN CTAB
M  V30 COUNTS 34 36 0 0 0
M  V30 BEGIN ATOM
M  V30 1 O -1.479450 -1.633229 4.778447 0
M  V30 2 C -1.752528 -2.769495 4.020109 0
M  V30 3 C -0.681400 -3.018014 2.952346 0
M  V30 4 N -0.504175 -2.020769 2.006622 0
M  V30 5 C -0.320569 -0.988503 1.027545 0
M  V30 6 N 0.690022 -0.921040 0.143127 0
M  V30 7 C 0.904127 0.039446 -0.750991 0
M  V30 8 C 2.063349 -0.088086 -1.613624 0
M  V30 9 C 2.884388 -1.185862 -1.471981 0
M  V30 10 C 3.971333 -1.259033 -2.317238 0
M  V30 11 N 4.298371 -0.348508 -3.269218 0
M  V30 12 C 3.488577 0.732978 -3.407800 0
M  V30 13 C 2.385060 0.841549 -2.575372 0
M  V30 14 C -0.041996 1.018907 -0.701917 0
M  V30 15 C -1.122659 1.080332 0.142824 0
M  V30 16 C -1.986595 2.176164 0.023887 0
M  V30 17 N -3.035970 2.182972 0.868609 0
M  V30 18 C -3.246192 1.208594 1.766231 0
M  V30 19 C -2.361448 0.156418 1.835960 0
M  V30 20 C -1.248555 0.031643 1.029434 0
M  V30 21 H -2.265875 -1.041027 4.885213 0
M  V30 22 H -1.699311 -3.643805 4.699430 0
M  V30 23 H -2.766859 -2.753081 3.584822 0
M  V30 24 H 0.214792 -3.319342 3.570987 0
M  V30 25 H -1.073602 -3.973352 2.462592 0
M  V30 26 H 0.319483 -2.613656 1.699776 0
M  V30 27 H 2.721405 -1.966121 -0.753259 0
M  V30 28 H 4.684553 -2.080524 -2.293276 0
M  V30 29 H 3.599032 1.556107 -4.115125 0
M  V30 30 H 1.696261 1.666921 -2.622538 0
M  V30 31 H 0.095909 1.815153 -1.408898 0
M  V30 32 H -1.789366 2.942789 -0.708573 0
M  V30 33 H -4.096325 1.236061 2.433717 0
M  V30 34 H -2.545394 -0.606070 2.536375 0
M  V30 END ATOM
M  V30 BEGIN BOND
M  V30 1 1 1 2
M  V30 2 1 2 3
M  V30 3 1 3 4
M  V30 4 1 4 5
M  V30 5 2 5 6
M  V30 6 1 6 7
M  V30 7 1 7 8
M  V30 8 2 8 9
M  V30 9 1 9 10
M  V30 10 2 10 11
M  V30 11 1 11 12
M  V30 12 2 12 13
M  V30 13 2 7 14
M  V30 14 1 14 15
M  V30 15 2 15 16
M  V30 16 1 16 17
M  V30 17 2 17 18
M  V30 18 1 18 19
M  V30 19 2 19 20
M  V30 20 1 20 5
M  V30 21 1 13 8
M  V30 22 1 20 15
M  V30 23 1 1 21
M  V30 24 1 2 22
M  V30 25 1 2 23
M  V30 26 1 3 24
M  V30 27 1 3 25
M  V30 28 1 4 26
M  V30 29 1 9 27
M  V30 30 1 10 28
M  V30 31 1 12 29
M  V30 32 1 13 30
M  V30 33 1 14 31
M  V30 34 1 16 32
M  V30 35 1 18 33
M  V30 36 1 19 34
M  V30 END BOND
M  V30 END CTAB
M  END
>  <Dataset>  (907) 
ChEMBL_Kinases

>  <Ligand_Instance>  (907) 
nan

>  <PDB_ID>  (907) 
nan

>  <Standardized_SMILES>  (907) 
OCCNc1nc(-c2ccncc2)cc2cnccc12

>  <Name>  (907) 
nan

>  <Pocket>  (907) 
nan

>  <ATP_Site>  (907) 
nan

>  <Peripheral>  (907) 
nan

>  <Num_H_Atoms_ProtBoundConf>  (907) 
nan

>  <Num_Resolved_Atoms>  (907) 
nan

>  <Num_Not_Resolved_Atoms>  (907) 
nan

$$$$
CHEMBL97162
     RDKit          3D

  0  0  0  0  0  0  0  0  0  0999 V3000
M  V30 BEGIN CTAB
M  V30 COUNTS 48 51 0 0 0
M  V30 BEGIN ATOM
M  V30 1 C 2.893901 -3.822017 3.426035 0
M  V30 2 O 2.197560 -3.221889 2.378774 0
M  V30 3 C 1.837445 -1.873281 2.340116 0
M  V30 4 N 2.135919 -1.013558 3.329941 0
M  V30 5 C 1.748208 0.266749 3.205691 0
M  V30 6 C 1.057411 0.741386 2.108558 0
M  V30 7 C 0.784242 -0.193550 1.130872 0
M  V30 8 C 0.053322 0.167022 -0.092102 0
M  V30 9 C 0.519435 1.109105 -0.988985 0
M  V30 10 C 1.723010 1.932033 -0.998606 0
M  V30 11 C 1.450301 3.305219 -0.975749 0
M  V30 12 C 2.504881 4.195212 -0.981733 0
M  V30 13 C 3.814345 3.752072 -1.009729 0
M  V30 14 F 4.888297 4.587853 -1.016948 0
M  V30 15 C 4.040298 2.381612 -1.031638 0
M  V30 16 C 3.015249 1.459948 -1.026632 0
M  V30 17 N -0.396995 1.172931 -1.971408 0
M  V30 18 C -1.396569 0.303266 -1.696822 0
M  V30 19 N -1.121353 -0.331942 -0.519045 0
M  V30 20 C -1.856207 -1.337683 0.201459 0 CFG=1
M  V30 21 C -2.330054 -0.930376 1.560226 0
M  V30 22 C -2.673795 -2.198335 2.313328 0
M  V30 23 C -3.237004 -3.259882 1.397259 0 CFG=2
M  V30 24 O -2.284707 -4.210597 1.013847 0
M  V30 25 C -3.927746 -2.655925 0.195207 0
M  V30 26 C -3.099673 -1.696647 -0.583655 0
M  V30 27 N 1.157199 -1.475471 1.226383 0
M  V30 28 H 3.820125 -4.334680 3.091152 0
M  V30 29 H 3.177142 -3.158740 4.254431 0
M  V30 30 H 2.261828 -4.632133 3.860923 0
M  V30 31 H 1.987877 0.963736 4.004576 0
M  V30 32 H 0.738076 1.775990 1.995822 0
M  V30 33 H 0.429970 3.715043 -0.953064 0
M  V30 34 H 2.328960 5.282630 -0.964652 0
M  V30 35 H 5.067005 2.018817 -1.053553 0
M  V30 36 H 3.150664 0.383621 -1.042422 0
M  V30 37 H -2.298251 0.054079 -2.214745 0
M  V30 38 H -1.177034 -2.227497 0.235903 0
M  V30 39 H -3.274513 -0.361483 1.442151 0
M  V30 40 H -1.643204 -0.321372 2.154977 0
M  V30 41 H -3.369898 -2.013621 3.146602 0
M  V30 42 H -1.728140 -2.593129 2.733375 0
M  V30 43 H -4.011789 -3.809950 1.969509 0
M  V30 44 H -2.555257 -4.639572 0.163237 0
M  V30 45 H -4.228037 -3.478724 -0.483029 0
M  V30 46 H -4.880110 -2.183086 0.531463 0
M  V30 47 H -3.675091 -0.738084 -0.700265 0
M  V30 48 H -2.873222 -2.022312 -1.612312 0
M  V30 END ATOM
M  V30 BEGIN BOND
M  V30 1 1 1 2
M  V30 2 1 2 3
M  V30 3 2 3 4
M  V30 4 1 4 5
M  V30 5 2 5 6
M  V30 6 1 6 7
M  V30 7 1 7 8
M  V30 8 2 8 9
M  V30 9 1 9 10
M  V30 10 2 10 11
M  V30 11 1 11 12
M  V30 12 2 12 13
M  V30 13 1 13 14
M  V30 14 1 13 15
M  V30 15 2 15 16
M  V30 16 1 9 17
M  V30 17 2 17 18
M  V30 18 1 18 19
M  V30 19 1 19 20
M  V30 20 1 20 21
M  V30 21 1 21 22
M  V30 22 1 22 23
M  V30 23 1 23 24
M  V30 24 1 23 25
M  V30 25 1 25 26
M  V30 26 2 7 27
M  V30 27 1 27 3
M  V30 28 1 19 8
M  V30 29 1 26 20
M  V30 30 1 16 10
M  V30 31 1 1 28
M  V30 32 1 1 29
M  V30 33 1 1 30
M  V30 34 1 5 31
M  V30 35 1 6 32
M  V30 36 1 11 33
M  V30 37 1 12 34
M  V30 38 1 15 35
M  V30 39 1 16 36
M  V30 40 1 18 37
M  V30 41 1 20 38 CFG=1
M  V30 42 1 21 39
M  V30 43 1 21 40
M  V30 44 1 22 41
M  V30 45 1 22 42
M  V30 46 1 23 43 CFG=1
M  V30 47 1 24 44
M  V30 48 1 25 45
M  V30 49 1 25 46
M  V30 50 1 26 47
M  V30 51 1 26 48
M  V30 END BOND
M  V30 END CTAB
M  END
>  <Dataset>  (908) 
ChEMBL_Kinases

>  <Ligand_Instance>  (908) 
nan

>  <PDB_ID>  (908) 
nan

>  <Standardized_SMILES>  (908) 
COc1nccc(-c2c(-c3ccc(F)cc3)ncn2[C@H]2CC[C@H](O)CC2)n1

>  <Name>  (908) 
nan

>  <Pocket>  (908) 
nan

>  <ATP_Site>  (908) 
nan

>  <Peripheral>  (908) 
nan

>  <Num_H_Atoms_ProtBoundConf>  (908) 
nan

>  <Num_Resolved_Atoms>  (908) 
nan

>  <Num_Not_Resolved_Atoms>  (908) 
nan

$$$$
CHEMBL96766
     RDKit          3D

  0  0  0  0  0  0  0  0  0  0999 V3000
M  V30 BEGIN CTAB
M  V30 COUNTS 65 65 0 0 0
M  V30 BEGIN ATOM
M  V30 1 C 0.612210 -3.795955 5.416109 0
M  V30 2 C 0.469690 -2.392069 4.956896 0
M  V30 3 C 0.889336 -1.513335 6.173434 0
M  V30 4 C 1.153192 -1.910119 3.759051 0
M  V30 5 C 0.960397 -2.375618 2.395620 0
M  V30 6 C 1.930792 -1.476476 1.510001 0
M  V30 7 C 1.591696 -0.063756 1.606820 0
M  V30 8 C 1.175674 0.660831 0.555506 0
M  V30 9 C 0.780722 2.114568 0.445112 0
M  V30 10 C -0.228953 2.085623 -0.695446 0
M  V30 11 C -1.571358 1.803083 -0.037536 0
M  V30 12 O -1.535395 0.660264 0.731839 0
M  V30 13 C -0.244590 3.380797 -1.440850 0
M  V30 14 O -1.152051 3.345503 -2.502486 0
M  V30 15 C -0.975701 2.522544 -3.575840 0
M  V30 16 O -0.115842 1.691005 -3.919362 0
M  V30 17 C -2.058338 2.615242 -4.610243 0
M  V30 18 C -1.752803 1.672350 -5.727480 0
M  V30 19 C -3.396244 2.203189 -3.993349 0
M  V30 20 C -2.210765 4.017079 -5.112024 0
M  V30 21 O 0.168133 1.037185 -1.536215 0
M  V30 22 C 1.001093 0.162658 -0.807529 0
M  V30 23 O 1.472314 -0.854485 -1.322916 0
M  V30 24 C 1.170925 -3.719954 1.897395 0
M  V30 25 C 0.493452 -4.933588 2.302365 0
M  V30 26 C -1.006384 -4.941617 2.153296 0
M  V30 27 C 0.911353 -6.060060 1.253761 0
M  V30 28 H 1.554975 -4.271097 5.055332 0
M  V30 29 H 0.653721 -3.873396 6.543095 0
M  V30 30 H -0.232343 -4.403112 5.034735 0
M  V30 31 H -0.646052 -2.218842 4.872833 0
M  V30 32 H 0.119323 -1.605310 6.961825 0
M  V30 33 H 0.906628 -0.464633 5.850374 0
M  V30 34 H 1.873224 -1.835580 6.547436 0
M  V30 35 H 2.299369 -1.965698 4.004475 0
M  V30 36 H 1.053698 -0.757353 3.712313 0
M  V30 37 H -0.049336 -1.941801 2.051721 0
M  V30 38 H 2.943732 -1.567693 2.018702 0
M  V30 39 H 2.084935 -1.922055 0.550719 0
M  V30 40 H 1.625883 0.596208 2.459412 0
M  V30 41 H 0.369908 2.509194 1.373473 0
M  V30 42 H 1.673974 2.635840 0.057703 0
M  V30 43 H -2.366197 1.676954 -0.799443 0
M  V30 44 H -1.863337 2.662178 0.599607 0
M  V30 45 H -1.731974 0.827163 1.692900 0
M  V30 46 H -0.423891 4.249442 -0.779745 0
M  V30 47 H 0.785824 3.492282 -1.884355 0
M  V30 48 H -2.671012 1.420280 -6.303901 0
M  V30 49 H -1.312663 0.711138 -5.389501 0
M  V30 50 H -1.038680 2.082175 -6.473906 0
M  V30 51 H -3.132646 1.349315 -3.307518 0
M  V30 52 H -3.996852 1.764412 -4.799832 0
M  V30 53 H -3.890200 3.021035 -3.458656 0
M  V30 54 H -1.227243 4.424034 -5.407893 0
M  V30 55 H -2.747248 4.675632 -4.399432 0
M  V30 56 H -2.848202 3.963454 -6.025289 0
M  V30 57 H 1.126088 -3.687646 0.734492 0
M  V30 58 H 2.312964 -3.918331 1.997935 0
M  V30 59 H 0.781062 -5.420509 3.221521 0
M  V30 60 H -1.333672 -5.997009 2.276645 0
M  V30 61 H -1.350533 -4.610518 1.168048 0
M  V30 62 H -1.537250 -4.365748 2.913923 0
M  V30 63 H 0.207144 -6.890463 1.327053 0
M  V30 64 H 1.958768 -6.292229 1.478719 0
M  V30 65 H 0.854491 -5.594405 0.253342 0
M  V30 END ATOM
M  V30 BEGIN BOND
M  V30 1 1 1 2
M  V30 2 1 2 3
M  V30 3 1 2 4
M  V30 4 1 4 5
M  V30 5 1 5 6
M  V30 6 1 6 7
M  V30 7 2 7 8
M  V30 8 1 8 9
M  V30 9 1 9 10
M  V30 10 1 10 11
M  V30 11 1 11 12
M  V30 12 1 10 13
M  V30 13 1 13 14
M  V30 14 1 14 15
M  V30 15 2 15 16
M  V30 16 1 15 17
M  V30 17 1 17 18
M  V30 18 1 17 19
M  V30 19 1 17 20
M  V30 20 1 10 21
M  V30 21 1 21 22
M  V30 22 2 22 23
M  V30 23 1 5 24
M  V30 24 1 24 25
M  V30 25 1 25 26
M  V30 26 1 25 27
M  V30 27 1 22 8
M  V30 28 1 1 28
M  V30 29 1 1 29
M  V30 30 1 1 30
M  V30 31 1 2 31
M  V30 32 1 3 32
M  V30 33 1 3 33
M  V30 34 1 3 34
M  V30 35 1 4 35
M  V30 36 1 4 36
M  V30 37 1 5 37
M  V30 38 1 6 38
M  V30 39 1 6 39
M  V30 40 1 7 40
M  V30 41 1 9 41
M  V30 42 1 9 42
M  V30 43 1 11 43
M  V30 44 1 11 44
M  V30 45 1 12 45
M  V30 46 1 13 46
M  V30 47 1 13 47
M  V30 48 1 18 48
M  V30 49 1 18 49
M  V30 50 1 18 50
M  V30 51 1 19 51
M  V30 52 1 19 52
M  V30 53 1 19 53
M  V30 54 1 20 54
M  V30 55 1 20 55
M  V30 56 1 20 56
M  V30 57 1 24 57
M  V30 58 1 24 58
M  V30 59 1 25 59
M  V30 60 1 26 60
M  V30 61 1 26 61
M  V30 62 1 26 62
M  V30 63 1 27 63
M  V30 64 1 27 64
M  V30 65 1 27 65
M  V30 END BOND
M  V30 END CTAB
M  END
>  <Dataset>  (909) 
ChEMBL_Kinases

>  <Ligand_Instance>  (909) 
nan

>  <PDB_ID>  (909) 
nan

>  <Standardized_SMILES>  (909) 
CC(C)CC(C/C=C1/CC(CO)(COC(=O)C(C)(C)C)OC1=O)CC(C)C

>  <Name>  (909) 
nan

>  <Pocket>  (909) 
nan

>  <ATP_Site>  (909) 
nan

>  <Peripheral>  (909) 
nan

>  <Num_H_Atoms_ProtBoundConf>  (909) 
nan

>  <Num_Resolved_Atoms>  (909) 
nan

>  <Num_Not_Resolved_Atoms>  (909) 
nan

$$$$
CHEMBL2147551
     RDKit          3D

  0  0  0  0  0  0  0  0  0  0999 V3000
M  V30 BEGIN CTAB
M  V30 COUNTS 41 43 0 0 0
M  V30 BEGIN ATOM
M  V30 1 C -0.662239 -4.361973 0.052893 0
M  V30 2 C 0.552789 -3.934202 0.847758 0
M  V30 3 C 0.466214 -4.384223 2.285667 0
M  V30 4 N 1.742469 -4.523331 0.273965 0
M  V30 5 C 0.684329 -2.456161 0.725999 0
M  V30 6 N -0.453713 -1.706467 1.222012 0
M  V30 7 C -0.475187 -0.284204 1.173206 0
M  V30 8 N 0.574037 0.338790 0.661585 0
M  V30 9 C 0.750011 1.658613 0.525551 0
M  V30 10 C 1.979916 2.130155 -0.063499 0
M  V30 11 C 2.896861 1.167509 -0.448665 0
M  V30 12 C 4.100774 1.497710 -1.019839 0
M  V30 13 N 4.452218 2.755271 -1.234260 0
M  V30 14 C 3.607221 3.729032 -0.882876 0
M  V30 15 C 2.407225 3.392425 -0.313254 0
M  V30 16 Cl 1.387206 4.717786 0.104792 0
M  V30 17 C -0.342369 2.324602 1.003886 0
M  V30 18 C -1.466484 1.795172 1.546320 0
M  V30 19 C -2.500823 2.590466 1.992437 0
M  V30 20 N -3.579392 1.970936 2.517512 0
M  V30 21 C -3.681732 0.643760 2.619757 0
M  V30 22 C -2.661391 -0.171181 2.180932 0
M  V30 23 C -1.553936 0.426945 1.643365 0
M  V30 24 H -1.581957 -4.434702 0.660948 0
M  V30 25 H -0.396794 -5.342952 -0.408842 0
M  V30 26 H -0.837389 -3.629299 -0.763206 0
M  V30 27 H 1.303764 -5.054335 2.578533 0
M  V30 28 H -0.451723 -5.003156 2.393083 0
M  V30 29 H 0.484619 -3.524011 2.982176 0
M  V30 30 H 2.584596 -3.947774 0.518277 0
M  V30 31 H 1.638148 -4.456125 -0.782567 0
M  V30 32 H 1.567618 -2.039043 1.246571 0
M  V30 33 H 0.826417 -2.204753 -0.345783 0
M  V30 34 H -1.204872 -2.315278 1.594996 0
M  V30 35 H 2.726240 0.085254 -0.325204 0
M  V30 36 H 4.798825 0.730899 -1.311656 0
M  V30 37 H 3.910032 4.748180 -1.064982 0
M  V30 38 H -0.320756 3.394389 0.949642 0
M  V30 39 H -2.446526 3.672796 1.922562 0
M  V30 40 H -4.544112 0.134366 3.040161 0
M  V30 41 H -2.727300 -1.227938 2.255129 0
M  V30 END ATOM
M  V30 BEGIN BOND
M  V30 1 1 1 2
M  V30 2 1 2 3
M  V30 3 1 2 4
M  V30 4 1 2 5
M  V30 5 1 5 6
M  V30 6 1 6 7
M  V30 7 2 7 8
M  V30 8 1 8 9
M  V30 9 1 9 10
M  V30 10 2 10 11
M  V30 11 1 11 12
M  V30 12 2 12 13
M  V30 13 1 13 14
M  V30 14 2 14 15
M  V30 15 1 15 16
M  V30 16 2 9 17
M  V30 17 1 17 18
M  V30 18 2 18 19
M  V30 19 1 19 20
M  V30 20 2 20 21
M  V30 21 1 21 22
M  V30 22 2 22 23
M  V30 23 1 23 7
M  V30 24 1 15 10
M  V30 25 1 23 18
M  V30 26 1 1 24
M  V30 27 1 1 25
M  V30 28 1 1 26
M  V30 29 1 3 27
M  V30 30 1 3 28
M  V30 31 1 3 29
M  V30 32 1 4 30
M  V30 33 1 4 31
M  V30 34 1 5 32
M  V30 35 1 5 33
M  V30 36 1 6 34
M  V30 37 1 11 35
M  V30 38 1 12 36
M  V30 39 1 14 37
M  V30 40 1 17 38
M  V30 41 1 19 39
M  V30 42 1 21 40
M  V30 43 1 22 41
M  V30 END BOND
M  V30 END CTAB
M  END
>  <Dataset>  (910) 
ChEMBL_Kinases

>  <Ligand_Instance>  (910) 
nan

>  <PDB_ID>  (910) 
nan

>  <Standardized_SMILES>  (910) 
CC(C)(N)CNc1nc(-c2ccncc2Cl)cc2cnccc12

>  <Name>  (910) 
nan

>  <Pocket>  (910) 
nan

>  <ATP_Site>  (910) 
nan

>  <Peripheral>  (910) 
nan

>  <Num_H_Atoms_ProtBoundConf>  (910) 
nan

>  <Num_Resolved_Atoms>  (910) 
nan

>  <Num_Not_Resolved_Atoms>  (910) 
nan

$$$$
CHEMBL2147552
     RDKit          3D

  0  0  0  0  0  0  0  0  0  0999 V3000
M  V30 BEGIN CTAB
M  V30 COUNTS 44 46 0 0 0
M  V30 BEGIN ATOM
M  V30 1 C -0.574544 -4.407826 -0.852972 0
M  V30 2 C 0.500345 -4.132142 0.123950 0
M  V30 3 C 1.052208 -5.183948 0.826009 0
M  V30 4 N 2.002765 -4.978034 1.748017 0
M  V30 5 C 2.423237 -3.727243 1.990877 0
M  V30 6 C 1.864930 -2.691776 1.283754 0
M  V30 7 C 0.876518 -2.827674 0.312617 0
M  V30 8 C 0.404819 -1.611211 -0.304166 0
M  V30 9 C -0.285250 -1.411468 -1.455194 0
M  V30 10 C -0.658217 -0.198211 -1.976159 0
M  V30 11 C -1.356467 -0.095535 -3.147332 0
M  V30 12 N -1.697111 1.115830 -3.612931 0
M  V30 13 C -1.367260 2.246133 -2.952288 0
M  V30 14 C -0.664140 2.162168 -1.771194 0
M  V30 15 C -0.305010 0.932091 -1.276151 0
M  V30 16 C 0.390662 0.772110 -0.113797 0
M  V30 17 N 0.824527 1.890067 0.666161 0
M  V30 18 C 1.538232 1.988622 1.906077 0
M  V30 19 C 0.710344 1.673053 3.109116 0
M  V30 20 C 0.118231 0.302459 3.169397 0
M  V30 21 C 1.613646 1.846059 4.342106 0
M  V30 22 N -0.367391 2.661239 3.166781 0
M  V30 23 N 0.699286 -0.449445 0.298214 0
M  V30 24 H -0.937366 -5.471462 -0.620788 0
M  V30 25 H -1.496268 -3.814112 -0.703337 0
M  V30 26 H -0.224320 -4.508248 -1.894945 0
M  V30 27 H 0.721464 -6.179339 0.636654 0
M  V30 28 H 3.188610 -3.570449 2.734281 0
M  V30 29 H 2.281468 -1.709356 1.555744 0
M  V30 30 H -0.553497 -2.251214 -2.031814 0
M  V30 31 H -1.634126 -0.993301 -3.698528 0
M  V30 32 H -1.654243 3.211673 -3.349513 0
M  V30 33 H -0.424361 3.071534 -1.281726 0
M  V30 34 H 0.598581 2.819419 0.304745 0
M  V30 35 H 1.964846 3.005807 2.014179 0
M  V30 36 H 2.410269 1.280487 1.812598 0
M  V30 37 H 0.894228 -0.471516 3.047415 0
M  V30 38 H -0.311306 0.210509 4.223345 0
M  V30 39 H -0.780989 0.161155 2.531911 0
M  V30 40 H 1.334106 2.806310 4.839531 0
M  V30 41 H 1.500068 1.019044 5.060640 0
M  V30 42 H 2.684871 1.904996 4.036630 0
M  V30 43 H -1.016172 2.351034 3.912126 0
M  V30 44 H -0.892338 2.580890 2.267547 0
M  V30 END ATOM
M  V30 BEGIN BOND
M  V30 1 1 1 2
M  V30 2 2 2 3
M  V30 3 1 3 4
M  V30 4 2 4 5
M  V30 5 1 5 6
M  V30 6 2 6 7
M  V30 7 1 7 8
M  V30 8 2 8 9
M  V30 9 1 9 10
M  V30 10 2 10 11
M  V30 11 1 11 12
M  V30 12 2 12 13
M  V30 13 1 13 14
M  V30 14 2 14 15
M  V30 15 1 15 16
M  V30 16 1 16 17
M  V30 17 1 17 18
M  V30 18 1 18 19
M  V30 19 1 19 20
M  V30 20 1 19 21
M  V30 21 1 19 22
M  V30 22 2 16 23
M  V30 23 1 7 2
M  V30 24 1 23 8
M  V30 25 1 15 10
M  V30 26 1 1 24
M  V30 27 1 1 25
M  V30 28 1 1 26
M  V30 29 1 3 27
M  V30 30 1 5 28
M  V30 31 1 6 29
M  V30 32 1 9 30
M  V30 33 1 11 31
M  V30 34 1 13 32
M  V30 35 1 14 33
M  V30 36 1 17 34
M  V30 37 1 18 35
M  V30 38 1 18 36
M  V30 39 1 20 37
M  V30 40 1 20 38
M  V30 41 1 20 39
M  V30 42 1 21 40
M  V30 43 1 21 41
M  V30 44 1 21 42
M  V30 45 1 22 43
M  V30 46 1 22 44
M  V30 END BOND
M  V30 END CTAB
M  END
>  <Dataset>  (911) 
ChEMBL_Kinases

>  <Ligand_Instance>  (911) 
nan

>  <PDB_ID>  (911) 
nan

>  <Standardized_SMILES>  (911) 
Cc1cnccc1-c1cc2cnccc2c(NCC(C)(C)N)n1

>  <Name>  (911) 
nan

>  <Pocket>  (911) 
nan

>  <ATP_Site>  (911) 
nan

>  <Peripheral>  (911) 
nan

>  <Num_H_Atoms_ProtBoundConf>  (911) 
nan

>  <Num_Resolved_Atoms>  (911) 
nan

>  <Num_Not_Resolved_Atoms>  (911) 
nan

$$$$
CHEMBL4874134
     RDKit          3D

  0  0  0  0  0  0  0  0  0  0999 V3000
M  V30 BEGIN CTAB
M  V30 COUNTS 41 44 0 0 0
M  V30 BEGIN ATOM
M  V30 1 C 3.584274 -6.773592 2.921865 0
M  V30 2 N 2.736597 -6.283066 1.855036 0
M  V30 3 C 2.866702 -4.897347 1.560478 0
M  V30 4 O 3.703777 -4.286596 2.270430 0
M  V30 5 C 2.037997 -4.348029 0.495647 0
M  V30 6 C 1.991078 -3.068337 0.043713 0
M  V30 7 C 1.152278 -2.740601 -0.962468 0
M  V30 8 N 0.961934 -1.464705 -1.567664 0
M  V30 9 N 0.998498 -1.141401 -2.845976 0
M  V30 10 C 0.762237 0.195253 -2.990858 0
M  V30 11 C 0.575750 0.679176 -1.703933 0
M  V30 12 C 0.306213 1.929698 -1.195932 0
M  V30 13 C 0.163694 2.153315 0.146302 0
M  V30 14 N -0.115942 3.415926 0.758578 0
M  V30 15 C -1.320297 3.485451 1.521373 0
M  V30 16 C -1.156104 3.805445 2.864344 0
M  V30 17 C -2.244930 3.903119 3.706910 0
M  V30 18 C -3.546842 3.685840 3.247202 0
M  V30 19 C -3.670441 3.369406 1.904445 0
M  V30 20 C -2.591587 3.268657 1.052169 0
M  V30 21 Cl -2.737560 2.870851 -0.639423 0
M  V30 22 C 0.288683 1.103751 1.063055 0
M  V30 23 F 0.165271 1.218974 2.417712 0
M  V30 24 C 0.559397 -0.143392 0.531166 0
M  V30 25 C 0.702204 -0.369238 -0.809417 0
M  V30 26 C 0.354348 -3.806598 -1.487465 0
M  V30 27 S 0.857374 -5.279248 -0.483783 0
M  V30 28 H 4.650870 -6.761680 2.665445 0
M  V30 29 H 3.427086 -6.066421 3.784123 0
M  V30 30 H 3.185069 -7.759320 3.230301 0
M  V30 31 H 2.060215 -6.859721 1.307463 0
M  V30 32 H 2.624185 -2.312644 0.488534 0
M  V30 33 H 0.722211 0.786179 -3.909564 0
M  V30 34 H 0.195002 2.787836 -1.825882 0
M  V30 35 H 0.439366 4.292941 0.724242 0
M  V30 36 H -0.189841 3.993540 3.323369 0
M  V30 37 H -2.163255 4.152681 4.771896 0
M  V30 38 H -4.409106 3.759299 3.897364 0
M  V30 39 H -4.661615 3.188256 1.485353 0
M  V30 40 H 0.661733 -0.973778 1.210697 0
M  V30 41 H -0.373684 -3.805930 -2.271769 0
M  V30 END ATOM
M  V30 BEGIN BOND
M  V30 1 1 1 2
M  V30 2 1 2 3
M  V30 3 2 3 4
M  V30 4 1 3 5
M  V30 5 2 5 6
M  V30 6 1 6 7
M  V30 7 1 7 8
M  V30 8 1 8 9
M  V30 9 2 9 10
M  V30 10 1 10 11
M  V30 11 2 11 12
M  V30 12 1 12 13
M  V30 13 1 13 14
M  V30 14 1 14 15
M  V30 15 2 15 16
M  V30 16 1 16 17
M  V30 17 2 17 18
M  V30 18 1 18 19
M  V30 19 2 19 20
M  V30 20 1 20 21
M  V30 21 2 13 22
M  V30 22 1 22 23
M  V30 23 1 22 24
M  V30 24 2 24 25
M  V30 25 2 7 26
M  V30 26 1 26 27
M  V30 27 1 27 5
M  V30 28 1 25 8
M  V30 29 1 25 11
M  V30 30 1 20 15
M  V30 31 1 1 28
M  V30 32 1 1 29
M  V30 33 1 1 30
M  V30 34 1 2 31
M  V30 35 1 6 32
M  V30 36 1 10 33
M  V30 37 1 12 34
M  V30 38 1 14 35
M  V30 39 1 16 36
M  V30 40 1 17 37
M  V30 41 1 18 38
M  V30 42 1 19 39
M  V30 43 1 24 40
M  V30 44 1 26 41
M  V30 END BOND
M  V30 END CTAB
M  END
>  <Dataset>  (912) 
ChEMBL_Kinases

>  <Ligand_Instance>  (912) 
nan

>  <PDB_ID>  (912) 
nan

>  <Standardized_SMILES>  (912) 
CNC(=O)c1cc(-n2ncc3cc(Nc4ccccc4Cl)c(F)cc32)cs1

>  <Name>  (912) 
nan

>  <Pocket>  (912) 
nan

>  <ATP_Site>  (912) 
nan

>  <Peripheral>  (912) 
nan

>  <Num_H_Atoms_ProtBoundConf>  (912) 
nan

>  <Num_Resolved_Atoms>  (912) 
nan

>  <Num_Not_Resolved_Atoms>  (912) 
nan

$$$$
CHEMBL4872493
     RDKit          3D

  0  0  0  0  0  0  0  0  0  0999 V3000
M  V30 BEGIN CTAB
M  V30 COUNTS 45 49 0 0 0
M  V30 BEGIN ATOM
M  V30 1 O 6.331612 -0.458289 0.743869 0
M  V30 2 C 5.191470 -0.205160 0.335494 0
M  V30 3 N 4.681696 -0.546291 -0.947292 0
M  V30 4 C 5.532528 -1.246291 -1.880254 0
M  V30 5 C 4.965522 -2.497546 -2.480224 0
M  V30 6 O 4.987953 -1.921777 -3.766278 0
M  V30 7 C 5.540203 -0.725872 -3.292166 0
M  V30 8 C 4.288189 0.499206 1.232069 0
M  V30 9 C 3.025464 0.913680 1.104623 0
M  V30 10 C 2.365578 1.565055 2.090923 0
M  V30 11 N 1.030561 2.046413 2.060680 0
M  V30 12 N 0.632356 3.305524 1.979658 0
M  V30 13 C -0.711521 3.371185 1.976222 0
M  V30 14 C -1.127674 2.044951 2.062056 0
M  V30 15 C -2.404499 1.532532 2.095511 0
M  V30 16 C -2.657915 0.156667 2.184101 0
M  V30 17 N -3.932510 -0.396205 2.238546 0
M  V30 18 C -4.545130 -1.575909 1.764208 0
M  V30 19 C -3.963849 -2.562171 1.005937 0
M  V30 20 C -4.566088 -3.717421 0.559816 0
M  V30 21 C -5.886535 -3.893619 0.914411 0
M  V30 22 C -6.527951 -2.941460 1.673496 0
M  V30 23 C -5.862609 -1.810343 2.084537 0
M  V30 24 Cl -6.794008 -0.661445 3.054569 0
M  V30 25 C -1.490309 -0.576255 2.231577 0
M  V30 26 N -0.224569 -0.120812 2.201527 0
M  V30 27 C -0.027426 1.217667 2.114804 0
M  V30 28 C 3.168664 1.763959 3.292040 0
M  V30 29 S 4.834294 0.971757 2.865669 0
M  V30 30 H 3.689501 -0.289586 -1.214484 0
M  V30 31 H 6.526248 -1.437232 -1.452173 0
M  V30 32 H 5.635057 -3.394314 -2.421603 0
M  V30 33 H 3.933942 -2.782077 -2.177888 0
M  V30 34 H 6.548198 -0.488932 -3.694132 0
M  V30 35 H 4.856545 0.127442 -3.468755 0
M  V30 36 H 2.539118 0.704439 0.162215 0
M  V30 37 H -1.276548 4.289784 1.917279 0
M  V30 38 H -3.240651 2.215522 2.051912 0
M  V30 39 H -4.554303 0.273581 2.784497 0
M  V30 40 H -2.935907 -2.443146 0.704883 0
M  V30 41 H -4.032175 -4.444172 -0.034822 0
M  V30 42 H -6.394191 -4.793863 0.579967 0
M  V30 43 H -7.566806 -3.104350 1.938522 0
M  V30 44 H -1.480169 -1.651617 2.316243 0
M  V30 45 H 2.727478 2.313790 4.228358 0
M  V30 END ATOM
M  V30 BEGIN BOND
M  V30 1 2 1 2
M  V30 2 1 2 3
M  V30 3 1 3 4
M  V30 4 1 4 5
M  V30 5 1 5 6
M  V30 6 1 6 7
M  V30 7 1 2 8
M  V30 8 2 8 9
M  V30 9 1 9 10
M  V30 10 1 10 11
M  V30 11 1 11 12
M  V30 12 2 12 13
M  V30 13 1 13 14
M  V30 14 2 14 15
M  V30 15 1 15 16
M  V30 16 1 16 17
M  V30 17 1 17 18
M  V30 18 2 18 19
M  V30 19 1 19 20
M  V30 20 2 20 21
M  V30 21 1 21 22
M  V30 22 2 22 23
M  V30 23 1 23 24
M  V30 24 2 16 25
M  V30 25 1 25 26
M  V30 26 2 26 27
M  V30 27 2 10 28
M  V30 28 1 28 29
M  V30 29 1 7 4
M  V30 30 1 29 8
M  V30 31 1 27 11
M  V30 32 1 27 14
M  V30 33 1 23 18
M  V30 34 1 3 30
M  V30 35 1 4 31
M  V30 36 1 5 32
M  V30 37 1 5 33
M  V30 38 1 7 34
M  V30 39 1 7 35
M  V30 40 1 9 36
M  V30 41 1 13 37
M  V30 42 1 15 38
M  V30 43 1 17 39
M  V30 44 1 19 40
M  V30 45 1 20 41
M  V30 46 1 21 42
M  V30 47 1 22 43
M  V30 48 1 25 44
M  V30 49 1 28 45
M  V30 END BOND
M  V30 END CTAB
M  END
>  <Dataset>  (913) 
ChEMBL_Kinases

>  <Ligand_Instance>  (913) 
nan

>  <PDB_ID>  (913) 
nan

>  <Standardized_SMILES>  (913) 
O=C(NC1COC1)c1cc(-n2ncc3cc(Nc4ccccc4Cl)cnc32)cs1

>  <Name>  (913) 
nan

>  <Pocket>  (913) 
nan

>  <ATP_Site>  (913) 
nan

>  <Peripheral>  (913) 
nan

>  <Num_H_Atoms_ProtBoundConf>  (913) 
nan

>  <Num_Resolved_Atoms>  (913) 
nan

>  <Num_Not_Resolved_Atoms>  (913) 
nan

$$$$
CHEMBL215943
     RDKit          3D

  0  0  0  0  0  0  0  0  0  0999 V3000
M  V30 BEGIN CTAB
M  V30 COUNTS 67 71 0 0 0
M  V30 BEGIN ATOM
M  V30 1 C 3.107312 -3.758966 4.104622 0
M  V30 2 C 3.349256 -2.320627 3.893243 0
M  V30 3 C 4.362338 -1.696496 4.564582 0
M  V30 4 C 4.620361 -0.331759 4.394526 0
M  V30 5 C 3.812124 0.392292 3.513842 0
M  V30 6 C 4.133247 1.805699 3.376022 0
M  V30 7 O 5.090791 2.275992 4.040352 0
M  V30 8 N 3.383422 2.626898 2.513542 0
M  V30 9 C 3.501513 4.011819 2.210076 0
M  V30 10 C 4.322157 4.414779 1.150092 0
M  V30 11 C 4.460997 5.763961 0.824174 0
M  V30 12 C 3.786907 6.738156 1.545535 0
M  V30 13 C 2.959911 6.362815 2.610832 0
M  V30 14 C 2.210998 7.379695 3.424382 0
M  V30 15 F 1.873162 6.755286 4.609584 0
M  V30 16 F 3.031501 8.444100 3.777996 0
M  V30 17 F 1.091643 7.797297 2.741424 0
M  V30 18 C 2.864439 5.035344 2.880307 0
M  V30 19 C 2.817883 -0.270914 2.869839 0
M  V30 20 C 2.558676 -1.627299 3.035727 0
M  V30 21 C 1.461397 -2.190335 2.256073 0
M  V30 22 C 0.287158 -1.447738 2.352907 0
M  V30 23 C -0.869806 -1.803781 1.685386 0
M  V30 24 C -0.817014 -2.953772 0.897371 0
M  V30 25 N -1.911631 -3.380818 0.197938 0
M  V30 26 C -1.863090 -4.487798 -0.566976 0
M  V30 27 N -3.115827 -4.730048 -1.190866 0
M  V30 28 C -3.143802 -3.939425 -2.432291 0
M  V30 29 C -4.467950 -4.167686 -3.121784 0
M  V30 30 N -4.604441 -3.423043 -4.362349 0
M  V30 31 C -4.699318 -1.996451 -4.099754 0
M  V30 32 C -5.899926 -1.675619 -3.236761 0
M  V30 33 O -6.961333 -2.574566 -3.480949 0
M  V30 34 C -6.892007 -2.865885 -4.841208 0
M  V30 35 C -5.804257 -3.913374 -5.022807 0
M  V30 36 N -0.730271 -5.224398 -0.675813 0
M  V30 37 C 0.392805 -4.843115 0.002093 0
M  V30 38 C 0.340401 -3.705925 0.786926 0
M  V30 39 C 1.480354 -3.324110 1.466839 0
M  V30 40 H 2.116470 -4.091937 3.791026 0
M  V30 41 H 3.933613 -4.317816 3.619738 0
M  V30 42 H 3.206425 -3.921107 5.214702 0
M  V30 43 H 4.975979 -2.295708 5.246758 0
M  V30 44 H 5.453663 0.051557 4.982822 0
M  V30 45 H 2.578145 2.290892 1.940301 0
M  V30 46 H 4.870361 3.675692 0.556303 0
M  V30 47 H 5.095952 6.082363 0.002335 0
M  V30 48 H 3.884950 7.796816 1.305338 0
M  V30 49 H 2.221088 4.756985 3.705344 0
M  V30 50 H 2.194367 0.305534 2.188035 0
M  V30 51 H 0.191451 -0.534774 2.960315 0
M  V30 52 H -1.784820 -1.229351 1.759235 0
M  V30 53 H -3.911102 -5.349781 -0.868805 0
M  V30 54 H -3.158061 -2.875461 -2.058417 0
M  V30 55 H -2.296117 -4.143904 -3.090808 0
M  V30 56 H -4.686669 -5.245790 -3.286190 0
M  V30 57 H -5.250352 -3.823332 -2.395402 0
M  V30 58 H -4.731264 -1.438503 -5.043371 0
M  V30 59 H -3.789389 -1.686589 -3.571295 0
M  V30 60 H -5.638829 -1.699544 -2.164427 0
M  V30 61 H -6.282265 -0.662116 -3.465363 0
M  V30 62 H -7.867437 -3.224256 -5.236701 0
M  V30 63 H -6.677882 -1.921408 -5.376904 0
M  V30 64 H -6.190234 -4.834811 -4.535936 0
M  V30 65 H -5.680410 -4.035319 -6.116318 0
M  V30 66 H 1.288435 -5.429071 -0.088593 0
M  V30 67 H 2.424610 -3.849662 1.436384 0
M  V30 END ATOM
M  V30 BEGIN BOND
M  V30 1 1 1 2
M  V30 2 2 2 3
M  V30 3 1 3 4
M  V30 4 2 4 5
M  V30 5 1 5 6
M  V30 6 2 6 7
M  V30 7 1 6 8
M  V30 8 1 8 9
M  V30 9 2 9 10
M  V30 10 1 10 11
M  V30 11 2 11 12
M  V30 12 1 12 13
M  V30 13 1 13 14
M  V30 14 1 14 15
M  V30 15 1 14 16
M  V30 16 1 14 17
M  V30 17 2 13 18
M  V30 18 1 5 19
M  V30 19 2 19 20
M  V30 20 1 20 21
M  V30 21 2 21 22
M  V30 22 1 22 23
M  V30 23 2 23 24
M  V30 24 1 24 25
M  V30 25 2 25 26
M  V30 26 1 26 27
M  V30 27 1 27 28
M  V30 28 1 28 29
M  V30 29 1 29 30
M  V30 30 1 30 31
M  V30 31 1 31 32
M  V30 32 1 32 33
M  V30 33 1 33 34
M  V30 34 1 34 35
M  V30 35 1 26 36
M  V30 36 2 36 37
M  V30 37 1 37 38
M  V30 38 2 38 39
M  V30 39 1 20 2
M  V30 40 1 39 21
M  V30 41 1 18 9
M  V30 42 1 38 24
M  V30 43 1 35 30
M  V30 44 1 1 40
M  V30 45 1 1 41
M  V30 46 1 1 42
M  V30 47 1 3 43
M  V30 48 1 4 44
M  V30 49 1 8 45
M  V30 50 1 10 46
M  V30 51 1 11 47
M  V30 52 1 12 48
M  V30 53 1 18 49
M  V30 54 1 19 50
M  V30 55 1 22 51
M  V30 56 1 23 52
M  V30 57 1 27 53
M  V30 58 1 28 54
M  V30 59 1 28 55
M  V30 60 1 29 56
M  V30 61 1 29 57
M  V30 62 1 31 58
M  V30 63 1 31 59
M  V30 64 1 32 60
M  V30 65 1 32 61
M  V30 66 1 34 62
M  V30 67 1 34 63
M  V30 68 1 35 64
M  V30 69 1 35 65
M  V30 70 1 37 66
M  V30 71 1 39 67
M  V30 END BOND
M  V30 END CTAB
M  END
>  <Dataset>  (914) 
ChEMBL_Kinases

>  <Ligand_Instance>  (914) 
nan

>  <PDB_ID>  (914) 
nan

>  <Standardized_SMILES>  (914) 
Cc1ccc(C(=O)Nc2cccc(C(F)(F)F)c2)cc1-c1ccc2nc(NCCN3CCOCC3)ncc2c1

>  <Name>  (914) 
nan

>  <Pocket>  (914) 
nan

>  <ATP_Site>  (914) 
nan

>  <Peripheral>  (914) 
nan

>  <Num_H_Atoms_ProtBoundConf>  (914) 
nan

>  <Num_Resolved_Atoms>  (914) 
nan

>  <Num_Not_Resolved_Atoms>  (914) 
nan

$$$$
CHEMBL4593649
     RDKit          3D

  0  0  0  0  0  0  0  0  0  0999 V3000
M  V30 BEGIN CTAB
M  V30 COUNTS 54 58 0 0 0
M  V30 BEGIN ATOM
M  V30 1 O 3.519446 -6.167585 -2.180377 0
M  V30 2 C 2.328883 -6.590239 -2.011993 0
M  V30 3 N 1.562345 -6.058545 -0.938582 0
M  V30 4 C 1.777496 -5.098690 0.090815 0
M  V30 5 N 2.288787 -5.429053 1.297697 0
M  V30 6 N 2.380361 -4.348032 2.064716 0
M  V30 7 C 1.922367 -3.288152 1.353112 0
M  V30 8 C 1.774184 -1.933447 1.616538 0
M  V30 9 C 1.257505 -1.095253 0.645331 0
M  V30 10 C 1.110051 0.328864 0.945279 0
M  V30 11 C 2.006141 0.938682 1.797160 0
M  V30 12 C 1.855826 2.286854 2.074660 0
M  V30 13 C 0.821742 2.999156 1.501840 0
M  V30 14 C -0.105817 2.417798 0.634384 0
M  V30 15 N -1.168102 3.160557 0.049811 0
M  V30 16 S -2.763567 2.508188 0.015726 0
M  V30 17 O -2.779768 1.169055 -0.700425 0
M  V30 18 O -3.712749 3.407316 -0.706643 0
M  V30 19 C -3.347098 2.244379 1.686333 0
M  V30 20 C -3.369781 3.521567 2.427972 0
M  V30 21 C -2.357033 4.071705 3.182682 0
M  V30 22 C -2.531802 5.278188 3.817625 0
M  V30 23 C -3.694925 5.993626 3.743096 0
M  V30 24 C -4.724735 5.465956 2.994405 0
M  V30 25 F -5.867643 6.185554 2.932039 0
M  V30 26 C -4.545521 4.245378 2.352963 0
M  V30 27 C 0.088494 1.074237 0.391402 0
M  V30 28 C 0.869147 -1.550461 -0.612970 0
M  V30 29 C 1.016564 -2.913309 -0.882684 0
M  V30 30 C 1.532390 -3.736302 0.094188 0
M  V30 31 C 1.705890 -7.611944 -2.884818 0
M  V30 32 C 2.529126 -8.768207 -3.363857 0
M  V30 33 C 2.066123 -7.633232 -4.302523 0
M  V30 34 H 0.573544 -6.404956 -0.792673 0
M  V30 35 H 2.718363 -4.197916 3.040343 0
M  V30 36 H 2.061772 -1.532042 2.579915 0
M  V30 37 H 2.832334 0.422205 2.269860 0
M  V30 38 H 2.512242 2.834802 2.727976 0
M  V30 39 H 0.706990 4.060361 1.722883 0
M  V30 40 H -0.876921 4.075151 -0.323628 0
M  V30 41 H -2.620257 1.584222 2.220763 0
M  V30 42 H -4.307006 1.721617 1.698177 0
M  V30 43 H -1.447018 3.496574 3.231912 0
M  V30 44 H -1.681522 5.611965 4.375893 0
M  V30 45 H -3.764998 6.938297 4.269051 0
M  V30 46 H -5.426695 3.948014 1.803106 0
M  V30 47 H -0.573791 0.536173 -0.263537 0
M  V30 48 H 0.468148 -0.935512 -1.384845 0
M  V30 49 H 0.731300 -3.336627 -1.851271 0
M  V30 50 H 0.642339 -7.901134 -2.645041 0
M  V30 51 H 2.036692 -9.747619 -3.540509 0
M  V30 52 H 3.581987 -8.799432 -3.052749 0
M  V30 53 H 1.365402 -7.937100 -5.106435 0
M  V30 54 H 2.913726 -7.035104 -4.695392 0
M  V30 END ATOM
M  V30 BEGIN BOND
M  V30 1 2 1 2
M  V30 2 1 2 3
M  V30 3 1 3 4
M  V30 4 2 4 5
M  V30 5 1 5 6
M  V30 6 1 6 7
M  V30 7 2 7 8
M  V30 8 1 8 9
M  V30 9 1 9 10
M  V30 10 2 10 11
M  V30 11 1 11 12
M  V30 12 2 12 13
M  V30 13 1 13 14
M  V30 14 1 14 15
M  V30 15 1 15 16
M  V30 16 2 16 17
M  V30 17 2 16 18
M  V30 18 1 16 19
M  V30 19 1 19 20
M  V30 20 2 20 21
M  V30 21 1 21 22
M  V30 22 2 22 23
M  V30 23 1 23 24
M  V30 24 1 24 25
M  V30 25 2 24 26
M  V30 26 2 14 27
M  V30 27 2 9 28
M  V30 28 1 28 29
M  V30 29 2 29 30
M  V30 30 1 2 31
M  V30 31 1 31 32
M  V30 32 1 32 33
M  V30 33 1 30 4
M  V30 34 1 33 31
M  V30 35 1 30 7
M  V30 36 1 27 10
M  V30 37 1 26 20
M  V30 38 1 3 34
M  V30 39 1 6 35
M  V30 40 1 8 36
M  V30 41 1 11 37
M  V30 42 1 12 38
M  V30 43 1 13 39
M  V30 44 1 15 40
M  V30 45 1 19 41
M  V30 46 1 19 42
M  V30 47 1 21 43
M  V30 48 1 22 44
M  V30 49 1 23 45
M  V30 50 1 26 46
M  V30 51 1 27 47
M  V30 52 1 28 48
M  V30 53 1 29 49
M  V30 54 1 31 50
M  V30 55 1 32 51
M  V30 56 1 32 52
M  V30 57 1 33 53
M  V30 58 1 33 54
M  V30 END BOND
M  V30 END CTAB
M  END
>  <Dataset>  (915) 
ChEMBL_Kinases

>  <Ligand_Instance>  (915) 
nan

>  <PDB_ID>  (915) 
nan

>  <Standardized_SMILES>  (915) 
O=C(Nc1n[nH]c2cc(-c3cccc(NS(=O)(=O)Cc4cccc(F)c4)c3)ccc12)C1CC1

>  <Name>  (915) 
nan

>  <Pocket>  (915) 
nan

>  <ATP_Site>  (915) 
nan

>  <Peripheral>  (915) 
nan

>  <Num_H_Atoms_ProtBoundConf>  (915) 
nan

>  <Num_Resolved_Atoms>  (915) 
nan

>  <Num_Not_Resolved_Atoms>  (915) 
nan

$$$$
CHEMBL3655762
     RDKit          3D

  0  0  0  0  0  0  0  0  0  0999 V3000
M  V30 BEGIN CTAB
M  V30 COUNTS 60 62 0 0 0
M  V30 BEGIN ATOM
M  V30 1 C 1.606330 -0.127567 -1.129912 0
M  V30 2 C 2.836371 -0.659806 -0.420087 0
M  V30 3 C 2.710444 -2.187914 -0.391420 0 CFG=2
M  V30 4 N 1.513170 -2.560127 0.323809 0
M  V30 5 C 0.123700 -2.295961 0.357349 0
M  V30 6 N -0.274207 -1.481778 1.368788 0
M  V30 7 C -1.572733 -1.180519 1.471230 0
M  V30 8 N -1.993513 -0.354153 2.552843 0
M  V30 9 C -1.156467 0.251137 3.570337 0
M  V30 10 C -0.267018 1.307638 3.085124 0
M  V30 11 C 1.080462 1.343848 2.828038 0
M  V30 12 N 1.756494 2.418741 2.391008 0
M  V30 13 C 1.125153 3.607752 2.159754 0
M  V30 14 C 1.747532 4.857654 1.689461 0
M  V30 15 C -0.230036 3.612372 2.405555 0
M  V30 16 C -0.965902 2.507749 2.862401 0
M  V30 17 C -2.420058 2.698755 3.073846 0
M  V30 18 C -2.487551 -1.685211 0.567901 0
M  V30 19 N -3.832724 -1.495197 0.502627 0
M  V30 20 C -4.237833 -2.201943 -0.557094 0
M  V30 21 N -3.170566 -2.794483 -1.108023 0
M  V30 22 C -3.279450 -3.630894 -2.286454 0
M  V30 23 C -3.699294 -2.751362 -3.449648 0
M  V30 24 C -1.963368 -4.276791 -2.640729 0
M  V30 25 C -2.045140 -2.512298 -0.452654 0
M  V30 26 N -0.751596 -2.808083 -0.546415 0
M  V30 27 C 3.946629 -2.736324 0.318994 0 CFG=1
M  V30 28 C 3.949653 -4.238710 0.405208 0
M  V30 29 O 5.056184 -2.348328 -0.422369 0
M  V30 30 H 0.989097 0.411163 -0.369795 0
M  V30 31 H 1.014194 -0.919553 -1.631451 0
M  V30 32 H 1.931813 0.640491 -1.864127 0
M  V30 33 H 2.937365 -0.331960 0.619154 0
M  V30 34 H 3.747671 -0.348123 -0.965321 0
M  V30 35 H 2.664444 -2.582167 -1.420586 0
M  V30 36 H 1.638420 -3.276446 1.101179 0
M  V30 37 H -3.022028 -0.154758 2.632303 0
M  V30 38 H -1.748881 0.489218 4.464292 0
M  V30 39 H -0.509509 -0.617991 3.920160 0
M  V30 40 H 1.557821 0.395376 3.018946 0
M  V30 41 H 2.846592 4.842499 1.713283 0
M  V30 42 H 1.370765 5.097966 0.694365 0
M  V30 43 H 1.439754 5.696810 2.355338 0
M  V30 44 H -0.776687 4.542165 2.232656 0
M  V30 45 H -2.900651 1.983511 3.726655 0
M  V30 46 H -2.891351 2.834730 2.080189 0
M  V30 47 H -2.514820 3.694112 3.597994 0
M  V30 48 H -5.301709 -2.223949 -0.842770 0
M  V30 49 H -4.045732 -4.400905 -2.134665 0
M  V30 50 H -3.265425 -1.716533 -3.302045 0
M  V30 51 H -4.792496 -2.633822 -3.411443 0
M  V30 52 H -3.322347 -3.130188 -4.418412 0
M  V30 53 H -1.643301 -4.959226 -1.829079 0
M  V30 54 H -2.145984 -4.918917 -3.530220 0
M  V30 55 H -1.199438 -3.550058 -2.924255 0
M  V30 56 H 4.017742 -2.317215 1.351548 0
M  V30 57 H 5.004314 -4.641185 0.393003 0
M  V30 58 H 3.487924 -4.600654 1.361108 0
M  V30 59 H 3.483627 -4.719643 -0.496407 0
M  V30 60 H 4.800821 -2.207913 -1.386191 0
M  V30 END ATOM
M  V30 BEGIN BOND
M  V30 1 1 1 2
M  V30 2 1 2 3
M  V30 3 1 3 4
M  V30 4 1 4 5
M  V30 5 2 5 6
M  V30 6 1 6 7
M  V30 7 1 7 8
M  V30 8 1 8 9
M  V30 9 1 9 10
M  V30 10 2 10 11
M  V30 11 1 11 12
M  V30 12 2 12 13
M  V30 13 1 13 14
M  V30 14 1 13 15
M  V30 15 2 15 16
M  V30 16 1 16 17
M  V30 17 2 7 18
M  V30 18 1 18 19
M  V30 19 2 19 20
M  V30 20 1 20 21
M  V30 21 1 21 22
M  V30 22 1 22 23
M  V30 23 1 22 24
M  V30 24 1 21 25
M  V30 25 2 25 26
M  V30 26 1 3 27
M  V30 27 1 27 28
M  V30 28 1 27 29
M  V30 29 1 26 5
M  V30 30 1 16 10
M  V30 31 1 25 18
M  V30 32 1 1 30
M  V30 33 1 1 31
M  V30 34 1 1 32
M  V30 35 1 2 33
M  V30 36 1 2 34
M  V30 37 1 3 35 CFG=3
M  V30 38 1 4 36
M  V30 39 1 8 37
M  V30 40 1 9 38
M  V30 41 1 9 39
M  V30 42 1 11 40
M  V30 43 1 14 41
M  V30 44 1 14 42
M  V30 45 1 14 43
M  V30 46 1 15 44
M  V30 47 1 17 45
M  V30 48 1 17 46
M  V30 49 1 17 47
M  V30 50 1 20 48
M  V30 51 1 22 49
M  V30 52 1 23 50
M  V30 53 1 23 51
M  V30 54 1 23 52
M  V30 55 1 24 53
M  V30 56 1 24 54
M  V30 57 1 24 55
M  V30 58 1 27 56 CFG=1
M  V30 59 1 28 57
M  V30 60 1 28 58
M  V30 61 1 28 59
M  V30 62 1 29 60
M  V30 END BOND
M  V30 END CTAB
M  END
>  <Dataset>  (916) 
ChEMBL_Kinases

>  <Ligand_Instance>  (916) 
nan

>  <PDB_ID>  (916) 
nan

>  <Standardized_SMILES>  (916) 
CC[C@H](Nc1nc(NCc2cnc(C)cc2C)c2ncn(C(C)C)c2n1)[C@@H](C)O

>  <Name>  (916) 
nan

>  <Pocket>  (916) 
nan

>  <ATP_Site>  (916) 
nan

>  <Peripheral>  (916) 
nan

>  <Num_H_Atoms_ProtBoundConf>  (916) 
nan

>  <Num_Resolved_Atoms>  (916) 
nan

>  <Num_Not_Resolved_Atoms>  (916) 
nan

$$$$
CHEMBL4538751
     RDKit          3D

  0  0  0  0  0  0  0  0  0  0999 V3000
M  V30 BEGIN CTAB
M  V30 COUNTS 65 69 0 0 0
M  V30 BEGIN ATOM
M  V30 1 C 8.768086 0.155280 3.021782 0
M  V30 2 C 7.458039 0.857337 3.102720 0
M  V30 3 C 6.498376 0.780746 2.094744 0
M  V30 4 C 5.298256 1.445396 2.210865 0
M  V30 5 C 4.262647 1.396666 1.184617 0
M  V30 6 C 4.360301 0.696165 0.002208 0
M  V30 7 C 3.355461 0.677845 -0.943857 0
M  V30 8 C 2.222665 1.407833 -0.648352 0
M  V30 9 N 1.100042 1.553356 -1.405056 0
M  V30 10 C 0.230304 2.351859 -0.746357 0
M  V30 11 N -1.067462 2.908875 -0.922983 0
M  V30 12 C -2.289532 2.278430 -0.550584 0
M  V30 13 C -2.251418 1.044436 0.012303 0
M  V30 14 C -3.464360 0.488985 0.350292 0
M  V30 15 C -3.678633 -0.847626 0.971713 0 CFG=1
M  V30 16 C -3.773643 -0.654948 2.452169 0
M  V30 17 N -4.738535 -1.571520 0.364277 0
M  V30 18 C -4.527194 -1.683196 -1.049354 0
M  V30 19 C -4.271512 -3.089362 -1.532077 0
M  V30 20 N -3.460628 -3.861348 -0.645260 0
M  V30 21 C -2.270653 -4.607204 -0.918989 0
M  V30 22 O -1.647234 -5.259317 -0.017818 0
M  V30 23 C -1.811186 -4.568413 -2.332268 0
M  V30 24 C -0.547137 -5.423222 -2.502291 0
M  V30 25 F -0.865701 -6.732403 -2.139700 0
M  V30 26 F -0.172729 -5.332225 -3.817340 0
M  V30 27 F 0.429245 -4.991968 -1.641121 0
M  V30 28 C -3.945837 -3.865209 0.717272 0
M  V30 29 C -5.043211 -2.839239 0.918776 0
M  V30 30 C -4.654494 1.187906 0.111931 0
M  V30 31 C -4.630372 2.445577 -0.465990 0
M  V30 32 N -3.418868 2.967948 -0.788591 0
M  V30 33 N 0.823149 2.702574 0.429735 0
M  V30 34 C 2.041845 2.137837 0.512622 0
M  V30 35 C 3.096801 2.099978 1.402411 0
M  V30 36 N 5.129604 2.161141 3.354081 0
M  V30 37 C 6.062859 2.219517 4.305158 0
M  V30 38 N 7.230403 1.586697 4.216732 0
M  V30 39 H 8.776902 -0.674768 3.787128 0
M  V30 40 H 9.618029 0.805350 3.323507 0
M  V30 41 H 8.919469 -0.328107 2.036940 0
M  V30 42 H 6.714813 0.190316 1.221660 0
M  V30 43 H 5.251500 0.142448 -0.192394 0
M  V30 44 H 3.430366 0.131843 -1.867887 0
M  V30 45 H -1.010738 3.853990 -1.367706 0
M  V30 46 H -1.371185 0.462223 0.218807 0
M  V30 47 H -2.725558 -1.408337 0.787668 0
M  V30 48 H -3.720158 -1.593457 3.040242 0
M  V30 49 H -4.600420 0.014133 2.773105 0
M  V30 50 H -2.839964 -0.086708 2.738447 0
M  V30 51 H -3.711745 -0.985241 -1.346375 0
M  V30 52 H -5.468049 -1.271000 -1.524326 0
M  V30 53 H -3.898020 -3.111892 -2.573674 0
M  V30 54 H -5.280915 -3.592383 -1.586438 0
M  V30 55 H -1.476945 -3.539303 -2.582848 0
M  V30 56 H -2.584169 -4.864381 -3.056709 0
M  V30 57 H -4.296789 -4.892862 0.940693 0
M  V30 58 H -3.135077 -3.640655 1.443533 0
M  V30 59 H -5.389602 -2.835753 1.969827 0
M  V30 60 H -5.910354 -3.239558 0.315291 0
M  V30 61 H -5.635845 0.804079 0.355224 0
M  V30 62 H -5.510562 3.037391 -0.676432 0
M  V30 63 H 0.546424 3.300823 1.264811 0
M  V30 64 H 2.990976 2.658841 2.321774 0
M  V30 65 H 5.798806 2.829979 5.172504 0
M  V30 END ATOM
M  V30 BEGIN BOND
M  V30 1 1 1 2
M  V30 2 2 2 3
M  V30 3 1 3 4
M  V30 4 1 4 5
M  V30 5 2 5 6
M  V30 6 1 6 7
M  V30 7 2 7 8
M  V30 8 1 8 9
M  V30 9 2 9 10
M  V30 10 1 10 11
M  V30 11 1 11 12
M  V30 12 2 12 13
M  V30 13 1 13 14
M  V30 14 1 14 15
M  V30 15 1 15 16
M  V30 16 1 15 17
M  V30 17 1 17 18
M  V30 18 1 18 19
M  V30 19 1 19 20
M  V30 20 1 20 21
M  V30 21 2 21 22
M  V30 22 1 21 23
M  V30 23 1 23 24
M  V30 24 1 24 25
M  V30 25 1 24 26
M  V30 26 1 24 27
M  V30 27 1 20 28
M  V30 28 1 28 29
M  V30 29 2 14 30
M  V30 30 1 30 31
M  V30 31 2 31 32
M  V30 32 1 10 33
M  V30 33 1 33 34
M  V30 34 2 34 35
M  V30 35 2 4 36
M  V30 36 1 36 37
M  V30 37 2 37 38
M  V30 38 1 38 2
M  V30 39 1 35 5
M  V30 40 1 34 8
M  V30 41 1 32 12
M  V30 42 1 29 17
M  V30 43 1 1 39
M  V30 44 1 1 40
M  V30 45 1 1 41
M  V30 46 1 3 42
M  V30 47 1 6 43
M  V30 48 1 7 44
M  V30 49 1 11 45
M  V30 50 1 13 46
M  V30 51 1 15 47 CFG=1
M  V30 52 1 16 48
M  V30 53 1 16 49
M  V30 54 1 16 50
M  V30 55 1 18 51
M  V30 56 1 18 52
M  V30 57 1 19 53
M  V30 58 1 19 54
M  V30 59 1 23 55
M  V30 60 1 23 56
M  V30 61 1 28 57
M  V30 62 1 28 58
M  V30 63 1 29 59
M  V30 64 1 29 60
M  V30 65 1 30 61
M  V30 66 1 31 62
M  V30 67 1 33 63
M  V30 68 1 35 64
M  V30 69 1 37 65
M  V30 END BOND
M  V30 END CTAB
M  END
>  <Dataset>  (917) 
ChEMBL_Kinases

>  <Ligand_Instance>  (917) 
nan

>  <PDB_ID>  (917) 
nan

>  <Standardized_SMILES>  (917) 
Cc1cc(-c2ccc3nc(Nc4cc([C@@H](C)N5CCN(C(=O)CC(F)(F)F)CC5)ccn4)[nH]c3c2)ncn1

>  <Name>  (917) 
nan

>  <Pocket>  (917) 
nan

>  <ATP_Site>  (917) 
nan

>  <Peripheral>  (917) 
nan

>  <Num_H_Atoms_ProtBoundConf>  (917) 
nan

>  <Num_Resolved_Atoms>  (917) 
nan

>  <Num_Not_Resolved_Atoms>  (917) 
nan

$$$$
CHEMBL230048
     RDKit          3D

  0  0  0  0  0  0  0  0  0  0999 V3000
M  V30 BEGIN CTAB
M  V30 COUNTS 65 65 0 0 0
M  V30 BEGIN ATOM
M  V30 1 C 0.570766 -3.669257 3.017426 0
M  V30 2 C 0.639314 -3.711119 1.513594 0
M  V30 3 C 0.394064 -5.101562 1.019071 0
M  V30 4 C 2.046875 -3.271768 1.091700 0
M  V30 5 C 2.353365 -1.914826 1.545610 0
M  V30 6 C 2.642077 -0.822093 0.878269 0
M  V30 7 C 2.958552 0.572761 1.328580 0
M  V30 8 C 3.244748 1.293516 0.043185 0
M  V30 9 C 4.618308 1.927319 0.165746 0
M  V30 10 O 5.576019 0.977627 0.510360 0
M  V30 11 C 2.205565 2.324602 -0.330034 0
M  V30 12 O 1.000571 1.652879 -0.513667 0
M  V30 13 C -0.187366 2.229560 -0.880785 0
M  V30 14 O 0.045308 3.476606 -1.010298 0
M  V30 15 C -1.568388 1.856943 -1.155191 0
M  V30 16 C -1.828399 0.407553 -0.870673 0
M  V30 17 C -3.263487 0.084728 -1.198634 0
M  V30 18 C -3.644342 -1.358343 -0.966732 0
M  V30 19 C -5.126169 -1.579405 -1.322244 0
M  V30 20 C -2.778315 -2.321233 -1.755276 0
M  V30 21 C -1.329124 -0.072470 0.432266 0
M  V30 22 C -1.757361 0.482273 1.702981 0
M  V30 23 C -3.177704 0.446545 2.117001 0
M  V30 24 C -1.174391 1.862766 2.045294 0
M  V30 25 O 3.374011 0.306256 -0.973020 0
M  V30 26 C 2.687716 -0.843786 -0.580024 0
M  V30 27 O 2.211242 -1.713395 -1.351960 0
M  V30 28 H 1.339545 -4.366153 3.425979 0
M  V30 29 H 0.677215 -2.658746 3.430028 0
M  V30 30 H -0.420220 -4.097775 3.324008 0
M  V30 31 H -0.120000 -3.000646 1.125547 0
M  V30 32 H 1.192980 -5.408693 0.307891 0
M  V30 33 H -0.595143 -5.125788 0.504276 0
M  V30 34 H 0.379982 -5.807723 1.889199 0
M  V30 35 H 2.746002 -3.949292 1.680673 0
M  V30 36 H 2.270951 -3.506229 0.048670 0
M  V30 37 H 2.338826 -1.792108 2.639165 0
M  V30 38 H 2.129971 1.015965 1.884406 0
M  V30 39 H 3.857221 0.493628 1.978005 0
M  V30 40 H 4.937747 2.444130 -0.755132 0
M  V30 41 H 4.639855 2.717555 0.971694 0
M  V30 42 H 5.617731 0.301673 -0.215911 0
M  V30 43 H 2.126698 3.015013 0.543634 0
M  V30 44 H 2.551456 2.879256 -1.209211 0
M  V30 45 H -1.699998 1.969447 -2.273902 0
M  V30 46 H -2.325118 2.535687 -0.735974 0
M  V30 47 H -1.232420 -0.134148 -1.639590 0
M  V30 48 H -3.366844 0.226614 -2.321044 0
M  V30 49 H -4.017013 0.712983 -0.745879 0
M  V30 50 H -3.521813 -1.579149 0.102028 0
M  V30 51 H -5.539483 -2.349452 -0.658692 0
M  V30 52 H -5.232823 -1.818623 -2.386010 0
M  V30 53 H -5.660136 -0.634539 -1.046418 0
M  V30 54 H -2.132067 -2.922749 -1.093301 0
M  V30 55 H -2.125502 -1.764424 -2.450444 0
M  V30 56 H -3.467395 -3.013376 -2.320261 0
M  V30 57 H -1.553795 -1.186951 0.436972 0
M  V30 58 H -0.219259 -0.054877 0.414440 0
M  V30 59 H -1.237235 -0.153035 2.492525 0
M  V30 60 H -3.506888 -0.609896 2.277561 0
M  V30 61 H -3.186619 0.847333 3.182494 0
M  V30 62 H -3.881045 1.085383 1.593856 0
M  V30 63 H -1.688592 2.687251 1.559786 0
M  V30 64 H -0.081699 1.884070 1.995720 0
M  V30 65 H -1.409588 1.987904 3.145457 0
M  V30 END ATOM
M  V30 BEGIN BOND
M  V30 1 1 1 2
M  V30 2 1 2 3
M  V30 3 1 2 4
M  V30 4 1 4 5
M  V30 5 2 5 6
M  V30 6 1 6 7
M  V30 7 1 7 8
M  V30 8 1 8 9
M  V30 9 1 9 10
M  V30 10 1 8 11
M  V30 11 1 11 12
M  V30 12 1 12 13
M  V30 13 2 13 14
M  V30 14 1 13 15
M  V30 15 1 15 16
M  V30 16 1 16 17
M  V30 17 1 17 18
M  V30 18 1 18 19
M  V30 19 1 18 20
M  V30 20 1 16 21
M  V30 21 1 21 22
M  V30 22 1 22 23
M  V30 23 1 22 24
M  V30 24 1 8 25
M  V30 25 1 25 26
M  V30 26 2 26 27
M  V30 27 1 26 6
M  V30 28 1 1 28
M  V30 29 1 1 29
M  V30 30 1 1 30
M  V30 31 1 2 31
M  V30 32 1 3 32
M  V30 33 1 3 33
M  V30 34 1 3 34
M  V30 35 1 4 35
M  V30 36 1 4 36
M  V30 37 1 5 37
M  V30 38 1 7 38
M  V30 39 1 7 39
M  V30 40 1 9 40
M  V30 41 1 9 41
M  V30 42 1 10 42
M  V30 43 1 11 43
M  V30 44 1 11 44
M  V30 45 1 15 45
M  V30 46 1 15 46
M  V30 47 1 16 47
M  V30 48 1 17 48
M  V30 49 1 17 49
M  V30 50 1 18 50
M  V30 51 1 19 51
M  V30 52 1 19 52
M  V30 53 1 19 53
M  V30 54 1 20 54
M  V30 55 1 20 55
M  V30 56 1 20 56
M  V30 57 1 21 57
M  V30 58 1 21 58
M  V30 59 1 22 59
M  V30 60 1 23 60
M  V30 61 1 23 61
M  V30 62 1 23 62
M  V30 63 1 24 63
M  V30 64 1 24 64
M  V30 65 1 24 65
M  V30 END BOND
M  V30 END CTAB
M  END
>  <Dataset>  (918) 
ChEMBL_Kinases

>  <Ligand_Instance>  (918) 
nan

>  <PDB_ID>  (918) 
nan

>  <Standardized_SMILES>  (918) 
CC(C)C/C=C1/CC(CO)(COC(=O)CC(CC(C)C)CC(C)C)OC1=O

>  <Name>  (918) 
nan

>  <Pocket>  (918) 
nan

>  <ATP_Site>  (918) 
nan

>  <Peripheral>  (918) 
nan

>  <Num_H_Atoms_ProtBoundConf>  (918) 
nan

>  <Num_Resolved_Atoms>  (918) 
nan

>  <Num_Not_Resolved_Atoms>  (918) 
nan

$$$$
CHEMBL3337845
     RDKit          3D

  0  0  0  0  0  0  0  0  0  0999 V3000
M  V30 BEGIN CTAB
M  V30 COUNTS 46 50 0 0 0
M  V30 BEGIN ATOM
M  V30 1 O 3.367322 -1.677383 1.915918 0
M  V30 2 C 2.324300 -1.458106 1.250783 0
M  V30 3 N 1.958698 -0.086751 1.239628 0
M  V30 4 C 2.689350 0.935587 1.907427 0
M  V30 5 N 2.441628 1.309916 3.189986 0
M  V30 6 C 3.278058 2.293121 3.562946 0
M  V30 7 C 3.443668 3.010628 4.731162 0
M  V30 8 C 4.422300 3.996680 4.823644 0
M  V30 9 C 5.225936 4.235166 3.703904 0
M  V30 10 C 5.059169 3.513417 2.529132 0
M  V30 11 C 4.084262 2.536920 2.449139 0
M  V30 12 N 3.708437 1.697630 1.449505 0
M  V30 13 O 6.140197 5.256534 4.000016 0
M  V30 14 C 5.620138 5.880627 5.158965 0
M  V30 15 F 6.673896 6.284356 5.942309 0
M  V30 16 F 4.827444 6.957329 4.827321 0
M  V30 17 O 4.848563 4.882312 5.818683 0
M  V30 18 C 1.602989 -2.537642 0.579662 0
M  V30 19 C 2.057142 -3.853044 0.659078 0
M  V30 20 S 0.706551 -4.674200 -0.390925 0
M  V30 21 C -0.123688 -3.188424 -0.694104 0
M  V30 22 N -1.348864 -2.987639 -1.483894 0
M  V30 23 C -2.492006 -3.100493 -0.697387 0
M  V30 24 O -2.123631 -3.343175 0.504371 0
M  V30 25 C -3.903367 -3.002842 -0.973525 0
M  V30 26 C -4.786074 -3.071432 0.085264 0
M  V30 27 C -6.143775 -2.926262 -0.083269 0
M  V30 28 C -6.703540 -2.703480 -1.321360 0
M  V30 29 C -5.844194 -2.631704 -2.397175 0
M  V30 30 C -4.489713 -2.783079 -2.189506 0
M  V30 31 O -3.731863 -2.704077 -3.328536 0
M  V30 32 C -3.570650 -3.926770 -4.072473 0
M  V30 33 F -2.978925 -4.872474 -3.272979 0
M  V30 34 F -4.810982 -4.408692 -4.441168 0
M  V30 35 F -2.867262 -3.687596 -5.236675 0
M  V30 36 N 0.496269 -2.251502 -0.115841 0
M  V30 37 H 1.083428 0.165728 0.693157 0
M  V30 38 H 2.822275 2.826554 5.597639 0
M  V30 39 H 5.689009 3.700657 1.652226 0
M  V30 40 H 4.116959 1.625171 0.474862 0
M  V30 41 H 2.925570 -4.213435 1.181472 0
M  V30 42 H -1.531665 -2.773584 -2.486263 0
M  V30 43 H -4.427448 -3.246690 1.111314 0
M  V30 44 H -6.788246 -2.988504 0.777687 0
M  V30 45 H -7.777779 -2.598922 -1.374191 0
M  V30 46 H -6.281589 -2.456904 -3.370029 0
M  V30 END ATOM
M  V30 BEGIN BOND
M  V30 1 2 1 2
M  V30 2 1 2 3
M  V30 3 1 3 4
M  V30 4 2 4 5
M  V30 5 1 5 6
M  V30 6 2 6 7
M  V30 7 1 7 8
M  V30 8 2 8 9
M  V30 9 1 9 10
M  V30 10 2 10 11
M  V30 11 1 11 12
M  V30 12 1 9 13
M  V30 13 1 13 14
M  V30 14 1 14 15
M  V30 15 1 14 16
M  V30 16 1 14 17
M  V30 17 1 2 18
M  V30 18 2 18 19
M  V30 19 1 19 20
M  V30 20 1 20 21
M  V30 21 1 21 22
M  V30 22 1 22 23
M  V30 23 2 23 24
M  V30 24 1 23 25
M  V30 25 2 25 26
M  V30 26 1 26 27
M  V30 27 2 27 28
M  V30 28 1 28 29
M  V30 29 2 29 30
M  V30 30 1 30 31
M  V30 31 1 31 32
M  V30 32 1 32 33
M  V30 33 1 32 34
M  V30 34 1 32 35
M  V30 35 2 21 36
M  V30 36 1 12 4
M  V30 37 1 36 18
M  V30 38 1 11 6
M  V30 39 1 30 25
M  V30 40 1 17 8
M  V30 41 1 3 37
M  V30 42 1 7 38
M  V30 43 1 10 39
M  V30 44 1 12 40
M  V30 45 1 19 41
M  V30 46 1 22 42
M  V30 47 1 26 43
M  V30 48 1 27 44
M  V30 49 1 28 45
M  V30 50 1 29 46
M  V30 END BOND
M  V30 END CTAB
M  END
>  <Dataset>  (919) 
ChEMBL_Kinases

>  <Ligand_Instance>  (919) 
nan

>  <PDB_ID>  (919) 
nan

>  <Standardized_SMILES>  (919) 
O=C(Nc1nc2cc3c(cc2[nH]1)OC(F)(F)O3)c1csc(NC(=O)c2ccccc2OC(F)(F)F)n1

>  <Name>  (919) 
nan

>  <Pocket>  (919) 
nan

>  <ATP_Site>  (919) 
nan

>  <Peripheral>  (919) 
nan

>  <Num_H_Atoms_ProtBoundConf>  (919) 
nan

>  <Num_Resolved_Atoms>  (919) 
nan

>  <Num_Not_Resolved_Atoms>  (919) 
nan

$$$$
CHEMBL230911
     RDKit          3D

  0  0  0  0  0  0  0  0  0  0999 V3000
M  V30 BEGIN CTAB
M  V30 COUNTS 37 39 0 0 0
M  V30 BEGIN ATOM
M  V30 1 N 2.260020 -3.264946 3.658264 0
M  V30 2 C 1.385756 -2.126885 3.662154 0
M  V30 3 O 0.981496 -1.634999 4.746134 0
M  V30 4 C 0.975188 -1.551754 2.386235 0
M  V30 5 C 1.415296 -2.090777 1.195234 0
M  V30 6 C 1.049949 -1.579129 -0.026308 0
M  V30 7 C 1.494397 -2.118599 -1.307162 0
M  V30 8 C 0.683311 -2.042051 -2.425894 0
M  V30 9 C 1.194681 -2.583704 -3.604733 0
M  V30 10 N 2.407847 -3.159075 -3.691105 0
M  V30 11 C 3.220240 -3.253437 -2.637940 0
M  V30 12 C 2.734545 -2.719918 -1.445110 0
M  V30 13 C 0.207257 -0.482349 0.019101 0
M  V30 14 C -0.266806 0.101354 1.196293 0
M  V30 15 C -1.146206 1.254097 1.023071 0
M  V30 16 C -1.074272 2.439762 1.723203 0
M  V30 17 C -1.923488 3.494129 1.521506 0
M  V30 18 C -2.899853 3.317806 0.545299 0
M  V30 19 C -3.007696 2.149485 -0.177838 0
M  V30 20 C -2.138192 1.103078 0.046593 0
M  V30 21 C 0.134523 -0.456368 2.392146 0
M  V30 22 N -0.365551 0.160851 3.572451 0
M  V30 23 H 2.138714 -4.190467 3.205877 0
M  V30 24 H 3.163477 -3.190866 4.176933 0
M  V30 25 H 2.083892 -2.962535 1.221724 0
M  V30 26 H -0.287220 -1.594653 -2.405462 0
M  V30 27 H 0.641871 -2.575295 -4.534323 0
M  V30 28 H 4.206794 -3.699332 -2.626473 0
M  V30 29 H 3.384263 -2.783891 -0.558849 0
M  V30 30 H -0.085316 -0.072810 -0.955187 0
M  V30 31 H -0.284535 2.499857 2.468753 0
M  V30 32 H -1.841178 4.402189 2.082832 0
M  V30 33 H -3.559663 4.169077 0.405785 0
M  V30 34 H -3.799419 2.075460 -0.931763 0
M  V30 35 H -2.259396 0.195131 -0.550276 0
M  V30 36 H 0.170392 0.527618 4.403447 0
M  V30 37 H -1.397469 0.287521 3.668357 0
M  V30 END ATOM
M  V30 BEGIN BOND
M  V30 1 1 1 2
M  V30 2 2 2 3
M  V30 3 1 2 4
M  V30 4 2 4 5
M  V30 5 1 5 6
M  V30 6 1 6 7
M  V30 7 2 7 8
M  V30 8 1 8 9
M  V30 9 2 9 10
M  V30 10 1 10 11
M  V30 11 2 11 12
M  V30 12 2 6 13
M  V30 13 1 13 14
M  V30 14 1 14 15
M  V30 15 2 15 16
M  V30 16 1 16 17
M  V30 17 2 17 18
M  V30 18 1 18 19
M  V30 19 2 19 20
M  V30 20 2 14 21
M  V30 21 1 21 22
M  V30 22 1 21 4
M  V30 23 1 12 7
M  V30 24 1 20 15
M  V30 25 1 1 23
M  V30 26 1 1 24
M  V30 27 1 5 25
M  V30 28 1 8 26
M  V30 29 1 9 27
M  V30 30 1 11 28
M  V30 31 1 12 29
M  V30 32 1 13 30
M  V30 33 1 16 31
M  V30 34 1 17 32
M  V30 35 1 18 33
M  V30 36 1 19 34
M  V30 37 1 20 35
M  V30 38 1 22 36
M  V30 39 1 22 37
M  V30 END BOND
M  V30 END CTAB
M  END
>  <Dataset>  (920) 
ChEMBL_Kinases

>  <Ligand_Instance>  (920) 
nan

>  <PDB_ID>  (920) 
nan

>  <Standardized_SMILES>  (920) 
NC(=O)c1cc(-c2ccncc2)cc(-c2ccccc2)c1N

>  <Name>  (920) 
GSK-625137A

>  <Pocket>  (920) 
nan

>  <ATP_Site>  (920) 
nan

>  <Peripheral>  (920) 
nan

>  <Num_H_Atoms_ProtBoundConf>  (920) 
nan

>  <Num_Resolved_Atoms>  (920) 
nan

>  <Num_Not_Resolved_Atoms>  (920) 
nan

$$$$
CHEMBL4067477
     RDKit          3D

  0  0  0  0  0  0  0  0  0  0999 V3000
M  V30 BEGIN CTAB
M  V30 COUNTS 41 43 0 0 0
M  V30 BEGIN ATOM
M  V30 1 C -1.638056 -4.171267 0.428169 0
M  V30 2 C -0.171745 -4.495266 0.261893 0
M  V30 3 C 0.599417 -3.190686 0.312979 0 CFG=1
M  V30 4 C 2.049229 -3.527661 0.138547 0
M  V30 5 O 2.311366 -4.134432 -1.077493 0
M  V30 6 N 0.162927 -2.262197 -0.704624 0
M  V30 7 C 0.708332 -0.943964 -0.936015 0
M  V30 8 C 1.502407 -0.623362 -2.032715 0
M  V30 9 C 1.940919 0.692830 -2.073485 0
M  V30 10 C 1.574655 1.552865 -1.064578 0
M  V30 11 N 1.879296 2.869133 -0.891037 0
M  V30 12 C 1.312312 3.316799 0.233946 0
M  V30 13 C 0.622526 2.267592 0.806296 0
M  V30 14 C -0.139920 2.308917 2.044608 0
M  V30 15 C -1.071702 3.253372 2.432013 0
M  V30 16 C -1.710248 3.173909 3.651576 0
M  V30 17 Cl -2.858696 4.461736 3.954664 0
M  V30 18 C -1.440121 2.142302 4.535289 0
M  V30 19 C -0.514459 1.205026 4.150859 0
M  V30 20 C 0.136938 1.262604 2.936352 0
M  V30 21 N 1.089819 0.258318 2.605743 0
M  V30 22 N 0.808664 1.221182 -0.015028 0
M  V30 23 N 0.389491 -0.050034 0.013829 0
M  V30 24 H -1.889292 -3.232773 -0.121762 0
M  V30 25 H -1.884638 -4.065582 1.509946 0
M  V30 26 H -2.226892 -4.976007 -0.039559 0
M  V30 27 H 0.064202 -5.043795 -0.668950 0
M  V30 28 H 0.110651 -5.143482 1.118720 0
M  V30 29 H 0.444540 -2.680173 1.297186 0
M  V30 30 H 2.382978 -4.223123 0.924701 0
M  V30 31 H 2.656442 -2.599838 0.175035 0
M  V30 32 H 1.710149 -3.844174 -1.797968 0
M  V30 33 H -0.589533 -2.380546 -1.428760 0
M  V30 34 H 1.727386 -1.379689 -2.762978 0
M  V30 35 H 2.564750 1.002480 -2.911500 0
M  V30 36 H 1.394779 4.325035 0.610759 0
M  V30 37 H -1.250814 4.054440 1.694859 0
M  V30 38 H -1.993211 2.166484 5.471113 0
M  V30 39 H -0.338616 0.408162 4.892163 0
M  V30 40 H 1.980922 0.713029 2.286198 0
M  V30 41 H 1.145679 -0.784215 2.594091 0
M  V30 END ATOM
M  V30 BEGIN BOND
M  V30 1 1 1 2
M  V30 2 1 2 3
M  V30 3 1 3 4
M  V30 4 1 4 5
M  V30 5 1 3 6
M  V30 6 1 6 7
M  V30 7 1 7 8
M  V30 8 2 8 9
M  V30 9 1 9 10
M  V30 10 2 10 11
M  V30 11 1 11 12
M  V30 12 2 12 13
M  V30 13 1 13 14
M  V30 14 2 14 15
M  V30 15 1 15 16
M  V30 16 1 16 17
M  V30 17 2 16 18
M  V30 18 1 18 19
M  V30 19 2 19 20
M  V30 20 1 20 21
M  V30 21 1 13 22
M  V30 22 1 22 23
M  V30 23 2 23 7
M  V30 24 1 22 10
M  V30 25 1 20 14
M  V30 26 1 1 24
M  V30 27 1 1 25
M  V30 28 1 1 26
M  V30 29 1 2 27
M  V30 30 1 2 28
M  V30 31 1 3 29 CFG=1
M  V30 32 1 4 30
M  V30 33 1 4 31
M  V30 34 1 5 32
M  V30 35 1 6 33
M  V30 36 1 8 34
M  V30 37 1 9 35
M  V30 38 1 12 36
M  V30 39 1 15 37
M  V30 40 1 18 38
M  V30 41 1 19 39
M  V30 42 1 21 40
M  V30 43 1 21 41
M  V30 END BOND
M  V30 END CTAB
M  END
>  <Dataset>  (921) 
ChEMBL_Kinases

>  <Ligand_Instance>  (921) 
nan

>  <PDB_ID>  (921) 
nan

>  <Standardized_SMILES>  (921) 
CC[C@@H](CO)Nc1ccc2ncc(-c3cc(Cl)ccc3N)n2n1

>  <Name>  (921) 
nan

>  <Pocket>  (921) 
nan

>  <ATP_Site>  (921) 
nan

>  <Peripheral>  (921) 
nan

>  <Num_H_Atoms_ProtBoundConf>  (921) 
nan

>  <Num_Resolved_Atoms>  (921) 
nan

>  <Num_Not_Resolved_Atoms>  (921) 
nan

$$$$
CHEMBL4535040
     RDKit          3D

  0  0  0  0  0  0  0  0  0  0999 V3000
M  V30 BEGIN CTAB
M  V30 COUNTS 51 55 0 0 0
M  V30 BEGIN ATOM
M  V30 1 O -2.725299 -5.107395 2.418541 0
M  V30 2 C -2.417102 -5.542680 1.282936 0
M  V30 3 N -1.585516 -5.582737 0.155254 0
M  V30 4 C -0.493898 -4.681090 0.304245 0
M  V30 5 N 0.755220 -4.826635 0.828466 0
M  V30 6 N 1.405104 -3.682393 0.735107 0
M  V30 7 C 0.631263 -2.746024 0.156483 0
M  V30 8 C 0.899031 -1.423533 -0.137214 0
M  V30 9 C -0.084803 -0.657200 -0.745524 0
M  V30 10 C 0.007889 0.747979 -1.130075 0
M  V30 11 C -0.692312 1.206082 -2.226201 0
M  V30 12 C -0.631197 2.526567 -2.620352 0
M  V30 13 C 0.162998 3.359736 -1.863943 0
M  V30 14 C 0.906397 2.979214 -0.738221 0
M  V30 15 N 1.684120 3.931625 -0.028661 0
M  V30 16 S 1.833190 4.279258 1.638597 0
M  V30 17 O 2.668895 5.512529 1.786563 0
M  V30 18 O 0.455034 4.632150 2.184348 0
M  V30 19 C 2.440578 2.960156 2.617244 0
M  V30 20 C 2.719903 3.484787 4.033164 0
M  V30 21 C 4.138244 3.755005 3.581492 0
M  V30 22 C 3.932856 2.720368 2.493973 0
M  V30 23 C 0.781249 1.643654 -0.424060 0
M  V30 24 C -1.283545 -1.290815 -1.016462 0
M  V30 25 C -1.570201 -2.611631 -0.730509 0
M  V30 26 C -0.576152 -3.351670 -0.126228 0
M  V30 27 C -3.647647 -6.297568 1.562107 0
M  V30 28 C -3.997406 -7.566744 0.911616 0
M  V30 29 C -4.656419 -6.339517 0.371903 0
M  V30 30 H -1.891710 -6.246592 -0.587949 0
M  V30 31 H 2.383473 -3.532989 1.066759 0
M  V30 32 H 1.823507 -0.908281 0.064024 0
M  V30 33 H -1.328211 0.561875 -2.839657 0
M  V30 34 H -1.142479 2.979825 -3.463715 0
M  V30 35 H 0.244998 4.421504 -2.136648 0
M  V30 36 H 2.243532 4.479702 -0.743387 0
M  V30 37 H 1.816426 2.068787 2.595842 0
M  V30 38 H 2.643775 2.703839 4.808827 0
M  V30 39 H 2.138236 4.401115 4.291868 0
M  V30 40 H 4.828824 3.449923 4.395577 0
M  V30 41 H 4.357345 4.781250 3.241767 0
M  V30 42 H 4.374374 2.985694 1.513730 0
M  V30 43 H 4.156551 1.696729 2.872021 0
M  V30 44 H 1.315507 1.268128 0.417496 0
M  V30 45 H -2.115424 -0.757285 -1.496406 0
M  V30 46 H -2.516353 -3.064154 -0.958790 0
M  V30 47 H -4.093088 -6.049305 2.553464 0
M  V30 48 H -4.663764 -8.250886 1.502451 0
M  V30 49 H -3.324840 -8.111802 0.249674 0
M  V30 50 H -5.717301 -6.155421 0.671276 0
M  V30 51 H -4.346149 -5.879841 -0.568153 0
M  V30 END ATOM
M  V30 BEGIN BOND
M  V30 1 2 1 2
M  V30 2 1 2 3
M  V30 3 1 3 4
M  V30 4 2 4 5
M  V30 5 1 5 6
M  V30 6 1 6 7
M  V30 7 2 7 8
M  V30 8 1 8 9
M  V30 9 1 9 10
M  V30 10 2 10 11
M  V30 11 1 11 12
M  V30 12 2 12 13
M  V30 13 1 13 14
M  V30 14 1 14 15
M  V30 15 1 15 16
M  V30 16 2 16 17
M  V30 17 2 16 18
M  V30 18 1 16 19
M  V30 19 1 19 20
M  V30 20 1 20 21
M  V30 21 1 21 22
M  V30 22 2 14 23
M  V30 23 2 9 24
M  V30 24 1 24 25
M  V30 25 2 25 26
M  V30 26 1 2 27
M  V30 27 1 27 28
M  V30 28 1 28 29
M  V30 29 1 26 4
M  V30 30 1 29 27
M  V30 31 1 26 7
M  V30 32 1 23 10
M  V30 33 1 22 19
M  V30 34 1 3 30
M  V30 35 1 6 31
M  V30 36 1 8 32
M  V30 37 1 11 33
M  V30 38 1 12 34
M  V30 39 1 13 35
M  V30 40 1 15 36
M  V30 41 1 19 37
M  V30 42 1 20 38
M  V30 43 1 20 39
M  V30 44 1 21 40
M  V30 45 1 21 41
M  V30 46 1 22 42
M  V30 47 1 22 43
M  V30 48 1 23 44
M  V30 49 1 24 45
M  V30 50 1 25 46
M  V30 51 1 27 47
M  V30 52 1 28 48
M  V30 53 1 28 49
M  V30 54 1 29 50
M  V30 55 1 29 51
M  V30 END BOND
M  V30 END CTAB
M  END
>  <Dataset>  (922) 
ChEMBL_Kinases

>  <Ligand_Instance>  (922) 
nan

>  <PDB_ID>  (922) 
nan

>  <Standardized_SMILES>  (922) 
O=C(Nc1n[nH]c2cc(-c3cccc(NS(=O)(=O)C4CCC4)c3)ccc12)C1CC1

>  <Name>  (922) 
nan

>  <Pocket>  (922) 
nan

>  <ATP_Site>  (922) 
nan

>  <Peripheral>  (922) 
nan

>  <Num_H_Atoms_ProtBoundConf>  (922) 
nan

>  <Num_Resolved_Atoms>  (922) 
nan

>  <Num_Not_Resolved_Atoms>  (922) 
nan

$$$$
CHEMBL4571548
     RDKit          3D

  0  0  0  0  0  0  0  0  0  0999 V3000
M  V30 BEGIN CTAB
M  V30 COUNTS 53 56 0 0 0
M  V30 BEGIN ATOM
M  V30 1 C 1.734066 -2.205641 5.028880 0
M  V30 2 C 2.580504 -1.348082 4.074797 0
M  V30 3 C 3.557584 -2.312796 3.417544 0
M  V30 4 C 3.257139 -0.282604 4.846986 0
M  V30 5 S 4.281619 0.822245 3.974620 0
M  V30 6 O 4.941731 1.720133 5.023961 0
M  V30 7 O 5.453209 0.018353 3.420919 0
M  V30 8 N 3.577915 1.793730 2.787832 0
M  V30 9 C 2.875394 1.838457 1.561978 0
M  V30 10 C 3.469376 2.518435 0.485932 0
M  V30 11 C 2.976444 2.630436 -0.794056 0
M  V30 12 C 1.774236 1.984351 -0.960612 0
M  V30 13 C 1.085435 1.286278 0.000888 0
M  V30 14 C -0.183440 0.626759 -0.232975 0
M  V30 15 C -1.114165 1.115575 -1.135874 0
M  V30 16 C -2.331707 0.465888 -1.349925 0
M  V30 17 C -2.526366 -0.679219 -0.603167 0
M  V30 18 C -3.607624 -1.521462 -0.596282 0
M  V30 19 N -4.845557 -1.514413 -1.310514 0
M  V30 20 C -4.651323 -2.228577 -2.521697 0
M  V30 21 O -3.488386 -2.703910 -2.721807 0
M  V30 22 C -5.688478 -2.474950 -3.587338 0
M  V30 23 C -5.163790 -2.667920 -4.961726 0
M  V30 24 C -5.620890 -3.861432 -4.167007 0
M  V30 25 N -3.360514 -2.516924 0.291325 0
M  V30 26 N -2.167567 -2.331010 0.840486 0
M  V30 27 C -1.638902 -1.213832 0.309080 0
M  V30 28 C -0.434465 -0.524722 0.486143 0
M  V30 29 C 1.680175 1.251692 1.222371 0
M  V30 30 H 1.586281 -3.231036 4.627881 0
M  V30 31 H 2.281736 -2.298126 5.990990 0
M  V30 32 H 0.755759 -1.711454 5.216722 0
M  V30 33 H 1.946244 -0.971440 3.295140 0
M  V30 34 H 4.166729 -2.828095 4.178021 0
M  V30 35 H 4.160948 -1.840988 2.621361 0
M  V30 36 H 2.947592 -3.106985 2.935165 0
M  V30 37 H 2.477476 0.312870 5.408770 0
M  V30 38 H 3.882201 -0.721290 5.684135 0
M  V30 39 H 3.649424 2.821820 3.008017 0
M  V30 40 H 4.431836 3.016613 0.680930 0
M  V30 41 H 3.511290 3.175615 -1.548392 0
M  V30 42 H 1.330098 2.033175 -1.955279 0
M  V30 43 H -0.899381 2.026712 -1.695971 0
M  V30 44 H -3.082706 0.817220 -2.046300 0
M  V30 45 H -5.818637 -1.134519 -1.176345 0
M  V30 46 H -6.705369 -2.071412 -3.414747 0
M  V30 47 H -4.087892 -2.460098 -5.121271 0
M  V30 48 H -5.798543 -2.459852 -5.850993 0
M  V30 49 H -4.782987 -4.549303 -3.906343 0
M  V30 50 H -6.543150 -4.386814 -4.467938 0
M  V30 51 H -1.654236 -2.905164 1.566144 0
M  V30 52 H 0.250668 -0.954784 1.203797 0
M  V30 53 H 1.159034 0.728518 2.003347 0
M  V30 END ATOM
M  V30 BEGIN BOND
M  V30 1 1 1 2
M  V30 2 1 2 3
M  V30 3 1 2 4
M  V30 4 1 4 5
M  V30 5 2 5 6
M  V30 6 2 5 7
M  V30 7 1 5 8
M  V30 8 1 8 9
M  V30 9 2 9 10
M  V30 10 1 10 11
M  V30 11 2 11 12
M  V30 12 1 12 13
M  V30 13 1 13 14
M  V30 14 2 14 15
M  V30 15 1 15 16
M  V30 16 2 16 17
M  V30 17 1 17 18
M  V30 18 1 18 19
M  V30 19 1 19 20
M  V30 20 2 20 21
M  V30 21 1 20 22
M  V30 22 1 22 23
M  V30 23 1 23 24
M  V30 24 2 18 25
M  V30 25 1 25 26
M  V30 26 1 26 27
M  V30 27 2 27 28
M  V30 28 2 13 29
M  V30 29 1 29 9
M  V30 30 1 28 14
M  V30 31 1 27 17
M  V30 32 1 24 22
M  V30 33 1 1 30
M  V30 34 1 1 31
M  V30 35 1 1 32
M  V30 36 1 2 33
M  V30 37 1 3 34
M  V30 38 1 3 35
M  V30 39 1 3 36
M  V30 40 1 4 37
M  V30 41 1 4 38
M  V30 42 1 8 39
M  V30 43 1 10 40
M  V30 44 1 11 41
M  V30 45 1 12 42
M  V30 46 1 15 43
M  V30 47 1 16 44
M  V30 48 1 19 45
M  V30 49 1 22 46
M  V30 50 1 23 47
M  V30 51 1 23 48
M  V30 52 1 24 49
M  V30 53 1 24 50
M  V30 54 1 26 51
M  V30 55 1 28 52
M  V30 56 1 29 53
M  V30 END BOND
M  V30 END CTAB
M  END
>  <Dataset>  (923) 
ChEMBL_Kinases

>  <Ligand_Instance>  (923) 
nan

>  <PDB_ID>  (923) 
nan

>  <Standardized_SMILES>  (923) 
CC(C)CS(=O)(=O)Nc1cccc(-c2ccc3c(NC(=O)C4CC4)n[nH]c3c2)c1

>  <Name>  (923) 
nan

>  <Pocket>  (923) 
nan

>  <ATP_Site>  (923) 
nan

>  <Peripheral>  (923) 
nan

>  <Num_H_Atoms_ProtBoundConf>  (923) 
nan

>  <Num_Resolved_Atoms>  (923) 
nan

>  <Num_Not_Resolved_Atoms>  (923) 
nan

$$$$
CHEMBL4534571
     RDKit          3D

  0  0  0  0  0  0  0  0  0  0999 V3000
M  V30 BEGIN CTAB
M  V30 COUNTS 54 58 0 0 0
M  V30 BEGIN ATOM
M  V30 1 O 2.142484 -6.208131 -2.176756 0
M  V30 2 C 0.897990 -6.386923 -2.395119 0
M  V30 3 N 0.055172 -5.589693 -1.571887 0
M  V30 4 C 0.398408 -4.643752 -0.564196 0
M  V30 5 N 0.594972 -4.795922 0.761032 0
M  V30 6 N 0.902023 -3.617968 1.311958 0
M  V30 7 C 0.910735 -2.674404 0.350705 0
M  V30 8 C 1.170203 -1.297894 0.407194 0
M  V30 9 C 1.111427 -0.532182 -0.762987 0
M  V30 10 C 1.383208 0.904253 -0.692797 0
M  V30 11 C 1.952838 1.614055 -1.729863 0
M  V30 12 C 2.216168 2.967956 -1.683663 0
M  V30 13 C 1.867361 3.580201 -0.512502 0
M  V30 14 C 1.285925 2.964591 0.601589 0
M  V30 15 N 0.982446 3.757849 1.733559 0
M  V30 16 S -0.430831 3.860630 2.715444 0
M  V30 17 O -0.292127 4.968658 3.719581 0
M  V30 18 O -1.639573 4.228095 1.862914 0
M  V30 19 C -0.835191 2.357562 3.533117 0
M  V30 20 C -2.079610 2.584703 4.356256 0
M  V30 21 C -2.068389 3.017471 5.684318 0
M  V30 22 C -3.264398 3.194197 6.347968 0
M  V30 23 C -4.484390 2.957098 5.742947 0
M  V30 24 F -5.645232 3.135006 6.406938 0
M  V30 25 C -4.538677 2.524452 4.419627 0
M  V30 26 C -3.329495 2.364685 3.806826 0
M  V30 27 C 1.068057 1.614637 0.446124 0
M  V30 28 C 0.792041 -1.176645 -1.960015 0
M  V30 29 C 0.540647 -2.535187 -1.987812 0
M  V30 30 C 0.595629 -3.302619 -0.838100 0
M  V30 31 C 0.294761 -7.306933 -3.382038 0
M  V30 32 C 0.979236 -8.559630 -3.775831 0
M  V30 33 C 1.010335 -7.412813 -4.734948 0
M  V30 34 H -0.987996 -5.612397 -1.619650 0
M  V30 35 H 1.099230 -3.478923 2.328010 0
M  V30 36 H 1.409120 -0.880024 1.371281 0
M  V30 37 H 2.194680 1.045597 -2.615936 0
M  V30 38 H 2.659844 3.519830 -2.491662 0
M  V30 39 H 2.061652 4.656695 -0.438844 0
M  V30 40 H 1.801987 4.385951 1.988824 0
M  V30 41 H -1.122449 1.546192 2.829716 0
M  V30 42 H -0.033563 1.994974 4.195295 0
M  V30 43 H -1.093816 3.191686 6.120847 0
M  V30 44 H -3.231111 3.535251 7.391795 0
M  V30 45 H -5.452286 2.318143 3.878235 0
M  V30 46 H -3.323052 2.023837 2.759901 0
M  V30 47 H 0.623529 1.097608 1.280517 0
M  V30 48 H 0.755290 -0.554672 -2.845542 0
M  V30 49 H 0.292642 -3.029537 -2.922930 0
M  V30 50 H -0.807365 -7.322865 -3.434506 0
M  V30 51 H 0.345322 -9.423227 -4.064326 0
M  V30 52 H 1.879646 -8.830082 -3.201867 0
M  V30 53 H 0.363850 -7.459901 -5.648042 0
M  V30 54 H 1.911650 -6.802991 -4.892000 0
M  V30 END ATOM
M  V30 BEGIN BOND
M  V30 1 2 1 2
M  V30 2 1 2 3
M  V30 3 1 3 4
M  V30 4 2 4 5
M  V30 5 1 5 6
M  V30 6 1 6 7
M  V30 7 2 7 8
M  V30 8 1 8 9
M  V30 9 1 9 10
M  V30 10 2 10 11
M  V30 11 1 11 12
M  V30 12 2 12 13
M  V30 13 1 13 14
M  V30 14 1 14 15
M  V30 15 1 15 16
M  V30 16 2 16 17
M  V30 17 2 16 18
M  V30 18 1 16 19
M  V30 19 1 19 20
M  V30 20 2 20 21
M  V30 21 1 21 22
M  V30 22 2 22 23
M  V30 23 1 23 24
M  V30 24 1 23 25
M  V30 25 2 25 26
M  V30 26 2 14 27
M  V30 27 2 9 28
M  V30 28 1 28 29
M  V30 29 2 29 30
M  V30 30 1 2 31
M  V30 31 1 31 32
M  V30 32 1 32 33
M  V30 33 1 30 4
M  V30 34 1 33 31
M  V30 35 1 30 7
M  V30 36 1 27 10
M  V30 37 1 26 20
M  V30 38 1 3 34
M  V30 39 1 6 35
M  V30 40 1 8 36
M  V30 41 1 11 37
M  V30 42 1 12 38
M  V30 43 1 13 39
M  V30 44 1 15 40
M  V30 45 1 19 41
M  V30 46 1 19 42
M  V30 47 1 21 43
M  V30 48 1 22 44
M  V30 49 1 25 45
M  V30 50 1 26 46
M  V30 51 1 27 47
M  V30 52 1 28 48
M  V30 53 1 29 49
M  V30 54 1 31 50
M  V30 55 1 32 51
M  V30 56 1 32 52
M  V30 57 1 33 53
M  V30 58 1 33 54
M  V30 END BOND
M  V30 END CTAB
M  END
>  <Dataset>  (924) 
ChEMBL_Kinases

>  <Ligand_Instance>  (924) 
nan

>  <PDB_ID>  (924) 
nan

>  <Standardized_SMILES>  (924) 
O=C(Nc1n[nH]c2cc(-c3cccc(NS(=O)(=O)Cc4ccc(F)cc4)c3)ccc12)C1CC1

>  <Name>  (924) 
nan

>  <Pocket>  (924) 
nan

>  <ATP_Site>  (924) 
nan

>  <Peripheral>  (924) 
nan

>  <Num_H_Atoms_ProtBoundConf>  (924) 
nan

>  <Num_Resolved_Atoms>  (924) 
nan

>  <Num_Not_Resolved_Atoms>  (924) 
nan

$$$$
CHEMBL4067661
     RDKit          3D

  0  0  0  0  0  0  0  0  0  0999 V3000
M  V30 BEGIN CTAB
M  V30 COUNTS 42 45 0 0 0
M  V30 BEGIN ATOM
M  V30 1 N 3.076449 -7.617712 2.364380 0
M  V30 2 C 2.461213 -6.398477 1.975124 0
M  V30 3 O 1.426160 -6.095269 2.615043 0
M  V30 4 N 2.931535 -5.544035 0.949254 0
M  V30 5 C 2.388460 -4.320125 0.496172 0
M  V30 6 C 1.267315 -3.687345 0.964805 0
M  V30 7 C 0.779549 -2.490451 0.484986 0
M  V30 8 C 1.453011 -1.863216 -0.543776 0
M  V30 9 C 0.967046 -0.594425 -1.078528 0
M  V30 10 C 1.128759 -0.206080 -2.391206 0
M  V30 11 N 0.681205 0.964355 -2.886788 0
M  V30 12 C 0.026429 1.842126 -2.077056 0
M  V30 13 N -0.520463 3.045646 -2.265760 0
M  V30 14 C -1.048867 3.464959 -1.080796 0
M  V30 15 C -0.820284 2.484181 -0.123315 0
M  V30 16 C -1.282061 2.657646 1.268874 0
M  V30 17 C -0.423529 2.343872 2.294148 0
M  V30 18 C -0.864081 2.509581 3.612464 0
M  V30 19 C -2.145972 2.982392 3.767362 0
M  V30 20 O -2.553834 3.136228 5.101189 0
M  V30 21 C -3.019366 3.301637 2.750016 0
M  V30 22 C -2.566947 3.131571 1.441225 0
M  V30 23 C -0.136319 1.457453 -0.767199 0
M  V30 24 C 0.302688 0.273000 -0.214321 0
M  V30 25 C 2.586087 -2.479641 -1.034505 0
M  V30 26 C 3.044451 -3.678217 -0.528897 0
M  V30 27 H 3.868935 -8.148640 2.760494 0
M  V30 28 H 3.995946 -7.257778 2.724620 0
M  V30 29 H 3.795674 -5.935534 0.517559 0
M  V30 30 H 0.710698 -4.124113 1.754352 0
M  V30 31 H -0.109010 -2.038739 0.893205 0
M  V30 32 H 1.647732 -0.901983 -3.032274 0
M  V30 33 H -0.524551 3.549881 -3.177880 0
M  V30 34 H -1.548923 4.434980 -1.013254 0
M  V30 35 H 0.573951 1.975992 2.143913 0
M  V30 36 H -0.223969 2.275865 4.451827 0
M  V30 37 H -3.480170 2.861308 5.336399 0
M  V30 38 H -4.020002 3.670852 2.940863 0
M  V30 39 H -3.214337 3.368017 0.610673 0
M  V30 40 H 0.149155 0.017057 0.824321 0
M  V30 41 H 3.155867 -2.038149 -1.838718 0
M  V30 42 H 3.949260 -4.121213 -0.957280 0
M  V30 END ATOM
M  V30 BEGIN BOND
M  V30 1 1 1 2
M  V30 2 2 2 3
M  V30 3 1 2 4
M  V30 4 1 4 5
M  V30 5 2 5 6
M  V30 6 1 6 7
M  V30 7 2 7 8
M  V30 8 1 8 9
M  V30 9 2 9 10
M  V30 10 1 10 11
M  V30 11 2 11 12
M  V30 12 1 12 13
M  V30 13 1 13 14
M  V30 14 2 14 15
M  V30 15 1 15 16
M  V30 16 2 16 17
M  V30 17 1 17 18
M  V30 18 2 18 19
M  V30 19 1 19 20
M  V30 20 1 19 21
M  V30 21 2 21 22
M  V30 22 1 15 23
M  V30 23 2 23 24
M  V30 24 1 8 25
M  V30 25 2 25 26
M  V30 26 1 26 5
M  V30 27 1 24 9
M  V30 28 1 23 12
M  V30 29 1 22 16
M  V30 30 1 1 27
M  V30 31 1 1 28
M  V30 32 1 4 29
M  V30 33 1 6 30
M  V30 34 1 7 31
M  V30 35 1 10 32
M  V30 36 1 13 33
M  V30 37 1 14 34
M  V30 38 1 17 35
M  V30 39 1 18 36
M  V30 40 1 20 37
M  V30 41 1 21 38
M  V30 42 1 22 39
M  V30 43 1 24 40
M  V30 44 1 25 41
M  V30 45 1 26 42
M  V30 END BOND
M  V30 END CTAB
M  END
>  <Dataset>  (925) 
ChEMBL_Kinases

>  <Ligand_Instance>  (925) 
nan

>  <PDB_ID>  (925) 
nan

>  <Standardized_SMILES>  (925) 
NC(=O)Nc1ccc(-c2cnc3[nH]cc(-c4ccc(O)cc4)c3c2)cc1

>  <Name>  (925) 
nan

>  <Pocket>  (925) 
nan

>  <ATP_Site>  (925) 
nan

>  <Peripheral>  (925) 
nan

>  <Num_H_Atoms_ProtBoundConf>  (925) 
nan

>  <Num_Resolved_Atoms>  (925) 
nan

>  <Num_Not_Resolved_Atoms>  (925) 
nan

$$$$
CHEMBL5090046
     RDKit          3D

  0  0  0  0  0  0  0  0  0  0999 V3000
M  V30 BEGIN CTAB
M  V30 COUNTS 70 74 0 0 0
M  V30 BEGIN ATOM
M  V30 1 O 1.223720 1.541731 3.084143 0
M  V30 2 C 1.042380 0.597028 3.897438 0
M  V30 3 N 2.104126 0.227187 4.763123 0
M  V30 4 C 3.361198 0.911939 4.717764 0
M  V30 5 C 4.059731 0.807120 3.420121 0
M  V30 6 C 4.481322 -0.517517 2.939235 0
M  V30 7 N 3.534944 -1.526434 2.678822 0
M  V30 8 C 2.568491 -1.359409 1.658495 0
M  V30 9 N 2.525017 -0.272957 0.879615 0
M  V30 10 C 1.669825 -0.080758 -0.108950 0
M  V30 11 N 1.703376 1.100750 -0.881552 0
M  V30 12 C 0.886419 1.466381 -1.968322 0
M  V30 13 C 1.096312 2.689289 -2.616115 0
M  V30 14 C 0.332689 3.093486 -3.679798 0
M  V30 15 C -0.690493 2.321020 -4.180339 0
M  V30 16 C -0.960528 1.081357 -3.582527 0
M  V30 17 N -1.988148 0.185661 -3.998501 0
M  V30 18 C -3.349708 -0.034404 -3.662998 0
M  V30 19 O -4.031653 0.596386 -2.818843 0
M  V30 20 N -4.000476 -1.084717 -4.363149 0
M  V30 21 C -5.383987 -1.439021 -4.121867 0
M  V30 22 C -5.497711 -2.909265 -4.459548 0
M  V30 23 C -4.323702 -3.215098 -5.348531 0
M  V30 24 C -3.489830 -1.976787 -5.394950 0
M  V30 25 C -0.149903 0.747992 -2.519814 0
M  V30 26 N 0.807109 -1.087315 -0.293843 0
M  V30 27 C 0.779287 -2.208309 0.437609 0
M  V30 28 C 1.679891 -2.386462 1.463290 0
M  V30 29 C 1.504060 -3.653067 2.187951 0
M  V30 30 C 0.298702 -3.990944 2.973287 0
M  V30 31 C 1.490947 -3.522909 3.729191 0
M  V30 32 C -0.287163 -0.009889 3.834295 0
M  V30 33 C -1.004162 0.118255 5.184922 0
M  V30 34 C -2.288594 0.291801 4.371966 0
M  V30 35 C -1.385502 0.883227 3.291698 0
M  V30 36 H 1.927763 -0.552203 5.429709 0
M  V30 37 H 3.996385 0.542775 5.556256 0
M  V30 38 H 3.144423 1.981411 5.006875 0
M  V30 39 H 5.007243 1.428654 3.518764 0
M  V30 40 H 3.500822 1.373721 2.608552 0
M  V30 41 H 5.336614 -0.868040 3.590095 0
M  V30 42 H 5.030139 -0.325289 1.951812 0
M  V30 43 H 3.611369 -2.374946 3.271049 0
M  V30 44 H 2.445546 1.813830 -0.606077 0
M  V30 45 H 1.885297 3.357180 -2.284564 0
M  V30 46 H 0.539881 4.061575 -4.150542 0
M  V30 47 H -1.321950 2.590284 -5.012962 0
M  V30 48 H -1.494606 -0.384745 -4.717260 0
M  V30 49 H -5.554783 -1.340343 -3.025093 0
M  V30 50 H -6.061554 -0.789728 -4.684229 0
M  V30 51 H -5.443498 -3.539096 -3.525128 0
M  V30 52 H -6.447309 -3.185449 -4.946825 0
M  V30 53 H -4.647405 -3.537400 -6.364069 0
M  V30 54 H -3.737893 -4.064988 -4.915795 0
M  V30 55 H -3.527262 -1.449160 -6.363122 0
M  V30 56 H -2.428585 -2.193085 -5.079048 0
M  V30 57 H -0.373851 -0.212522 -2.071195 0
M  V30 58 H -0.024471 -2.859408 0.071488 0
M  V30 59 H 2.085570 -4.550221 1.825425 0
M  V30 60 H -0.607880 -3.332711 2.963585 0
M  V30 61 H -0.003235 -5.056008 3.059329 0
M  V30 62 H 2.125608 -4.237119 4.290184 0
M  V30 63 H 1.471498 -2.504129 4.172660 0
M  V30 64 H -0.266698 -1.031455 3.452647 0
M  V30 65 H -0.778231 1.097963 5.669226 0
M  V30 66 H -0.935068 -0.772617 5.803703 0
M  V30 67 H -2.674313 -0.697138 4.048571 0
M  V30 68 H -3.021661 0.987015 4.780665 0
M  V30 69 H -1.138117 1.947226 3.522317 0
M  V30 70 H -1.656005 0.656496 2.258186 0
M  V30 END ATOM
M  V30 BEGIN BOND
M  V30 1 2 1 2
M  V30 2 1 2 3
M  V30 3 1 3 4
M  V30 4 1 4 5
M  V30 5 1 5 6
M  V30 6 1 6 7
M  V30 7 1 7 8
M  V30 8 2 8 9
M  V30 9 1 9 10
M  V30 10 1 10 11
M  V30 11 1 11 12
M  V30 12 2 12 13
M  V30 13 1 13 14
M  V30 14 2 14 15
M  V30 15 1 15 16
M  V30 16 1 16 17
M  V30 17 1 17 18
M  V30 18 2 18 19
M  V30 19 1 18 20
M  V30 20 1 20 21
M  V30 21 1 21 22
M  V30 22 1 22 23
M  V30 23 1 23 24
M  V30 24 2 16 25
M  V30 25 2 10 26
M  V30 26 1 26 27
M  V30 27 2 27 28
M  V30 28 1 28 29
M  V30 29 1 29 30
M  V30 30 1 30 31
M  V30 31 1 2 32
M  V30 32 1 32 33
M  V30 33 1 33 34
M  V30 34 1 34 35
M  V30 35 1 28 8
M  V30 36 1 31 29
M  V30 37 1 35 32
M  V30 38 1 25 12
M  V30 39 1 24 20
M  V30 40 1 3 36
M  V30 41 1 4 37
M  V30 42 1 4 38
M  V30 43 1 5 39
M  V30 44 1 5 40
M  V30 45 1 6 41
M  V30 46 1 6 42
M  V30 47 1 7 43
M  V30 48 1 11 44
M  V30 49 1 13 45
M  V30 50 1 14 46
M  V30 51 1 15 47
M  V30 52 1 17 48
M  V30 53 1 21 49
M  V30 54 1 21 50
M  V30 55 1 22 51
M  V30 56 1 22 52
M  V30 57 1 23 53
M  V30 58 1 23 54
M  V30 59 1 24 55
M  V30 60 1 24 56
M  V30 61 1 25 57
M  V30 62 1 27 58
M  V30 63 1 29 59
M  V30 64 1 30 60
M  V30 65 1 30 61
M  V30 66 1 31 62
M  V30 67 1 31 63
M  V30 68 1 32 64
M  V30 69 1 33 65
M  V30 70 1 33 66
M  V30 71 1 34 67
M  V30 72 1 34 68
M  V30 73 1 35 69
M  V30 74 1 35 70
M  V30 END BOND
M  V30 END CTAB
M  END
>  <Dataset>  (926) 
ChEMBL_Kinases

>  <Ligand_Instance>  (926) 
nan

>  <PDB_ID>  (926) 
nan

>  <Standardized_SMILES>  (926) 
O=C(NCCCNc1nc(Nc2cccc(NC(=O)N3CCCC3)c2)ncc1C1CC1)C1CCC1

>  <Name>  (926) 
nan

>  <Pocket>  (926) 
nan

>  <ATP_Site>  (926) 
nan

>  <Peripheral>  (926) 
nan

>  <Num_H_Atoms_ProtBoundConf>  (926) 
nan

>  <Num_Resolved_Atoms>  (926) 
nan

>  <Num_Not_Resolved_Atoms>  (926) 
nan

$$$$
CHEMBL3337846
     RDKit          3D

  0  0  0  0  0  0  0  0  0  0999 V3000
M  V30 BEGIN CTAB
M  V30 COUNTS 36 39 0 0 0
M  V30 BEGIN ATOM
M  V30 1 C 2.555445 -6.865131 -1.576827 0
M  V30 2 O 1.973717 -5.582322 -1.462639 0
M  V30 3 C 2.118400 -4.844671 -0.280986 0
M  V30 4 C 2.810270 -5.282037 0.829493 0
M  V30 5 C 2.907068 -4.494667 1.956563 0
M  V30 6 C 2.309262 -3.251908 1.987429 0
M  V30 7 C 1.608680 -2.781267 0.894767 0
M  V30 8 C 0.997132 -1.459992 0.983480 0
M  V30 9 O 1.138045 -0.822247 2.041953 0
M  V30 10 N 0.259705 -0.891006 -0.082430 0
M  V30 11 C -0.299475 0.414500 0.110109 0
M  V30 12 N -1.554848 0.568496 0.625960 0
M  V30 13 C -1.823415 1.900333 0.697201 0
M  V30 14 C -2.892052 2.666697 1.117184 0
M  V30 15 C -2.885224 4.045801 1.072810 0
M  V30 16 C -1.767706 4.700910 0.589742 0
M  V30 17 C -0.673866 3.968433 0.158290 0
M  V30 18 C -0.706231 2.580793 0.213510 0
M  V30 19 N 0.202260 1.638261 -0.134771 0
M  V30 20 O -2.044059 6.077469 0.662852 0
M  V30 21 C -3.123636 6.272598 1.588382 0
M  V30 22 F -3.895702 7.349942 1.270148 0
M  V30 23 F -2.683004 6.282198 2.898444 0
M  V30 24 O -3.814033 5.028674 1.428293 0
M  V30 25 C 1.533825 -3.595452 -0.211911 0
M  V30 26 H 2.397923 -7.241764 -2.594249 0
M  V30 27 H 2.049439 -7.561867 -0.862188 0
M  V30 28 H 3.623964 -6.866589 -1.286463 0
M  V30 29 H 3.265390 -6.268609 0.759667 0
M  V30 30 H 3.463213 -4.892129 2.796645 0
M  V30 31 H 2.431184 -2.685038 2.920524 0
M  V30 32 H 0.127008 -1.396787 -0.970630 0
M  V30 33 H -3.752997 2.127475 1.490385 0
M  V30 34 H 0.206961 4.491132 -0.222660 0
M  V30 35 H 1.161777 1.785450 -0.537026 0
M  V30 36 H 0.989247 -3.242552 -1.076069 0
M  V30 END ATOM
M  V30 BEGIN BOND
M  V30 1 1 1 2
M  V30 2 1 2 3
M  V30 3 2 3 4
M  V30 4 1 4 5
M  V30 5 2 5 6
M  V30 6 1 6 7
M  V30 7 1 7 8
M  V30 8 2 8 9
M  V30 9 1 8 10
M  V30 10 1 10 11
M  V30 11 2 11 12
M  V30 12 1 12 13
M  V30 13 2 13 14
M  V30 14 1 14 15
M  V30 15 2 15 16
M  V30 16 1 16 17
M  V30 17 2 17 18
M  V30 18 1 18 19
M  V30 19 1 16 20
M  V30 20 1 20 21
M  V30 21 1 21 22
M  V30 22 1 21 23
M  V30 23 1 21 24
M  V30 24 2 7 25
M  V30 25 1 25 3
M  V30 26 1 19 11
M  V30 27 1 18 13
M  V30 28 1 24 15
M  V30 29 1 1 26
M  V30 30 1 1 27
M  V30 31 1 1 28
M  V30 32 1 4 29
M  V30 33 1 5 30
M  V30 34 1 6 31
M  V30 35 1 10 32
M  V30 36 1 14 33
M  V30 37 1 17 34
M  V30 38 1 19 35
M  V30 39 1 25 36
M  V30 END BOND
M  V30 END CTAB
M  END
>  <Dataset>  (927) 
ChEMBL_Kinases

>  <Ligand_Instance>  (927) 
nan

>  <PDB_ID>  (927) 
nan

>  <Standardized_SMILES>  (927) 
COc1cccc(C(=O)Nc2nc3cc4c(cc3[nH]2)OC(F)(F)O4)c1

>  <Name>  (927) 
nan

>  <Pocket>  (927) 
nan

>  <ATP_Site>  (927) 
nan

>  <Peripheral>  (927) 
nan

>  <Num_H_Atoms_ProtBoundConf>  (927) 
nan

>  <Num_Resolved_Atoms>  (927) 
nan

>  <Num_Not_Resolved_Atoms>  (927) 
nan

$$$$
CHEMBL1090090
     RDKit          3D

  0  0  0  0  0  0  0  0  0  0999 V3000
M  V30 BEGIN CTAB
M  V30 COUNTS 41 43 0 0 0
M  V30 BEGIN ATOM
M  V30 1 N -3.592832 -2.704876 -0.641229 0
M  V30 2 C -2.233152 -2.773842 -0.251898 0
M  V30 3 O -2.453618 -4.003062 -0.203016 0
M  V30 4 C -1.436377 -1.574286 -0.136035 0
M  V30 5 C -2.018396 -0.349949 -0.387105 0
M  V30 6 C -1.123480 0.683299 -0.211551 0
M  V30 7 C 0.186074 0.506255 0.167611 0
M  V30 8 N 1.051113 1.622643 0.334109 0
M  V30 9 C 1.520669 1.673001 -0.998961 0
M  V30 10 N 2.441747 2.544329 -1.637614 0
M  V30 11 O 0.969340 0.745922 -1.654606 0
M  V30 12 C 1.218150 2.304205 1.562793 0
M  V30 13 C 2.060419 3.381725 1.705237 0
M  V30 14 F 2.776576 3.849609 0.667681 0
M  V30 15 C 2.223617 4.052102 2.923112 0
M  V30 16 C 1.461353 3.535679 3.978161 0
M  V30 17 C 0.619522 2.456368 3.829207 0
M  V30 18 C 0.481607 1.818947 2.616268 0
M  V30 19 F -0.355669 0.768372 2.527837 0
M  V30 20 N 0.678239 -0.730599 0.394005 0
M  V30 21 C -0.136130 -1.818283 0.244445 0
M  V30 22 C 0.377741 -3.156719 0.489400 0
M  V30 23 C 0.414973 -4.239856 -0.364578 0
M  V30 24 C 0.954618 -5.438040 0.044553 0
M  V30 25 C 1.484988 -5.632730 1.312844 0
M  V30 26 F 2.015310 -6.810681 1.715435 0
M  V30 27 C 1.436102 -4.535426 2.146373 0
M  V30 28 C 0.894325 -3.304747 1.760372 0
M  V30 29 F 0.924831 -2.330366 2.699842 0
M  V30 30 H -4.324330 -2.044164 -0.259661 0
M  V30 31 H -4.542788 -2.774665 -1.025044 0
M  V30 32 H -3.041800 -0.259389 -0.679737 0
M  V30 33 H -1.480141 1.697768 -0.384680 0
M  V30 34 H 3.445782 2.780405 -1.706795 0
M  V30 35 H 3.374129 2.924697 -1.846660 0
M  V30 36 H 2.868953 4.889703 3.063284 0
M  V30 37 H 1.549929 4.019669 4.950134 0
M  V30 38 H 0.058947 2.110486 4.693492 0
M  V30 39 H 0.001519 -4.051984 -1.345211 0
M  V30 40 H 0.958461 -6.263181 -0.672169 0
M  V30 41 H 1.842517 -4.664387 3.135434 0
M  V30 END ATOM
M  V30 BEGIN BOND
M  V30 1 1 1 2
M  V30 2 2 2 3
M  V30 3 1 2 4
M  V30 4 2 4 5
M  V30 5 1 5 6
M  V30 6 2 6 7
M  V30 7 1 7 8
M  V30 8 1 8 9
M  V30 9 1 9 10
M  V30 10 2 9 11
M  V30 11 1 8 12
M  V30 12 2 12 13
M  V30 13 1 13 14
M  V30 14 1 13 15
M  V30 15 2 15 16
M  V30 16 1 16 17
M  V30 17 2 17 18
M  V30 18 1 18 19
M  V30 19 1 7 20
M  V30 20 2 20 21
M  V30 21 1 21 22
M  V30 22 2 22 23
M  V30 23 1 23 24
M  V30 24 2 24 25
M  V30 25 1 25 26
M  V30 26 1 25 27
M  V30 27 2 27 28
M  V30 28 1 28 29
M  V30 29 1 21 4
M  V30 30 1 28 22
M  V30 31 1 18 12
M  V30 32 1 1 30
M  V30 33 1 1 31
M  V30 34 1 5 32
M  V30 35 1 6 33
M  V30 36 1 10 34
M  V30 37 1 10 35
M  V30 38 1 15 36
M  V30 39 1 16 37
M  V30 40 1 17 38
M  V30 41 1 23 39
M  V30 42 1 24 40
M  V30 43 1 27 41
M  V30 END BOND
M  V30 END CTAB
M  END
>  <Dataset>  (928) 
ChEMBL_Kinases

>  <Ligand_Instance>  (928) 
nan

>  <PDB_ID>  (928) 
nan

>  <Standardized_SMILES>  (928) 
NC(=O)c1ccc(N(C(N)=O)c2c(F)cccc2F)nc1-c1ccc(F)cc1F

>  <Name>  (928) 
VX-702

>  <Pocket>  (928) 
nan

>  <ATP_Site>  (928) 
nan

>  <Peripheral>  (928) 
nan

>  <Num_H_Atoms_ProtBoundConf>  (928) 
nan

>  <Num_Resolved_Atoms>  (928) 
nan

>  <Num_Not_Resolved_Atoms>  (928) 
nan

$$$$
CHEMBL4531680
     RDKit          3D

  0  0  0  0  0  0  0  0  0  0999 V3000
M  V30 BEGIN CTAB
M  V30 COUNTS 52 55 0 0 0
M  V30 BEGIN ATOM
M  V30 1 C 2.017143 -2.104920 2.647852 0
M  V30 2 C 3.303324 -2.294784 3.381916 0
M  V30 3 N 4.456693 -1.809354 2.709519 0
M  V30 4 C 4.630563 -2.232708 1.359777 0
M  V30 5 S 4.939524 -0.234527 3.077156 0
M  V30 6 O 4.463632 0.054071 4.510321 0
M  V30 7 O 6.459930 -0.207894 3.181662 0
M  V30 8 N 4.423964 1.003512 2.034591 0
M  V30 9 C 3.271810 1.648585 1.521306 0
M  V30 10 C 3.137942 3.030302 1.658405 0
M  V30 11 C 2.047046 3.730210 1.233831 0
M  V30 12 C 1.037730 3.010612 0.641165 0
M  V30 13 C 1.070771 1.638688 0.455924 0
M  V30 14 C -0.004922 0.878064 -0.174447 0
M  V30 15 C -1.340866 1.255899 -0.064892 0
M  V30 16 C -2.359224 0.534483 -0.660636 0
M  V30 17 C -2.032540 -0.605681 -1.392668 0
M  V30 18 C -2.726881 -1.562874 -2.111676 0
M  V30 19 N -4.163406 -1.447298 -2.189767 0
M  V30 20 C -4.814793 -2.141149 -1.115398 0
M  V30 21 O -4.101556 -2.754428 -0.249671 0
M  V30 22 C -6.293468 -2.177666 -0.964771 0
M  V30 23 C -6.817697 -2.340291 0.445875 0
M  V30 24 C -6.892332 -3.503087 -0.443525 0
M  V30 25 N -1.877834 -2.470748 -2.630488 0
M  V30 26 N -0.637437 -2.131240 -2.267998 0
M  V30 27 C -0.700747 -1.011662 -1.521888 0
M  V30 28 C 0.290588 -0.266304 -0.912766 0
M  V30 29 C 2.215309 1.030786 0.919659 0
M  V30 30 H 1.613357 -1.070181 2.821832 0
M  V30 31 H 2.163889 -2.308424 1.576892 0
M  V30 32 H 1.218431 -2.800482 2.985225 0
M  V30 33 H 3.422192 -3.413870 3.505103 0
M  V30 34 H 3.251296 -1.930910 4.437894 0
M  V30 35 H 5.651589 -1.909327 1.005802 0
M  V30 36 H 3.902228 -1.745899 0.682972 0
M  V30 37 H 4.526245 -3.335660 1.243259 0
M  V30 38 H 5.213254 1.508062 1.554610 0
M  V30 39 H 3.972241 3.547562 2.136114 0
M  V30 40 H 1.977104 4.820648 1.359479 0
M  V30 41 H 0.172272 3.562553 0.305221 0
M  V30 42 H -1.580152 2.143490 0.506388 0
M  V30 43 H -3.392403 0.801973 -0.592331 0
M  V30 44 H -4.807609 -0.969542 -2.857959 0
M  V30 45 H -6.911480 -1.651167 -1.709151 0
M  V30 46 H -6.047363 -2.378100 1.261583 0
M  V30 47 H -7.766036 -1.850384 0.719059 0
M  V30 48 H -6.173584 -4.348355 -0.327926 0
M  V30 49 H -7.847799 -3.824703 -0.932198 0
M  V30 50 H 0.232270 -2.646938 -2.520697 0
M  V30 51 H 1.318562 -0.597207 -1.024430 0
M  V30 52 H 2.253570 -0.018282 0.768577 0
M  V30 END ATOM
M  V30 BEGIN BOND
M  V30 1 1 1 2
M  V30 2 1 2 3
M  V30 3 1 3 4
M  V30 4 1 3 5
M  V30 5 2 5 6
M  V30 6 2 5 7
M  V30 7 1 5 8
M  V30 8 1 8 9
M  V30 9 2 9 10
M  V30 10 1 10 11
M  V30 11 2 11 12
M  V30 12 1 12 13
M  V30 13 1 13 14
M  V30 14 2 14 15
M  V30 15 1 15 16
M  V30 16 2 16 17
M  V30 17 1 17 18
M  V30 18 1 18 19
M  V30 19 1 19 20
M  V30 20 2 20 21
M  V30 21 1 20 22
M  V30 22 1 22 23
M  V30 23 1 23 24
M  V30 24 2 18 25
M  V30 25 1 25 26
M  V30 26 1 26 27
M  V30 27 2 27 28
M  V30 28 2 13 29
M  V30 29 1 29 9
M  V30 30 1 28 14
M  V30 31 1 27 17
M  V30 32 1 24 22
M  V30 33 1 1 30
M  V30 34 1 1 31
M  V30 35 1 1 32
M  V30 36 1 2 33
M  V30 37 1 2 34
M  V30 38 1 4 35
M  V30 39 1 4 36
M  V30 40 1 4 37
M  V30 41 1 8 38
M  V30 42 1 10 39
M  V30 43 1 11 40
M  V30 44 1 12 41
M  V30 45 1 15 42
M  V30 46 1 16 43
M  V30 47 1 19 44
M  V30 48 1 22 45
M  V30 49 1 23 46
M  V30 50 1 23 47
M  V30 51 1 24 48
M  V30 52 1 24 49
M  V30 53 1 26 50
M  V30 54 1 28 51
M  V30 55 1 29 52
M  V30 END BOND
M  V30 END CTAB
M  END
>  <Dataset>  (929) 
ChEMBL_Kinases

>  <Ligand_Instance>  (929) 
nan

>  <PDB_ID>  (929) 
nan

>  <Standardized_SMILES>  (929) 
CCN(C)S(=O)(=O)Nc1cccc(-c2ccc3c(NC(=O)C4CC4)n[nH]c3c2)c1

>  <Name>  (929) 
nan

>  <Pocket>  (929) 
nan

>  <ATP_Site>  (929) 
nan

>  <Peripheral>  (929) 
nan

>  <Num_H_Atoms_ProtBoundConf>  (929) 
nan

>  <Num_Resolved_Atoms>  (929) 
nan

>  <Num_Not_Resolved_Atoms>  (929) 
nan

$$$$
CHEMBL2321878
     RDKit          3D

  0  0  0  0  0  0  0  0  0  0999 V3000
M  V30 BEGIN CTAB
M  V30 COUNTS 38 41 0 0 0
M  V30 BEGIN ATOM
M  V30 1 O -1.084764 2.892382 1.142249 0
M  V30 2 C 0.030395 2.388586 0.912530 0
M  V30 3 N 1.209127 3.169051 0.765618 0
M  V30 4 C 2.262590 2.223445 0.514303 0
M  V30 5 C 1.777390 0.940846 0.504561 0
M  V30 6 C 2.726026 0.019597 0.273156 0
M  V30 7 C 4.057386 0.276098 0.061566 0
M  V30 8 C 4.507645 1.603324 0.080615 0
M  V30 9 C 3.584751 2.598451 0.312960 0
M  V30 10 C 4.060172 4.001146 0.333183 0
M  V30 11 F 5.400733 4.081240 0.107092 0
M  V30 12 F 3.442673 4.744495 -0.681011 0
M  V30 13 F 3.799123 4.616539 1.544590 0
M  V30 14 C 0.368082 0.995068 0.752328 0
M  V30 15 C -0.405002 -0.024256 0.811613 0
M  V30 16 N -1.799276 0.086522 1.060904 0
M  V30 17 C -2.445951 -1.180572 1.080242 0
M  V30 18 C -3.778170 -1.529446 1.285232 0
M  V30 19 C -4.078687 -2.872496 1.239143 0
M  V30 20 C -3.130711 -3.844203 1.004187 0
M  V30 21 C -3.541171 -5.243604 0.973006 0
M  V30 22 O -4.733727 -5.527524 1.158597 0
M  V30 23 O -2.616553 -6.253185 0.739309 0
M  V30 24 C -1.832861 -3.432546 0.809726 0
M  V30 25 C -1.426860 -2.103552 0.836542 0
M  V30 26 C -0.161313 -1.421945 0.667385 0
M  V30 27 N 0.856888 -2.064395 0.444326 0
M  V30 28 O 0.952733 -3.404889 0.329854 0
M  V30 29 H 1.243733 4.223930 0.836680 0
M  V30 30 H 2.616128 -1.013252 0.216726 0
M  V30 31 H 4.880251 -0.421336 -0.131731 0
M  V30 32 H 5.537142 1.879741 -0.077299 0
M  V30 33 H -2.325781 0.956753 1.215531 0
M  V30 34 H -4.524953 -0.770582 1.469840 0
M  V30 35 H -5.123659 -3.093770 1.403762 0
M  V30 36 H -2.884495 -7.126583 0.297271 0
M  V30 37 H -1.153592 -4.253018 0.632303 0
M  V30 38 H 1.209277 -3.937194 1.155289 0
M  V30 END ATOM
M  V30 BEGIN BOND
M  V30 1 2 1 2
M  V30 2 1 2 3
M  V30 3 1 3 4
M  V30 4 2 4 5
M  V30 5 1 5 6
M  V30 6 2 6 7
M  V30 7 1 7 8
M  V30 8 2 8 9
M  V30 9 1 9 10
M  V30 10 1 10 11
M  V30 11 1 10 12
M  V30 12 1 10 13
M  V30 13 1 5 14
M  V30 14 2 14 15
M  V30 15 1 15 16
M  V30 16 1 16 17
M  V30 17 2 17 18
M  V30 18 1 18 19
M  V30 19 2 19 20
M  V30 20 1 20 21
M  V30 21 2 21 22
M  V30 22 1 21 23
M  V30 23 1 20 24
M  V30 24 2 24 25
M  V30 25 1 25 26
M  V30 26 2 26 27
M  V30 27 1 27 28
M  V30 28 1 14 2
M  V30 29 1 26 15
M  V30 30 1 9 4
M  V30 31 1 25 17
M  V30 32 1 3 29
M  V30 33 1 6 30
M  V30 34 1 7 31
M  V30 35 1 8 32
M  V30 36 1 16 33
M  V30 37 1 18 34
M  V30 38 1 19 35
M  V30 39 1 23 36
M  V30 40 1 24 37
M  V30 41 1 28 38
M  V30 END BOND
M  V30 END CTAB
M  END
>  <Dataset>  (930) 
ChEMBL_Kinases

>  <Ligand_Instance>  (930) 
nan

>  <PDB_ID>  (930) 
nan

>  <Standardized_SMILES>  (930) 
O=C1Nc2c(cccc2C(F)(F)F)/C1=C1/Nc2ccc(C(=O)O)cc2/C1=N\O

>  <Name>  (930) 
nan

>  <Pocket>  (930) 
nan

>  <ATP_Site>  (930) 
nan

>  <Peripheral>  (930) 
nan

>  <Num_H_Atoms_ProtBoundConf>  (930) 
nan

>  <Num_Resolved_Atoms>  (930) 
nan

>  <Num_Not_Resolved_Atoms>  (930) 
nan

$$$$
CHEMBL2321948
     RDKit          3D

  0  0  0  0  0  0  0  0  0  0999 V3000
M  V30 BEGIN CTAB
M  V30 COUNTS 34 37 0 0 0
M  V30 BEGIN ATOM
M  V30 1 O 0.894131 -2.007645 -2.933882 0
M  V30 2 C 1.561906 -2.179772 -1.907010 0
M  V30 3 N 2.748486 -2.960298 -1.870677 0
M  V30 4 C 3.202172 -2.899245 -0.502439 0
M  V30 5 C 4.356901 -3.548368 -0.050953 0
M  V30 6 Br 5.477615 -4.587913 -1.155681 0
M  V30 7 C 4.716178 -3.439933 1.258951 0
M  V30 8 C 3.895815 -2.671516 2.095788 0
M  V30 9 C 2.780261 -2.069414 1.565434 0
M  V30 10 C 2.381381 -2.143993 0.283721 0
M  V30 11 C 1.338680 -1.675442 -0.566989 0
M  V30 12 C 0.348460 -0.921095 -0.209218 0
M  V30 13 N -0.699808 -0.440254 -1.027495 0
M  V30 14 C -1.640705 0.370258 -0.334331 0
M  V30 15 C -2.773042 0.998380 -0.808616 0
M  V30 16 C -3.474736 1.715990 0.134649 0
M  V30 17 C -3.114084 1.827184 1.458378 0
M  V30 18 C -3.892637 2.600546 2.418812 0
M  V30 19 N -4.958430 3.208590 2.035827 0
M  V30 20 O -5.730103 3.957690 2.922121 0
M  V30 21 C -1.970151 1.165314 1.834603 0
M  V30 22 C -1.163405 0.401726 0.981673 0
M  V30 23 C 0.052171 -0.381596 1.080061 0
M  V30 24 O 0.549282 -0.417578 2.191648 0
M  V30 25 H 3.162417 -3.453852 -2.691684 0
M  V30 26 H 5.598199 -3.922628 1.653262 0
M  V30 27 H 4.231951 -2.617088 3.144126 0
M  V30 28 H 2.287296 -1.541326 2.318210 0
M  V30 29 H -0.759511 -0.669332 -2.040340 0
M  V30 30 H -3.063544 0.918257 -1.839282 0
M  V30 31 H -4.369857 2.228065 -0.181722 0
M  V30 32 H -3.557890 2.648010 3.437434 0
M  V30 33 H -6.732006 3.714189 2.892546 0
M  V30 34 H -1.684997 1.250605 2.871315 0
M  V30 END ATOM
M  V30 BEGIN BOND
M  V30 1 2 1 2
M  V30 2 1 2 3
M  V30 3 1 3 4
M  V30 4 2 4 5
M  V30 5 1 5 6
M  V30 6 1 5 7
M  V30 7 2 7 8
M  V30 8 1 8 9
M  V30 9 2 9 10
M  V30 10 1 10 11
M  V30 11 2 11 12
M  V30 12 1 12 13
M  V30 13 1 13 14
M  V30 14 2 14 15
M  V30 15 1 15 16
M  V30 16 2 16 17
M  V30 17 1 17 18
M  V30 18 2 18 19
M  V30 19 1 19 20
M  V30 20 1 17 21
M  V30 21 2 21 22
M  V30 22 1 22 23
M  V30 23 2 23 24
M  V30 24 1 11 2
M  V30 25 1 23 12
M  V30 26 1 10 4
M  V30 27 1 22 14
M  V30 28 1 3 25
M  V30 29 1 7 26
M  V30 30 1 8 27
M  V30 31 1 9 28
M  V30 32 1 13 29
M  V30 33 1 15 30
M  V30 34 1 16 31
M  V30 35 1 18 32
M  V30 36 1 20 33
M  V30 37 1 21 34
M  V30 END BOND
M  V30 END CTAB
M  END
>  <Dataset>  (931) 
ChEMBL_Kinases

>  <Ligand_Instance>  (931) 
nan

>  <PDB_ID>  (931) 
nan

>  <Standardized_SMILES>  (931) 
O=C1Nc2c(Br)cccc2/C1=C1/Nc2ccc(/C=N/O)cc2C1=O

>  <Name>  (931) 
nan

>  <Pocket>  (931) 
nan

>  <ATP_Site>  (931) 
nan

>  <Peripheral>  (931) 
nan

>  <Num_H_Atoms_ProtBoundConf>  (931) 
nan

>  <Num_Resolved_Atoms>  (931) 
nan

>  <Num_Not_Resolved_Atoms>  (931) 
nan

$$$$
CHEMBL4534959
     RDKit          3D

  0  0  0  0  0  0  0  0  0  0999 V3000
M  V30 BEGIN CTAB
M  V30 COUNTS 51 55 0 0 0
M  V30 BEGIN ATOM
M  V30 1 O -1.185804 -6.055736 2.104628 0
M  V30 2 C -1.560327 -6.104704 0.898360 0
M  V30 3 N -1.530717 -5.779598 -0.463878 0
M  V30 4 C -0.470215 -4.832496 -0.716271 0
M  V30 5 N 0.807961 -5.170952 -1.036705 0
M  V30 6 N 1.506180 -4.039951 -1.197362 0
M  V30 7 C 0.687271 -2.989748 -0.982965 0
M  V30 8 C 0.884422 -1.620200 -1.016852 0
M  V30 9 C -0.156225 -0.737182 -0.749353 0
M  V30 10 C -0.003031 0.717000 -0.771390 0
M  V30 11 C -1.073077 1.511156 -1.137200 0
M  V30 12 C -0.979290 2.893641 -1.174120 0
M  V30 13 C 0.237040 3.445714 -0.827385 0
M  V30 14 C 1.352446 2.701118 -0.450004 0
M  V30 15 N 2.566509 3.363151 -0.108641 0
M  V30 16 S 3.390289 2.806536 1.325669 0
M  V30 17 O 4.619475 3.620771 1.581158 0
M  V30 18 O 3.779682 1.366359 1.223667 0
M  V30 19 C 2.255238 3.090070 2.663255 0
M  V30 20 C 1.974910 4.577249 2.695048 0
M  V30 21 C 1.055260 5.143670 3.709334 0
M  V30 22 C 2.534741 5.279836 3.914036 0
M  V30 23 C 1.179393 1.347650 -0.438793 0
M  V30 24 C -1.405631 -1.251395 -0.445372 0
M  V30 25 C -1.664515 -2.625910 -0.396227 0
M  V30 26 C -0.585728 -3.442170 -0.672456 0
M  V30 27 C -2.498839 -7.038881 1.557746 0
M  V30 28 C -3.286959 -8.045865 0.850585 0
M  V30 29 C -3.971362 -6.731170 1.188593 0
M  V30 30 H -2.252976 -6.263345 -1.023408 0
M  V30 31 H 2.523635 -4.019381 -1.449245 0
M  V30 32 H 1.860101 -1.217770 -1.254173 0
M  V30 33 H -2.033718 1.099822 -1.412176 0
M  V30 34 H -1.797019 3.552031 -1.456109 0
M  V30 35 H 0.336839 4.521673 -0.847903 0
M  V30 36 H 2.986149 4.140288 -0.646233 0
M  V30 37 H 2.655803 2.723825 3.630957 0
M  V30 38 H 1.322447 2.516095 2.460395 0
M  V30 39 H 2.069602 5.091472 1.697835 0
M  V30 40 H 0.506286 6.069590 3.382142 0
M  V30 41 H 0.493851 4.489064 4.381516 0
M  V30 42 H 2.957584 4.672570 4.733434 0
M  V30 43 H 3.069015 6.223930 3.706037 0
M  V30 44 H 2.008444 0.713817 -0.154547 0
M  V30 45 H -2.280095 -0.619544 -0.221735 0
M  V30 46 H -2.641246 -3.009890 -0.158446 0
M  V30 47 H -2.341784 -7.146320 2.642907 0
M  V30 48 H -3.143240 -8.321596 -0.209537 0
M  V30 49 H -3.628267 -8.913263 1.457998 0
M  V30 50 H -4.714325 -6.729117 2.027081 0
M  V30 51 H -4.168482 -6.098621 0.310765 0
M  V30 END ATOM
M  V30 BEGIN BOND
M  V30 1 2 1 2
M  V30 2 1 2 3
M  V30 3 1 3 4
M  V30 4 2 4 5
M  V30 5 1 5 6
M  V30 6 1 6 7
M  V30 7 2 7 8
M  V30 8 1 8 9
M  V30 9 1 9 10
M  V30 10 2 10 11
M  V30 11 1 11 12
M  V30 12 2 12 13
M  V30 13 1 13 14
M  V30 14 1 14 15
M  V30 15 1 15 16
M  V30 16 2 16 17
M  V30 17 2 16 18
M  V30 18 1 16 19
M  V30 19 1 19 20
M  V30 20 1 20 21
M  V30 21 1 21 22
M  V30 22 2 14 23
M  V30 23 2 9 24
M  V30 24 1 24 25
M  V30 25 2 25 26
M  V30 26 1 2 27
M  V30 27 1 27 28
M  V30 28 1 28 29
M  V30 29 1 26 4
M  V30 30 1 29 27
M  V30 31 1 26 7
M  V30 32 1 23 10
M  V30 33 1 22 20
M  V30 34 1 3 30
M  V30 35 1 6 31
M  V30 36 1 8 32
M  V30 37 1 11 33
M  V30 38 1 12 34
M  V30 39 1 13 35
M  V30 40 1 15 36
M  V30 41 1 19 37
M  V30 42 1 19 38
M  V30 43 1 20 39
M  V30 44 1 21 40
M  V30 45 1 21 41
M  V30 46 1 22 42
M  V30 47 1 22 43
M  V30 48 1 23 44
M  V30 49 1 24 45
M  V30 50 1 25 46
M  V30 51 1 27 47
M  V30 52 1 28 48
M  V30 53 1 28 49
M  V30 54 1 29 50
M  V30 55 1 29 51
M  V30 END BOND
M  V30 END CTAB
M  END
>  <Dataset>  (932) 
ChEMBL_Kinases

>  <Ligand_Instance>  (932) 
nan

>  <PDB_ID>  (932) 
nan

>  <Standardized_SMILES>  (932) 
O=C(Nc1n[nH]c2cc(-c3cccc(NS(=O)(=O)CC4CC4)c3)ccc12)C1CC1

>  <Name>  (932) 
nan

>  <Pocket>  (932) 
nan

>  <ATP_Site>  (932) 
nan

>  <Peripheral>  (932) 
nan

>  <Num_H_Atoms_ProtBoundConf>  (932) 
nan

>  <Num_Resolved_Atoms>  (932) 
nan

>  <Num_Not_Resolved_Atoms>  (932) 
nan

$$$$
CHEMBL4864514
     RDKit          3D

  0  0  0  0  0  0  0  0  0  0999 V3000
M  V30 BEGIN CTAB
M  V30 COUNTS 40 43 0 0 0
M  V30 BEGIN ATOM
M  V30 1 C 0.443547 -6.508847 2.810260 0
M  V30 2 N 0.311192 -5.332502 2.011593 0
M  V30 3 C -0.471144 -5.467663 0.875152 0
M  V30 4 O -1.022000 -6.618991 0.611300 0
M  V30 5 C -1.153974 -5.032502 -0.396500 0
M  V30 6 C -0.445744 -3.792229 -0.364551 0
M  V30 7 C -0.482993 -2.717444 -1.262582 0
M  V30 8 N 0.142876 -1.456424 -1.409015 0
M  V30 9 N 1.279570 -1.452206 -2.064268 0
M  V30 10 C 1.806950 -0.214018 -2.062556 0
M  V30 11 C 0.845620 0.501269 -1.328815 0
M  V30 12 C 0.892804 1.856107 -0.986902 0
M  V30 13 C -0.164955 2.313841 -0.242520 0
M  V30 14 O -0.034186 3.654170 0.065399 0
M  V30 15 C 0.536156 3.989512 1.312684 0
M  V30 16 C 0.865276 2.921372 2.162352 0
M  V30 17 C 1.411742 2.779246 3.393978 0
M  V30 18 C 1.717929 4.045327 3.935520 0
M  V30 19 C 1.443692 5.180060 3.201928 0
M  V30 20 C 0.884707 5.196522 1.957148 0
M  V30 21 Cl 0.494162 6.552207 0.930914 0
M  V30 22 C -1.267595 1.574473 0.194869 0
M  V30 23 C -1.263502 0.218026 -0.174541 0
M  V30 24 C -0.223929 -0.280303 -0.911023 0
M  V30 25 C -1.400507 -3.055195 -2.294427 0
M  V30 26 S -1.954956 -4.649191 -1.823660 0
M  V30 27 H 1.494741 -6.846527 2.921689 0
M  V30 28 H -0.206052 -7.348374 2.508807 0
M  V30 29 H 0.126926 -6.257319 3.867455 0
M  V30 30 H 0.558189 -4.339262 1.896300 0
M  V30 31 H 0.328632 -3.259688 0.282470 0
M  V30 32 H 2.706211 0.159998 -2.498718 0
M  V30 33 H 1.725030 2.461633 -1.307837 0
M  V30 34 H 0.656290 1.883230 1.813137 0
M  V30 35 H 1.640276 1.953505 3.997285 0
M  V30 36 H 2.158701 4.264908 4.880291 0
M  V30 37 H 1.650861 6.211080 3.553252 0
M  V30 38 H -2.067035 1.984100 0.774729 0
M  V30 39 H -2.038193 -0.484213 0.086965 0
M  V30 40 H -1.721836 -2.436133 -3.211732 0
M  V30 END ATOM
M  V30 BEGIN BOND
M  V30 1 1 1 2
M  V30 2 1 2 3
M  V30 3 2 3 4
M  V30 4 1 3 5
M  V30 5 2 5 6
M  V30 6 1 6 7
M  V30 7 1 7 8
M  V30 8 1 8 9
M  V30 9 2 9 10
M  V30 10 1 10 11
M  V30 11 2 11 12
M  V30 12 1 12 13
M  V30 13 1 13 14
M  V30 14 1 14 15
M  V30 15 2 15 16
M  V30 16 1 16 17
M  V30 17 2 17 18
M  V30 18 1 18 19
M  V30 19 2 19 20
M  V30 20 1 20 21
M  V30 21 2 13 22
M  V30 22 1 22 23
M  V30 23 2 23 24
M  V30 24 2 7 25
M  V30 25 1 25 26
M  V30 26 1 26 5
M  V30 27 1 24 8
M  V30 28 1 24 11
M  V30 29 1 20 15
M  V30 30 1 1 27
M  V30 31 1 1 28
M  V30 32 1 1 29
M  V30 33 1 2 30
M  V30 34 1 6 31
M  V30 35 1 10 32
M  V30 36 1 12 33
M  V30 37 1 16 34
M  V30 38 1 17 35
M  V30 39 1 18 36
M  V30 40 1 19 37
M  V30 41 1 22 38
M  V30 42 1 23 39
M  V30 43 1 25 40
M  V30 END BOND
M  V30 END CTAB
M  END
>  <Dataset>  (933) 
ChEMBL_Kinases

>  <Ligand_Instance>  (933) 
nan

>  <PDB_ID>  (933) 
nan

>  <Standardized_SMILES>  (933) 
CNC(=O)c1cc(-n2ncc3cc(Oc4ccccc4Cl)ccc32)cs1

>  <Name>  (933) 
nan

>  <Pocket>  (933) 
nan

>  <ATP_Site>  (933) 
nan

>  <Peripheral>  (933) 
nan

>  <Num_H_Atoms_ProtBoundConf>  (933) 
nan

>  <Num_Resolved_Atoms>  (933) 
nan

>  <Num_Not_Resolved_Atoms>  (933) 
nan

$$$$
CHEMBL405130
     RDKit          3D

  0  0  0  0  0  0  0  0  0  0999 V3000
M  V30 BEGIN CTAB
M  V30 COUNTS 37 39 0 0 0
M  V30 BEGIN ATOM
M  V30 1 C -2.076512 -5.543863 0.943238 0
M  V30 2 O -1.863544 -4.274812 1.509519 0
M  V30 3 C -0.842885 -3.444131 1.128120 0
M  V30 4 C 0.108320 -3.697238 0.166696 0
M  V30 5 C 1.120663 -2.829911 -0.186750 0
M  V30 6 N 1.996960 -3.181054 -1.143123 0
M  V30 7 C 2.983062 -2.305234 -1.470202 0
M  V30 8 N 3.082047 -1.108811 -0.849446 0
M  V30 9 C 2.218597 -0.728527 0.113048 0
M  V30 10 N 2.319398 0.540455 0.775379 0
M  V30 11 C 1.618818 1.684601 0.314439 0
M  V30 12 C 1.748425 2.905366 0.950018 0
M  V30 13 C 1.074849 4.033998 0.526728 0
M  V30 14 C 0.244695 3.931614 -0.570529 0
M  V30 15 O -0.521087 4.940462 -1.157447 0
M  V30 16 C 0.117566 2.711992 -1.202822 0
M  V30 17 C 0.785046 1.552877 -0.799103 0
M  V30 18 C 1.207684 -1.600697 0.463124 0
M  V30 19 C 0.269389 -1.310790 1.435488 0
M  V30 20 C -0.726437 -2.207195 1.758067 0
M  V30 21 O -1.654059 -1.890981 2.737685 0
M  V30 22 C -1.617917 -0.660671 3.432942 0
M  V30 23 H -2.868177 -5.498094 0.135566 0
M  V30 24 H -2.519600 -6.260434 1.698393 0
M  V30 25 H -1.159524 -6.014217 0.539312 0
M  V30 26 H 0.049010 -4.648286 -0.345511 0
M  V30 27 H 3.751924 -2.461697 -2.221872 0
M  V30 28 H 2.928040 0.634122 1.627368 0
M  V30 29 H 2.386627 3.034217 1.812624 0
M  V30 30 H 1.123847 5.018529 0.970169 0
M  V30 31 H -1.541925 4.883804 -1.172270 0
M  V30 32 H -0.515469 2.543622 -2.073941 0
M  V30 33 H 0.670439 0.605391 -1.310384 0
M  V30 34 H 0.397330 -0.350101 1.890690 0
M  V30 35 H -2.049496 0.183131 2.886052 0
M  V30 36 H -0.551533 -0.377450 3.680406 0
M  V30 37 H -2.096925 -0.766413 4.451304 0
M  V30 END ATOM
M  V30 BEGIN BOND
M  V30 1 1 1 2
M  V30 2 1 2 3
M  V30 3 2 3 4
M  V30 4 1 4 5
M  V30 5 2 5 6
M  V30 6 1 6 7
M  V30 7 2 7 8
M  V30 8 1 8 9
M  V30 9 1 9 10
M  V30 10 1 10 11
M  V30 11 2 11 12
M  V30 12 1 12 13
M  V30 13 2 13 14
M  V30 14 1 14 15
M  V30 15 1 14 16
M  V30 16 2 16 17
M  V30 17 2 9 18
M  V30 18 1 18 19
M  V30 19 2 19 20
M  V30 20 1 20 21
M  V30 21 1 21 22
M  V30 22 1 20 3
M  V30 23 1 18 5
M  V30 24 1 17 11
M  V30 25 1 1 23
M  V30 26 1 1 24
M  V30 27 1 1 25
M  V30 28 1 4 26
M  V30 29 1 7 27
M  V30 30 1 10 28
M  V30 31 1 12 29
M  V30 32 1 13 30
M  V30 33 1 15 31
M  V30 34 1 16 32
M  V30 35 1 17 33
M  V30 36 1 19 34
M  V30 37 1 22 35
M  V30 38 1 22 36
M  V30 39 1 22 37
M  V30 END BOND
M  V30 END CTAB
M  END
>  <Dataset>  (934) 
ChEMBL_Kinases

>  <Ligand_Instance>  (934) 
nan

>  <PDB_ID>  (934) 
nan

>  <Standardized_SMILES>  (934) 
COc1cc2ncnc(Nc3ccc(O)cc3)c2cc1OC

>  <Name>  (934) 
WHI-P131

>  <Pocket>  (934) 
nan

>  <ATP_Site>  (934) 
nan

>  <Peripheral>  (934) 
nan

>  <Num_H_Atoms_ProtBoundConf>  (934) 
nan

>  <Num_Resolved_Atoms>  (934) 
nan

>  <Num_Not_Resolved_Atoms>  (934) 
nan

$$$$
CHEMBL4562323
     RDKit          3D

  0  0  0  0  0  0  0  0  0  0999 V3000
M  V30 BEGIN CTAB
M  V30 COUNTS 60 64 0 0 0
M  V30 BEGIN ATOM
M  V30 1 C 0.807834 0.300459 5.255482 0
M  V30 2 C 2.056321 -0.313400 4.634694 0
M  V30 3 C 1.918379 -1.795173 4.636689 0
M  V30 4 C 2.133168 0.214515 3.225819 0
M  V30 5 C 2.748772 1.404298 2.886851 0
M  V30 6 N 2.558068 1.470193 1.537899 0
M  V30 7 N 1.898179 0.425689 1.134504 0
M  V30 8 C 1.516372 0.121769 -0.117773 0
M  V30 9 N 1.696139 0.896643 -1.303361 0
M  V30 10 C 1.346463 2.289770 -1.411521 0
M  V30 11 C -0.012392 2.601322 -0.917979 0
M  V30 12 C -0.129522 3.324751 0.281084 0
M  V30 13 C -1.307472 3.713872 0.870957 0
M  V30 14 C -2.495316 3.386224 0.268218 0
M  V30 15 C -2.416537 2.676752 -0.910286 0
M  V30 16 C -1.216369 2.277838 -1.517168 0
M  V30 17 N -1.190604 1.529042 -2.721366 0
M  V30 18 C -1.967022 0.393684 -2.631465 0
M  V30 19 C -1.913858 -0.307558 -3.836566 0
M  V30 20 C -1.077704 0.461870 -4.629311 0
M  V30 21 N -0.664935 1.552487 -3.926568 0
M  V30 22 N 0.840807 -1.035113 -0.277069 0
M  V30 23 C 0.520815 -1.898576 0.692422 0
M  V30 24 O -0.154741 -2.952540 0.160912 0
M  V30 25 C -0.732773 -4.066433 0.745304 0
M  V30 26 C -2.143272 -4.213654 0.211347 0
M  V30 27 C -1.989102 -4.457213 -1.284917 0
M  V30 28 C -1.206545 -5.715573 -1.522195 0
M  V30 29 N -0.014543 -5.874705 -0.779882 0
M  V30 30 C 0.067961 -5.337059 0.521924 0
M  V30 31 N 0.908698 -1.587837 1.962057 0
M  V30 32 C 1.579494 -0.438448 2.125141 0
M  V30 33 H 0.086077 -0.460583 5.578489 0
M  V30 34 H 0.250695 0.919097 4.495761 0
M  V30 35 H 1.084982 0.971862 6.084304 0
M  V30 36 H 2.969276 -0.025595 5.193759 0
M  V30 37 H 2.647271 -2.309808 3.962069 0
M  V30 38 H 2.158114 -2.175752 5.656119 0
M  V30 39 H 0.858631 -2.119632 4.450918 0
M  V30 40 H 3.250084 2.091634 3.536315 0
M  V30 41 H 2.116022 0.350453 -2.115733 0
M  V30 42 H 2.075801 2.851710 -0.810094 0
M  V30 43 H 1.480719 2.643908 -2.476994 0
M  V30 44 H 0.778944 3.625523 0.829441 0
M  V30 45 H -1.324534 4.276825 1.802677 0
M  V30 46 H -3.466484 3.635308 0.625909 0
M  V30 47 H -3.322430 2.372230 -1.463375 0
M  V30 48 H -2.600487 -0.067731 -1.856863 0
M  V30 49 H -2.381061 -1.227714 -4.157525 0
M  V30 50 H -0.740325 0.319591 -5.644582 0
M  V30 51 H -0.781425 -3.938038 1.836716 0
M  V30 52 H -2.739477 -4.982469 0.694500 0
M  V30 53 H -2.652460 -3.236020 0.324182 0
M  V30 54 H -3.005120 -4.599065 -1.696517 0
M  V30 55 H -1.561089 -3.558057 -1.775341 0
M  V30 56 H -1.933268 -6.560968 -1.375041 0
M  V30 57 H -0.965543 -5.761288 -2.612709 0
M  V30 58 H 0.805656 -6.278439 -1.218619 0
M  V30 59 H -0.238642 -6.078501 1.276077 0
M  V30 60 H 1.141985 -5.071340 0.757148 0
M  V30 END ATOM
M  V30 BEGIN BOND
M  V30 1 1 1 2
M  V30 2 1 2 3
M  V30 3 1 2 4
M  V30 4 1 4 5
M  V30 5 2 5 6
M  V30 6 1 6 7
M  V30 7 1 7 8
M  V30 8 1 8 9
M  V30 9 1 9 10
M  V30 10 1 10 11
M  V30 11 2 11 12
M  V30 12 1 12 13
M  V30 13 2 13 14
M  V30 14 1 14 15
M  V30 15 2 15 16
M  V30 16 1 16 17
M  V30 17 1 17 18
M  V30 18 2 18 19
M  V30 19 1 19 20
M  V30 20 2 20 21
M  V30 21 2 8 22
M  V30 22 1 22 23
M  V30 23 1 23 24
M  V30 24 1 24 25
M  V30 25 1 25 26
M  V30 26 1 26 27
M  V30 27 1 27 28
M  V30 28 1 28 29
M  V30 29 1 29 30
M  V30 30 2 23 31
M  V30 31 1 31 32
M  V30 32 2 32 4
M  V30 33 1 32 7
M  V30 34 1 16 11
M  V30 35 1 21 17
M  V30 36 1 30 25
M  V30 37 1 1 33
M  V30 38 1 1 34
M  V30 39 1 1 35
M  V30 40 1 2 36
M  V30 41 1 3 37
M  V30 42 1 3 38
M  V30 43 1 3 39
M  V30 44 1 5 40
M  V30 45 1 9 41
M  V30 46 1 10 42
M  V30 47 1 10 43
M  V30 48 1 12 44
M  V30 49 1 13 45
M  V30 50 1 14 46
M  V30 51 1 15 47
M  V30 52 1 18 48
M  V30 53 1 19 49
M  V30 54 1 20 50
M  V30 55 1 25 51
M  V30 56 1 26 52
M  V30 57 1 26 53
M  V30 58 1 27 54
M  V30 59 1 27 55
M  V30 60 1 28 56
M  V30 61 1 28 57
M  V30 62 1 29 58
M  V30 63 1 30 59
M  V30 64 1 30 60
M  V30 END BOND
M  V30 END CTAB
M  END
>  <Dataset>  (935) 
ChEMBL_Kinases

>  <Ligand_Instance>  (935) 
nan

>  <PDB_ID>  (935) 
nan

>  <Standardized_SMILES>  (935) 
CC(C)c1cnn2c(NCc3ccccc3-n3cccn3)nc(OC3CCCNC3)nc12

>  <Name>  (935) 
nan

>  <Pocket>  (935) 
nan

>  <ATP_Site>  (935) 
nan

>  <Peripheral>  (935) 
nan

>  <Num_H_Atoms_ProtBoundConf>  (935) 
nan

>  <Num_Resolved_Atoms>  (935) 
nan

>  <Num_Not_Resolved_Atoms>  (935) 
nan

$$$$
CHEMBL4561238
     RDKit          3D

  0  0  0  0  0  0  0  0  0  0999 V3000
M  V30 BEGIN CTAB
M  V30 COUNTS 55 58 0 0 0
M  V30 BEGIN ATOM
M  V30 1 C -3.000963 5.603799 -2.508690 0
M  V30 2 N -2.643468 4.443765 -3.270331 0
M  V30 3 C -2.864227 4.533971 -4.677437 0
M  V30 4 C -4.170026 5.179456 -5.075292 0
M  V30 5 F -5.259002 4.495641 -4.583306 0
M  V30 6 F -4.247603 5.070036 -6.465488 0
M  V30 7 F -4.222681 6.528162 -4.814596 0
M  V30 8 S -3.246497 2.989872 -2.570306 0
M  V30 9 O -3.469961 2.011063 -3.687628 0
M  V30 10 O -4.527524 3.328032 -1.870547 0
M  V30 11 N -2.080758 2.363766 -1.468689 0
M  V30 12 C -0.853900 2.049012 -2.176114 0
M  V30 13 C 0.114158 1.509410 -1.154312 0
M  V30 14 C 0.955586 2.379435 -0.488773 0
M  V30 15 C 1.877030 1.994562 0.463814 0
M  V30 16 C 1.951048 0.629186 0.763577 0
M  V30 17 C 1.104185 -0.229839 0.090936 0
M  V30 18 C 1.243777 -1.639279 0.463249 0
M  V30 19 C 2.481445 -2.125611 0.850956 0
M  V30 20 C 2.621771 -3.458080 1.204994 0
M  V30 21 C 1.507076 -4.273225 1.160015 0
M  V30 22 C 1.335843 -5.615057 1.449021 0
M  V30 23 N 2.376857 -6.511245 1.894686 0
M  V30 24 C 2.435201 -6.490607 3.311252 0
M  V30 25 O 1.614604 -5.735203 3.929992 0
M  V30 26 C 3.373089 -7.275915 4.131110 0
M  V30 27 C 3.710707 -6.897442 5.518208 0
M  V30 28 C 2.702614 -7.965772 5.325268 0
M  V30 29 N 0.045863 -5.940713 1.247163 0
M  V30 30 N -0.634365 -4.865755 0.837618 0
M  V30 31 C 0.246663 -3.837536 0.779550 0
M  V30 32 C 0.145724 -2.502103 0.433377 0
M  V30 33 C 0.182987 0.153869 -0.861251 0
M  V30 34 H -4.040696 5.934807 -2.606330 0
M  V30 35 H -2.895642 5.298497 -1.426093 0
M  V30 36 H -2.247482 6.426722 -2.607561 0
M  V30 37 H -2.069259 5.132425 -5.200787 0
M  V30 38 H -2.852993 3.524548 -5.109721 0
M  V30 39 H -2.418767 1.623266 -0.848758 0
M  V30 40 H -1.028016 1.299375 -2.973224 0
M  V30 41 H -0.448870 3.009194 -2.528682 0
M  V30 42 H 0.866322 3.427567 -0.750005 0
M  V30 43 H 2.525419 2.689369 0.972369 0
M  V30 44 H 2.662148 0.292397 1.505142 0
M  V30 45 H 3.367932 -1.522665 0.897840 0
M  V30 46 H 3.588193 -3.882025 1.518481 0
M  V30 47 H 3.062301 -7.141035 1.423079 0
M  V30 48 H 4.073176 -7.924786 3.570187 0
M  V30 49 H 4.682438 -7.135539 5.948031 0
M  V30 50 H 3.286336 -5.923258 5.899138 0
M  V30 51 H 3.042655 -8.987792 5.581835 0
M  V30 52 H 1.652409 -7.760892 5.527341 0
M  V30 53 H -1.648796 -4.783834 0.596653 0
M  V30 54 H -0.806732 -2.116484 0.132227 0
M  V30 55 H -0.462527 -0.546580 -1.366335 0
M  V30 END ATOM
M  V30 BEGIN BOND
M  V30 1 1 1 2
M  V30 2 1 2 3
M  V30 3 1 3 4
M  V30 4 1 4 5
M  V30 5 1 4 6
M  V30 6 1 4 7
M  V30 7 1 2 8
M  V30 8 2 8 9
M  V30 9 2 8 10
M  V30 10 1 8 11
M  V30 11 1 11 12
M  V30 12 1 12 13
M  V30 13 2 13 14
M  V30 14 1 14 15
M  V30 15 2 15 16
M  V30 16 1 16 17
M  V30 17 1 17 18
M  V30 18 2 18 19
M  V30 19 1 19 20
M  V30 20 2 20 21
M  V30 21 1 21 22
M  V30 22 1 22 23
M  V30 23 1 23 24
M  V30 24 2 24 25
M  V30 25 1 24 26
M  V30 26 1 26 27
M  V30 27 1 27 28
M  V30 28 2 22 29
M  V30 29 1 29 30
M  V30 30 1 30 31
M  V30 31 2 31 32
M  V30 32 2 17 33
M  V30 33 1 33 13
M  V30 34 1 32 18
M  V30 35 1 31 21
M  V30 36 1 28 26
M  V30 37 1 1 34
M  V30 38 1 1 35
M  V30 39 1 1 36
M  V30 40 1 3 37
M  V30 41 1 3 38
M  V30 42 1 11 39
M  V30 43 1 12 40
M  V30 44 1 12 41
M  V30 45 1 14 42
M  V30 46 1 15 43
M  V30 47 1 16 44
M  V30 48 1 19 45
M  V30 49 1 20 46
M  V30 50 1 23 47
M  V30 51 1 26 48
M  V30 52 1 27 49
M  V30 53 1 27 50
M  V30 54 1 28 51
M  V30 55 1 28 52
M  V30 56 1 30 53
M  V30 57 1 32 54
M  V30 58 1 33 55
M  V30 END BOND
M  V30 END CTAB
M  END
>  <Dataset>  (936) 
ChEMBL_Kinases

>  <Ligand_Instance>  (936) 
nan

>  <PDB_ID>  (936) 
nan

>  <Standardized_SMILES>  (936) 
CN(CC(F)(F)F)S(=O)(=O)NCc1cccc(-c2ccc3c(NC(=O)C4CC4)n[nH]c3c2)c1

>  <Name>  (936) 
nan

>  <Pocket>  (936) 
nan

>  <ATP_Site>  (936) 
nan

>  <Peripheral>  (936) 
nan

>  <Num_H_Atoms_ProtBoundConf>  (936) 
nan

>  <Num_Resolved_Atoms>  (936) 
nan

>  <Num_Not_Resolved_Atoms>  (936) 
nan

$$$$
CHEMBL4553949
     RDKit          3D

  0  0  0  0  0  0  0  0  0  0999 V3000
M  V30 BEGIN CTAB
M  V30 COUNTS 62 66 0 0 0
M  V30 BEGIN ATOM
M  V30 1 C 2.119976 -1.332494 7.128304 0
M  V30 2 C 2.959119 -1.531911 5.901251 0
M  V30 3 N 3.979060 -2.294927 5.476731 0
M  V30 4 O 4.263403 -1.983431 4.262594 0
M  V30 5 C 3.489403 -1.026714 3.795250 0
M  V30 6 C 3.452668 -0.375481 2.499229 0
M  V30 7 C 4.276990 -0.704393 1.452590 0
M  V30 8 C 4.167262 -0.041572 0.241039 0
M  V30 9 C 3.224772 0.965316 0.058809 0
M  V30 10 N 2.909835 1.737263 -0.974615 0
M  V30 11 C 1.891997 2.577889 -0.645314 0
M  V30 12 N 1.122355 3.581373 -1.297202 0
M  V30 13 C -0.278612 3.314241 -1.529022 0
M  V30 14 C -0.867644 2.147227 -1.116713 0
M  V30 15 C -2.184834 1.782477 -1.265422 0
M  V30 16 C -2.589857 0.465822 -0.725319 0 CFG=1
M  V30 17 C -4.083075 0.275829 -0.621113 0
M  V30 18 N -1.830321 -0.572261 -1.235018 0
M  V30 19 C -2.193738 -1.196141 -2.465060 0
M  V30 20 C -2.547802 -2.661108 -2.250404 0
M  V30 21 N -1.770980 -3.227466 -1.162603 0
M  V30 22 C -2.173430 -4.503794 -0.631604 0
M  V30 23 O -3.161764 -4.686091 -1.378573 0
M  V30 24 C -1.386581 -5.098872 0.476341 0
M  V30 25 C -1.899829 -6.438763 0.925105 0
M  V30 26 F -1.893293 -7.388237 -0.082579 0
M  V30 27 F -1.074074 -6.833995 1.991222 0
M  V30 28 F -3.178980 -6.236784 1.413350 0
M  V30 29 C -0.630716 -2.578964 -0.599879 0
M  V30 30 C -0.687824 -1.070604 -0.597247 0
M  V30 31 C -2.986121 2.728627 -1.914454 0
M  V30 32 C -2.419012 3.913289 -2.341355 0
M  V30 33 N -1.114698 4.167554 -2.143222 0
M  V30 34 N 1.574257 2.302899 0.654159 0
M  V30 35 C 2.375794 1.321204 1.102144 0
M  V30 36 C 2.536531 0.625573 2.278923 0
M  V30 37 N 2.686473 -0.764420 4.840188 0
M  V30 38 H 2.239189 -2.222523 7.778667 0
M  V30 39 H 2.406772 -0.393937 7.618925 0
M  V30 40 H 1.038614 -1.248815 6.828021 0
M  V30 41 H 5.006944 -1.494867 1.617567 0
M  V30 42 H 4.803105 -0.288452 -0.590084 0
M  V30 43 H 1.443688 4.512005 -1.641508 0
M  V30 44 H -0.191847 1.475026 -0.620963 0
M  V30 45 H -2.282589 0.555095 0.390018 0
M  V30 46 H -4.280249 -0.541854 0.080286 0
M  V30 47 H -4.494534 1.189784 -0.139169 0
M  V30 48 H -4.580054 0.189766 -1.583644 0
M  V30 49 H -1.316815 -1.180446 -3.142418 0
M  V30 50 H -2.995073 -0.623667 -2.943360 0
M  V30 51 H -3.627607 -2.728710 -2.015375 0
M  V30 52 H -2.371139 -3.259030 -3.162770 0
M  V30 53 H -1.447904 -4.426827 1.370745 0
M  V30 54 H -0.309671 -5.135587 0.171264 0
M  V30 55 H -0.535414 -2.883860 0.462939 0
M  V30 56 H 0.332335 -2.935274 -1.069042 0
M  V30 57 H 0.218393 -0.735331 -1.187899 0
M  V30 58 H -0.582723 -0.644739 0.398445 0
M  V30 59 H -4.024948 2.428980 -2.028104 0
M  V30 60 H -3.067172 4.614420 -2.832592 0
M  V30 61 H 0.862824 2.702555 1.307122 0
M  V30 62 H 1.877986 0.895891 3.096128 0
M  V30 END ATOM
M  V30 BEGIN BOND
M  V30 1 1 1 2
M  V30 2 2 2 3
M  V30 3 1 3 4
M  V30 4 1 4 5
M  V30 5 1 5 6
M  V30 6 2 6 7
M  V30 7 1 7 8
M  V30 8 2 8 9
M  V30 9 1 9 10
M  V30 10 2 10 11
M  V30 11 1 11 12
M  V30 12 1 12 13
M  V30 13 2 13 14
M  V30 14 1 14 15
M  V30 15 1 15 16
M  V30 16 1 16 17
M  V30 17 1 16 18
M  V30 18 1 18 19
M  V30 19 1 19 20
M  V30 20 1 20 21
M  V30 21 1 21 22
M  V30 22 2 22 23
M  V30 23 1 22 24
M  V30 24 1 24 25
M  V30 25 1 25 26
M  V30 26 1 25 27
M  V30 27 1 25 28
M  V30 28 1 21 29
M  V30 29 1 29 30
M  V30 30 2 15 31
M  V30 31 1 31 32
M  V30 32 2 32 33
M  V30 33 1 11 34
M  V30 34 1 34 35
M  V30 35 2 35 36
M  V30 36 2 5 37
M  V30 37 1 37 2
M  V30 38 1 36 6
M  V30 39 1 35 9
M  V30 40 1 33 13
M  V30 41 1 30 18
M  V30 42 1 1 38
M  V30 43 1 1 39
M  V30 44 1 1 40
M  V30 45 1 7 41
M  V30 46 1 8 42
M  V30 47 1 12 43
M  V30 48 1 14 44
M  V30 49 1 16 45 CFG=1
M  V30 50 1 17 46
M  V30 51 1 17 47
M  V30 52 1 17 48
M  V30 53 1 19 49
M  V30 54 1 19 50
M  V30 55 1 20 51
M  V30 56 1 20 52
M  V30 57 1 24 53
M  V30 58 1 24 54
M  V30 59 1 29 55
M  V30 60 1 29 56
M  V30 61 1 30 57
M  V30 62 1 30 58
M  V30 63 1 31 59
M  V30 64 1 32 60
M  V30 65 1 34 61
M  V30 66 1 36 62
M  V30 END BOND
M  V30 END CTAB
M  END
>  <Dataset>  (937) 
ChEMBL_Kinases

>  <Ligand_Instance>  (937) 
nan

>  <PDB_ID>  (937) 
nan

>  <Standardized_SMILES>  (937) 
Cc1noc(-c2ccc3nc(Nc4cc([C@@H](C)N5CCN(C(=O)CC(F)(F)F)CC5)ccn4)[nH]c3c2)n1

>  <Name>  (937) 
nan

>  <Pocket>  (937) 
nan

>  <ATP_Site>  (937) 
nan

>  <Peripheral>  (937) 
nan

>  <Num_H_Atoms_ProtBoundConf>  (937) 
nan

>  <Num_Resolved_Atoms>  (937) 
nan

>  <Num_Not_Resolved_Atoms>  (937) 
nan

$$$$
CHEMBL4552310
     RDKit          3D

  0  0  0  0  0  0  0  0  0  0999 V3000
M  V30 BEGIN CTAB
M  V30 COUNTS 50 53 0 0 0
M  V30 BEGIN ATOM
M  V30 1 C 3.592792 -2.589301 5.367077 0
M  V30 2 C 4.347081 -2.625597 4.079882 0
M  V30 3 C 5.260484 -1.413620 3.882261 0
M  V30 4 S 6.104179 -1.570758 2.318101 0
M  V30 5 O 6.990930 -0.364635 2.160044 0
M  V30 6 O 6.913944 -2.813190 2.306641 0
M  V30 7 N 4.965842 -1.642198 1.009462 0
M  V30 8 C 4.056125 -0.595628 0.694218 0
M  V30 9 C 4.422505 0.731796 0.645089 0
M  V30 10 C 3.554118 1.759775 0.340648 0
M  V30 11 C 2.221369 1.462710 0.062462 0
M  V30 12 C 1.796052 0.141635 0.097275 0
M  V30 13 C 0.401198 -0.210365 -0.189785 0
M  V30 14 C -0.589491 0.708133 0.160005 0
M  V30 15 C -1.939787 0.460161 -0.073698 0
M  V30 16 C -2.251510 -0.744328 -0.671052 0
M  V30 17 C -3.492421 -1.241540 -1.013062 0
M  V30 18 N -4.805190 -0.714236 -0.875690 0
M  V30 19 C -5.586838 0.079742 -1.736229 0
M  V30 20 O -5.101975 0.432172 -2.861650 0
M  V30 21 C -6.952994 0.495156 -1.331079 0
M  V30 22 C -7.301752 1.919066 -1.780775 0
M  V30 23 C -8.012660 0.693482 -2.346880 0
M  V30 24 N -3.253184 -2.458567 -1.568912 0
M  V30 25 N -1.936945 -2.706317 -1.573228 0
M  V30 26 C -1.277305 -1.656677 -1.019441 0
M  V30 27 C 0.060833 -1.408077 -0.786441 0
M  V30 28 C 2.719793 -0.836620 0.409478 0
M  V30 29 H 3.537507 -1.570361 5.794443 0
M  V30 30 H 4.015545 -3.254274 6.157019 0
M  V30 31 H 2.529607 -2.917085 5.264583 0
M  V30 32 H 3.643344 -2.675032 3.211622 0
M  V30 33 H 5.038675 -3.515103 4.053686 0
M  V30 34 H 4.730758 -0.458153 3.972797 0
M  V30 35 H 6.042299 -1.486672 4.667948 0
M  V30 36 H 4.864587 -2.469582 0.349405 0
M  V30 37 H 5.472670 0.981412 0.862725 0
M  V30 38 H 3.878086 2.804959 0.310278 0
M  V30 39 H 1.504585 2.234519 -0.181172 0
M  V30 40 H -0.287398 1.650523 0.632626 0
M  V30 41 H -2.718654 1.163581 0.192565 0
M  V30 42 H -5.238557 -0.990450 0.053439 0
M  V30 43 H -7.293622 0.151475 -0.344577 0
M  V30 44 H -7.811452 2.533458 -1.020436 0
M  V30 45 H -6.663337 2.406348 -2.514890 0
M  V30 46 H -7.876168 0.407660 -3.394144 0
M  V30 47 H -9.060304 0.629958 -2.021152 0
M  V30 48 H -1.481005 -3.586807 -1.950896 0
M  V30 49 H 0.831432 -2.116278 -1.055405 0
M  V30 50 H 2.337733 -1.857709 0.424081 0
M  V30 END ATOM
M  V30 BEGIN BOND
M  V30 1 1 1 2
M  V30 2 1 2 3
M  V30 3 1 3 4
M  V30 4 2 4 5
M  V30 5 2 4 6
M  V30 6 1 4 7
M  V30 7 1 7 8
M  V30 8 2 8 9
M  V30 9 1 9 10
M  V30 10 2 10 11
M  V30 11 1 11 12
M  V30 12 1 12 13
M  V30 13 2 13 14
M  V30 14 1 14 15
M  V30 15 2 15 16
M  V30 16 1 16 17
M  V30 17 1 17 18
M  V30 18 1 18 19
M  V30 19 2 19 20
M  V30 20 1 19 21
M  V30 21 1 21 22
M  V30 22 1 22 23
M  V30 23 2 17 24
M  V30 24 1 24 25
M  V30 25 1 25 26
M  V30 26 2 26 27
M  V30 27 2 12 28
M  V30 28 1 28 8
M  V30 29 1 27 13
M  V30 30 1 26 16
M  V30 31 1 23 21
M  V30 32 1 1 29
M  V30 33 1 1 30
M  V30 34 1 1 31
M  V30 35 1 2 32
M  V30 36 1 2 33
M  V30 37 1 3 34
M  V30 38 1 3 35
M  V30 39 1 7 36
M  V30 40 1 9 37
M  V30 41 1 10 38
M  V30 42 1 11 39
M  V30 43 1 14 40
M  V30 44 1 15 41
M  V30 45 1 18 42
M  V30 46 1 21 43
M  V30 47 1 22 44
M  V30 48 1 22 45
M  V30 49 1 23 46
M  V30 50 1 23 47
M  V30 51 1 25 48
M  V30 52 1 27 49
M  V30 53 1 28 50
M  V30 END BOND
M  V30 END CTAB
M  END
>  <Dataset>  (938) 
ChEMBL_Kinases

>  <Ligand_Instance>  (938) 
nan

>  <PDB_ID>  (938) 
nan

>  <Standardized_SMILES>  (938) 
CCCS(=O)(=O)Nc1cccc(-c2ccc3c(NC(=O)C4CC4)n[nH]c3c2)c1

>  <Name>  (938) 
nan

>  <Pocket>  (938) 
nan

>  <ATP_Site>  (938) 
nan

>  <Peripheral>  (938) 
nan

>  <Num_H_Atoms_ProtBoundConf>  (938) 
nan

>  <Num_Resolved_Atoms>  (938) 
nan

>  <Num_Not_Resolved_Atoms>  (938) 
nan

$$$$
CHEMBL208637
     RDKit          3D

  0  0  0  0  0  0  0  0  0  0999 V3000
M  V30 BEGIN CTAB
M  V30 COUNTS 28 28 0 0 0
M  V30 BEGIN ATOM
M  V30 1 C -2.356197 -0.821180 2.400225 0
M  V30 2 C -1.520475 -0.031557 3.394395 0
M  V30 3 O -0.752172 0.985229 2.732406 0
M  V30 4 C 0.175100 0.637952 1.758317 0
M  V30 5 N 0.367273 -0.642062 1.422059 0
M  V30 6 C 1.250377 -1.046728 0.486140 0
M  V30 7 N 1.346551 -2.444910 0.233577 0
M  V30 8 C 0.496784 -2.989978 -0.768876 0
M  V30 9 C 0.380227 -4.402616 -1.241809 0
M  V30 10 O -0.318087 -2.268553 -1.418245 0
M  V30 11 C 2.031432 -0.127333 -0.199540 0
M  V30 12 C 1.840615 1.194317 0.139981 0
M  V30 13 N 2.597982 2.210033 -0.511088 0
M  V30 14 C 0.930878 1.586631 1.101393 0
M  V30 15 C 0.714159 2.956023 1.472351 0
M  V30 16 N 0.552554 4.059973 1.754968 0
M  V30 17 H -1.913781 -1.828738 2.223442 0
M  V30 18 H -2.457132 -0.304849 1.439611 0
M  V30 19 H -3.366042 -1.017727 2.827165 0
M  V30 20 H -2.179893 0.428315 4.133385 0
M  V30 21 H -0.796043 -0.708086 3.885171 0
M  V30 22 H 1.951395 -3.209647 0.658096 0
M  V30 23 H 0.682070 -4.469116 -2.286645 0
M  V30 24 H 0.927465 -5.084593 -0.562913 0
M  V30 25 H -0.699604 -4.725267 -1.192491 0
M  V30 26 H 2.740969 -0.453016 -0.951564 0
M  V30 27 H 2.114255 2.476144 -1.410993 0
M  V30 28 H 3.464946 2.788355 -0.415909 0
M  V30 END ATOM
M  V30 BEGIN BOND
M  V30 1 1 1 2
M  V30 2 1 2 3
M  V30 3 1 3 4
M  V30 4 2 4 5
M  V30 5 1 5 6
M  V30 6 1 6 7
M  V30 7 1 7 8
M  V30 8 1 8 9
M  V30 9 2 8 10
M  V30 10 2 6 11
M  V30 11 1 11 12
M  V30 12 1 12 13
M  V30 13 2 12 14
M  V30 14 1 14 15
M  V30 15 3 15 16
M  V30 16 1 14 4
M  V30 17 1 1 17
M  V30 18 1 1 18
M  V30 19 1 1 19
M  V30 20 1 2 20
M  V30 21 1 2 21
M  V30 22 1 7 22
M  V30 23 1 9 23
M  V30 24 1 9 24
M  V30 25 1 9 25
M  V30 26 1 11 26
M  V30 27 1 13 27
M  V30 28 1 13 28
M  V30 END BOND
M  V30 END CTAB
M  END
>  <Dataset>  (939) 
ChEMBL_Kinases

>  <Ligand_Instance>  (939) 
nan

>  <PDB_ID>  (939) 
nan

>  <Standardized_SMILES>  (939) 
CCOc1nc(NC(C)=O)cc(N)c1C#N

>  <Name>  (939) 
nan

>  <Pocket>  (939) 
nan

>  <ATP_Site>  (939) 
nan

>  <Peripheral>  (939) 
nan

>  <Num_H_Atoms_ProtBoundConf>  (939) 
nan

>  <Num_Resolved_Atoms>  (939) 
nan

>  <Num_Not_Resolved_Atoms>  (939) 
nan

$$$$
CHEMBL4062568
     RDKit          3D

  0  0  0  0  0  0  0  0  0  0999 V3000
M  V30 BEGIN CTAB
M  V30 COUNTS 31 33 0 0 0
M  V30 BEGIN ATOM
M  V30 1 C -1.489471 -1.416196 3.604908 0
M  V30 2 O -1.067534 -2.741132 3.324743 0
M  V30 3 C -0.258609 -3.056953 2.252202 0
M  V30 4 C 0.116787 -4.385377 2.038945 0
M  V30 5 C 0.927343 -4.604787 0.940880 0
M  V30 6 C 1.313829 -3.536930 0.135087 0
M  V30 7 N 2.092929 -3.539851 -0.970425 0
M  V30 8 C 2.210466 -2.273526 -1.442110 0
M  V30 9 C 1.466807 -1.509850 -0.570029 0
M  V30 10 C 1.277915 -0.064073 -0.649828 0
M  V30 11 C 1.882821 0.658717 -1.682781 0
M  V30 12 C 1.693953 2.023230 -1.743095 0
M  V30 13 N 0.937357 2.688889 -0.829011 0
M  V30 14 C 0.355264 1.968094 0.171066 0
M  V30 15 S -0.625132 2.792875 1.364620 0 CHG=1 VAL=3
M  V30 16 C -2.324067 2.844015 0.812647 0
M  V30 17 O -0.582536 1.992476 2.844314 0 CHG=-1 VAL=1
M  V30 18 N 0.539241 0.636726 0.230350 0
M  V30 19 N 0.919141 -2.275731 0.391919 0
M  V30 20 N 0.143414 -2.041284 1.436912 0
M  V30 21 H -0.848037 -0.741667 2.979848 0
M  V30 22 H -2.556825 -1.234284 3.387543 0
M  V30 23 H -1.317801 -1.128089 4.661908 0
M  V30 24 H -0.224758 -5.166559 2.711917 0
M  V30 25 H 1.239096 -5.639190 0.747211 0
M  V30 26 H 2.767348 -1.973189 -2.305088 0
M  V30 27 H 2.479999 0.123089 -2.401811 0
M  V30 28 H 2.167807 2.595182 -2.553647 0
M  V30 29 H -3.003840 2.474472 1.607919 0
M  V30 30 H -2.453316 2.157079 -0.053931 0
M  V30 31 H -2.624956 3.849511 0.472281 0
M  V30 END ATOM
M  V30 BEGIN BOND
M  V30 1 1 1 2
M  V30 2 1 2 3
M  V30 3 1 3 4
M  V30 4 2 4 5
M  V30 5 1 5 6
M  V30 6 2 6 7
M  V30 7 1 7 8
M  V30 8 2 8 9
M  V30 9 1 9 10
M  V30 10 2 10 11
M  V30 11 1 11 12
M  V30 12 2 12 13
M  V30 13 1 13 14
M  V30 14 1 14 15
M  V30 15 1 15 16
M  V30 16 1 15 17
M  V30 17 2 14 18
M  V30 18 1 9 19
M  V30 19 1 19 20
M  V30 20 2 20 3
M  V30 21 1 19 6
M  V30 22 1 18 10
M  V30 23 1 1 21
M  V30 24 1 1 22
M  V30 25 1 1 23
M  V30 26 1 4 24
M  V30 27 1 5 25
M  V30 28 1 8 26
M  V30 29 1 11 27
M  V30 30 1 12 28
M  V30 31 1 16 29
M  V30 32 1 16 30
M  V30 33 1 16 31
M  V30 END BOND
M  V30 END CTAB
M  END
>  <Dataset>  (940) 
ChEMBL_Kinases

>  <Ligand_Instance>  (940) 
nan

>  <PDB_ID>  (940) 
nan

>  <Standardized_SMILES>  (940) 
COc1ccc2ncc(-c3ccnc([S+](C)[O-])n3)n2n1

>  <Name>  (940) 
nan

>  <Pocket>  (940) 
nan

>  <ATP_Site>  (940) 
nan

>  <Peripheral>  (940) 
nan

>  <Num_H_Atoms_ProtBoundConf>  (940) 
nan

>  <Num_Resolved_Atoms>  (940) 
nan

>  <Num_Not_Resolved_Atoms>  (940) 
nan

$$$$
CHEMBL4065690
     RDKit          3D

  0  0  0  0  0  0  0  0  0  0999 V3000
M  V30 BEGIN CTAB
M  V30 COUNTS 53 56 0 0 0
M  V30 BEGIN ATOM
M  V30 1 C 2.867953 0.727674 -0.841574 0
M  V30 2 C 3.121590 1.647119 0.293275 0
M  V30 3 C 4.398437 1.765296 0.855903 0
M  V30 4 C 5.630153 1.068322 0.474220 0
M  V30 5 C 6.467044 0.517286 1.443665 0
M  V30 6 C 7.641953 -0.148317 1.089182 0
M  V30 7 N 7.957526 -0.250911 -0.211100 0
M  V30 8 C 7.150108 0.281756 -1.164301 0
M  V30 9 C 5.979902 0.947534 -0.856166 0
M  V30 10 N 4.243973 2.669882 1.836092 0
M  V30 11 N 2.998707 3.105580 1.915676 0
M  V30 12 C 2.252119 2.500127 0.974992 0
M  V30 13 C 0.826320 2.534299 0.536559 0
M  V30 14 N 0.071784 1.397510 0.975907 0
M  V30 15 C -1.299523 1.238569 0.630065 0
M  V30 16 C -1.916757 2.194663 -0.150159 0
M  V30 17 C -3.259665 2.001090 -0.469160 0
M  V30 18 C -3.932157 0.877450 -0.006631 0
M  V30 19 C -3.320158 -0.081818 0.774193 0
M  V30 20 C -4.111011 -1.228123 1.212037 0
M  V30 21 O -5.312256 -1.268823 0.800150 0
M  V30 22 N -3.618163 -2.264089 2.048475 0
M  V30 23 C -4.349307 -3.407715 2.505076 0
M  V30 24 C -4.506461 -4.463793 1.449729 0
M  V30 25 C -5.535804 -4.574996 0.540384 0
M  V30 26 C -5.502344 -5.626857 -0.360640 0
M  V30 27 C -4.482077 -6.554850 -0.374413 0
M  V30 28 C -3.433782 -6.473688 0.523201 0
M  V30 29 C -3.490034 -5.417339 1.410060 0
M  V30 30 C -2.007508 0.137206 1.067964 0
M  V30 31 H 3.525539 -0.155294 -0.798498 0
M  V30 32 H 2.978497 1.211358 -1.838297 0
M  V30 33 H 1.809516 0.355795 -0.841065 0
M  V30 34 H 6.241538 0.583513 2.500093 0
M  V30 35 H 8.313677 -0.586212 1.808601 0
M  V30 36 H 7.436322 0.180581 -2.220987 0
M  V30 37 H 5.356497 1.360336 -1.610622 0
M  V30 38 H 2.527616 3.792739 2.541164 0
M  V30 39 H 0.711536 2.798153 -0.523599 0
M  V30 40 H 0.386773 3.411598 1.095914 0
M  V30 41 H 0.542997 0.673045 1.562676 0
M  V30 42 H -1.329934 3.044105 -0.473529 0
M  V30 43 H -3.733282 2.761529 -1.083306 0
M  V30 44 H -4.983538 0.820760 -0.314572 0
M  V30 45 H -2.628529 -2.151166 2.340154 0
M  V30 46 H -3.852475 -3.848622 3.378280 0
M  V30 47 H -5.359924 -3.097899 2.846400 0
M  V30 48 H -6.303002 -3.817855 0.604650 0
M  V30 49 H -6.310806 -5.705323 -1.067319 0
M  V30 50 H -4.501335 -7.352154 -1.091452 0
M  V30 51 H -2.627317 -7.179785 0.536533 0
M  V30 52 H -2.648605 -5.369329 2.115165 0
M  V30 53 H -1.496257 -0.593900 1.678558 0
M  V30 END ATOM
M  V30 BEGIN BOND
M  V30 1 1 1 2
M  V30 2 1 2 3
M  V30 3 1 3 4
M  V30 4 2 4 5
M  V30 5 1 5 6
M  V30 6 2 6 7
M  V30 7 1 7 8
M  V30 8 2 8 9
M  V30 9 2 3 10
M  V30 10 1 10 11
M  V30 11 1 11 12
M  V30 12 1 12 13
M  V30 13 1 13 14
M  V30 14 1 14 15
M  V30 15 2 15 16
M  V30 16 1 16 17
M  V30 17 2 17 18
M  V30 18 1 18 19
M  V30 19 1 19 20
M  V30 20 2 20 21
M  V30 21 1 20 22
M  V30 22 1 22 23
M  V30 23 1 23 24
M  V30 24 2 24 25
M  V30 25 1 25 26
M  V30 26 2 26 27
M  V30 27 1 27 28
M  V30 28 2 28 29
M  V30 29 2 19 30
M  V30 30 2 12 2
M  V30 31 1 30 15
M  V30 32 1 9 4
M  V30 33 1 29 24
M  V30 34 1 1 31
M  V30 35 1 1 32
M  V30 36 1 1 33
M  V30 37 1 5 34
M  V30 38 1 6 35
M  V30 39 1 8 36
M  V30 40 1 9 37
M  V30 41 1 11 38
M  V30 42 1 13 39
M  V30 43 1 13 40
M  V30 44 1 14 41
M  V30 45 1 16 42
M  V30 46 1 17 43
M  V30 47 1 18 44
M  V30 48 1 22 45
M  V30 49 1 23 46
M  V30 50 1 23 47
M  V30 51 1 25 48
M  V30 52 1 26 49
M  V30 53 1 27 50
M  V30 54 1 28 51
M  V30 55 1 29 52
M  V30 56 1 30 53
M  V30 END BOND
M  V30 END CTAB
M  END
>  <Dataset>  (941) 
ChEMBL_Kinases

>  <Ligand_Instance>  (941) 
nan

>  <PDB_ID>  (941) 
nan

>  <Standardized_SMILES>  (941) 
Cc1c(-c2ccncc2)n[nH]c1CNc1cccc(C(=O)NCc2ccccc2)c1

>  <Name>  (941) 
nan

>  <Pocket>  (941) 
nan

>  <ATP_Site>  (941) 
nan

>  <Peripheral>  (941) 
nan

>  <Num_H_Atoms_ProtBoundConf>  (941) 
nan

>  <Num_Resolved_Atoms>  (941) 
nan

>  <Num_Not_Resolved_Atoms>  (941) 
nan

$$$$
CHEMBL226471
     RDKit          3D

  0  0  0  0  0  0  0  0  0  0999 V3000
M  V30 BEGIN CTAB
M  V30 COUNTS 37 40 0 0 0
M  V30 BEGIN ATOM
M  V30 1 O 0.421801 -4.357452 3.510404 0
M  V30 2 C 1.232607 -4.431778 2.524362 0
M  V30 3 N 2.103703 -5.565887 2.316615 0
M  V30 4 C 2.399343 -5.841844 0.921881 0
M  V30 5 C 3.088714 -4.654860 0.313365 0
M  V30 6 C 2.210810 -3.468133 0.484408 0
M  V30 7 N 2.111504 -2.361079 -0.283035 0
M  V30 8 C 1.180266 -1.563619 0.273131 0
M  V30 9 C 0.812928 -0.270054 -0.299434 0
M  V30 10 C 1.422652 0.180857 -1.450630 0
M  V30 11 C 0.991648 1.412496 -1.891025 0
M  V30 12 N 0.048882 2.135202 -1.259643 0
M  V30 13 C -0.564563 1.730368 -0.140923 0
M  V30 14 C -1.564855 2.607332 0.439817 0
M  V30 15 C -1.819827 3.802828 -0.198821 0
M  V30 16 C -2.748072 4.709221 0.265190 0
M  V30 17 C -3.475897 4.466097 1.401009 0
M  V30 18 C -3.240252 3.280539 2.056537 0
M  V30 19 C -2.314329 2.403074 1.572109 0
M  V30 20 F -2.142051 1.274989 2.262877 0
M  V30 21 C -0.144388 0.505539 0.307932 0
M  V30 22 C 0.644500 -2.122338 1.416196 0
M  V30 23 C 1.320119 -3.339671 1.529390 0
M  V30 24 H 2.420033 -6.057366 3.206227 0
M  V30 25 H 1.458322 -5.999652 0.348582 0
M  V30 26 H 2.996703 -6.774907 0.835233 0
M  V30 27 H 3.999615 -4.473612 0.955217 0
M  V30 28 H 3.415479 -4.804746 -0.711403 0
M  V30 29 H 2.674109 -2.182837 -1.152955 0
M  V30 30 H 2.181459 -0.381816 -1.974191 0
M  V30 31 H 1.416952 1.846677 -2.790817 0
M  V30 32 H -1.299034 4.105970 -1.116124 0
M  V30 33 H -2.929226 5.633657 -0.249297 0
M  V30 34 H -4.205233 5.157583 1.782325 0
M  V30 35 H -3.805396 3.072121 2.954389 0
M  V30 36 H -0.591246 0.111671 1.202907 0
M  V30 37 H -0.110129 -1.740995 2.081167 0
M  V30 END ATOM
M  V30 BEGIN BOND
M  V30 1 2 1 2
M  V30 2 1 2 3
M  V30 3 1 3 4
M  V30 4 1 4 5
M  V30 5 1 5 6
M  V30 6 1 6 7
M  V30 7 1 7 8
M  V30 8 1 8 9
M  V30 9 2 9 10
M  V30 10 1 10 11
M  V30 11 2 11 12
M  V30 12 1 12 13
M  V30 13 1 13 14
M  V30 14 2 14 15
M  V30 15 1 15 16
M  V30 16 2 16 17
M  V30 17 1 17 18
M  V30 18 2 18 19
M  V30 19 1 19 20
M  V30 20 2 13 21
M  V30 21 2 8 22
M  V30 22 1 22 23
M  V30 23 1 23 2
M  V30 24 2 23 6
M  V30 25 1 21 9
M  V30 26 1 19 14
M  V30 27 1 3 24
M  V30 28 1 4 25
M  V30 29 1 4 26
M  V30 30 1 5 27
M  V30 31 1 5 28
M  V30 32 1 7 29
M  V30 33 1 10 30
M  V30 34 1 11 31
M  V30 35 1 15 32
M  V30 36 1 16 33
M  V30 37 1 17 34
M  V30 38 1 18 35
M  V30 39 1 21 36
M  V30 40 1 22 37
M  V30 END BOND
M  V30 END CTAB
M  END
>  <Dataset>  (942) 
ChEMBL_Kinases

>  <Ligand_Instance>  (942) 
nan

>  <PDB_ID>  (942) 
nan

>  <Standardized_SMILES>  (942) 
O=C1NCCc2[nH]c(-c3ccnc(-c4ccccc4F)c3)cc21

>  <Name>  (942) 
nan

>  <Pocket>  (942) 
nan

>  <ATP_Site>  (942) 
nan

>  <Peripheral>  (942) 
nan

>  <Num_H_Atoms_ProtBoundConf>  (942) 
nan

>  <Num_Resolved_Atoms>  (942) 
nan

>  <Num_Not_Resolved_Atoms>  (942) 
nan

$$$$
CHEMBL3310142
     RDKit          3D

  0  0  0  0  0  0  0  0  0  0999 V3000
M  V30 BEGIN CTAB
M  V30 COUNTS 43 46 0 0 0
M  V30 BEGIN ATOM
M  V30 1 O 2.401547 -0.205325 -0.716175 0
M  V30 2 C 3.079739 -0.571645 0.313843 0
M  V30 3 C 3.874055 -0.955696 -0.848674 0
M  V30 4 C 3.192472 -0.603598 -2.128149 0
M  V30 5 C 2.147687 -1.306622 -2.676154 0
M  V30 6 F 1.704780 -2.390021 -2.027223 0
M  V30 7 C 1.514972 -0.988349 -3.845143 0
M  V30 8 C 1.936656 0.119603 -4.551056 0
M  V30 9 C 2.998497 0.868946 -4.033115 0
M  V30 10 C 3.609171 0.510512 -2.847582 0
M  V30 11 Cl 4.949051 1.446383 -2.183300 0
M  V30 12 N 2.820410 -0.463826 1.696068 0
M  V30 13 C 1.621830 0.148255 2.139684 0
M  V30 14 O 1.681485 1.455809 2.348653 0
M  V30 15 N 0.512802 1.874298 2.750278 0
M  V30 16 C -0.330212 0.797626 2.802064 0
M  V30 17 C -1.726145 0.841120 3.208055 0
M  V30 18 C -1.959983 0.642851 4.551001 0
M  V30 19 C -3.300845 0.688747 4.949383 0
M  V30 20 C -4.337532 0.917558 4.064771 0
M  V30 21 F -5.607476 0.945131 4.539443 0
M  V30 22 C -4.005363 1.104770 2.739952 0
M  V30 23 C -2.721111 1.078079 2.251410 0
M  V30 24 C 0.359340 -0.325434 2.413483 0
M  V30 25 C -0.002962 -1.699591 2.276551 0
M  V30 26 C -1.229232 -2.273683 2.517183 0
M  V30 27 C -1.521540 -3.613352 2.364139 0
M  V30 28 N -0.527929 -4.424721 1.945942 0
M  V30 29 C 0.686380 -3.902320 1.699288 0
M  V30 30 N 0.939975 -2.583652 1.859233 0
M  V30 31 H 4.055122 -2.063211 -0.860233 0
M  V30 32 H 4.864879 -0.478999 -0.868091 0
M  V30 33 H 0.688156 -1.581580 -4.238418 0
M  V30 34 H 1.488873 0.438006 -5.483366 0
M  V30 35 H 3.405841 1.742113 -4.491471 0
M  V30 36 H 3.716115 -0.936269 2.005744 0
M  V30 37 H -1.180046 0.465453 5.248715 0
M  V30 38 H -3.514148 0.537111 5.996764 0
M  V30 39 H -4.811620 1.288351 2.017772 0
M  V30 40 H -2.483161 1.226775 1.208300 0
M  V30 41 H -2.025124 -1.654704 2.844048 0
M  V30 42 H -2.514803 -3.986329 2.574977 0
M  V30 43 H 1.524363 -4.507952 1.360192 0
M  V30 END ATOM
M  V30 BEGIN BOND
M  V30 1 2 1 2
M  V30 2 1 2 3
M  V30 3 1 3 4
M  V30 4 2 4 5
M  V30 5 1 5 6
M  V30 6 1 5 7
M  V30 7 2 7 8
M  V30 8 1 8 9
M  V30 9 2 9 10
M  V30 10 1 10 11
M  V30 11 1 2 12
M  V30 12 1 12 13
M  V30 13 1 13 14
M  V30 14 1 14 15
M  V30 15 2 15 16
M  V30 16 1 16 17
M  V30 17 2 17 18
M  V30 18 1 18 19
M  V30 19 2 19 20
M  V30 20 1 20 21
M  V30 21 1 20 22
M  V30 22 2 22 23
M  V30 23 1 16 24
M  V30 24 1 24 25
M  V30 25 2 25 26
M  V30 26 1 26 27
M  V30 27 2 27 28
M  V30 28 1 28 29
M  V30 29 2 29 30
M  V30 30 1 10 4
M  V30 31 2 24 13
M  V30 32 1 30 25
M  V30 33 1 23 17
M  V30 34 1 3 31
M  V30 35 1 3 32
M  V30 36 1 7 33
M  V30 37 1 8 34
M  V30 38 1 9 35
M  V30 39 1 12 36
M  V30 40 1 18 37
M  V30 41 1 19 38
M  V30 42 1 22 39
M  V30 43 1 23 40
M  V30 44 1 26 41
M  V30 45 1 27 42
M  V30 46 1 29 43
M  V30 END BOND
M  V30 END CTAB
M  END
>  <Dataset>  (943) 
ChEMBL_Kinases

>  <Ligand_Instance>  (943) 
nan

>  <PDB_ID>  (943) 
nan

>  <Standardized_SMILES>  (943) 
O=C(Cc1c(F)cccc1Cl)Nc1onc(-c2ccc(F)cc2)c1-c1ccncn1

>  <Name>  (943) 
nan

>  <Pocket>  (943) 
nan

>  <ATP_Site>  (943) 
nan

>  <Peripheral>  (943) 
nan

>  <Num_H_Atoms_ProtBoundConf>  (943) 
nan

>  <Num_Resolved_Atoms>  (943) 
nan

>  <Num_Not_Resolved_Atoms>  (943) 
nan

$$$$
CHEMBL226838
     RDKit          3D

  0  0  0  0  0  0  0  0  0  0999 V3000
M  V30 BEGIN CTAB
M  V30 COUNTS 46 49 0 0 0
M  V30 BEGIN ATOM
M  V30 1 C 0.553492 -3.692204 4.682723 0
M  V30 2 C -0.153558 -2.611218 3.980587 0
M  V30 3 C -1.451436 -2.407230 4.389778 0
M  V30 4 C -2.232695 -1.428944 3.821549 0
M  V30 5 C -1.679961 -0.652382 2.824760 0
M  V30 6 C -0.382171 -0.859357 2.418500 0
M  V30 7 C 0.409125 -0.180573 1.400916 0
M  V30 8 N 1.519766 0.554328 1.672390 0
M  V30 9 C 2.043009 1.060025 0.548392 0
M  V30 10 C 3.232740 1.915836 0.307184 0
M  V30 11 C 2.817114 3.369090 0.376796 0
M  V30 12 C 4.313603 1.701402 1.333737 0
M  V30 13 C 3.839260 1.650368 -1.059573 0
M  V30 14 N 1.255303 0.640665 -0.442613 0
M  V30 15 C 0.243519 -0.120927 0.033575 0
M  V30 16 C -0.821639 -0.758503 -0.730741 0
M  V30 17 C -0.335219 -1.759275 -1.581067 0
M  V30 18 C -1.210590 -2.479554 -2.395626 0
M  V30 19 C -2.575063 -2.241692 -2.400127 0
M  V30 20 C -3.002787 -1.248540 -1.547324 0
M  V30 21 C -2.169459 -0.516041 -0.728483 0
M  V30 22 O -4.386496 -1.177201 -1.709622 0
M  V30 23 C -4.856974 -2.382318 -2.294818 0
M  V30 24 O -3.692395 -2.745072 -3.053044 0
M  V30 25 N 0.369541 -1.836844 2.999801 0
M  V30 26 H -0.113165 -4.580223 4.784417 0
M  V30 27 H 1.494052 -4.010179 4.188735 0
M  V30 28 H 0.745006 -3.318800 5.718947 0
M  V30 29 H -1.934502 -2.993310 5.173483 0
M  V30 30 H -3.253996 -1.165421 4.045569 0
M  V30 31 H -2.156526 0.137712 2.296631 0
M  V30 32 H 1.987923 0.761105 2.596997 0
M  V30 33 H 1.938188 3.480016 -0.313516 0
M  V30 34 H 2.486773 3.653546 1.385821 0
M  V30 35 H 3.633058 4.017236 -0.014979 0
M  V30 36 H 5.267662 2.044860 0.860095 0
M  V30 37 H 4.145584 2.337823 2.222636 0
M  V30 38 H 4.468682 0.629143 1.565718 0
M  V30 39 H 3.063141 1.117224 -1.654803 0
M  V30 40 H 4.077246 2.581111 -1.598716 0
M  V30 41 H 4.699349 0.951367 -0.998731 0
M  V30 42 H 0.693694 -2.060620 -1.691422 0
M  V30 43 H -0.863392 -3.265471 -3.068388 0
M  V30 44 H -2.469873 0.254936 -0.064096 0
M  V30 45 H -4.918386 -3.140124 -1.486861 0
M  V30 46 H -5.748251 -2.272237 -2.907283 0
M  V30 END ATOM
M  V30 BEGIN BOND
M  V30 1 1 1 2
M  V30 2 2 2 3
M  V30 3 1 3 4
M  V30 4 2 4 5
M  V30 5 1 5 6
M  V30 6 1 6 7
M  V30 7 1 7 8
M  V30 8 1 8 9
M  V30 9 1 9 10
M  V30 10 1 10 11
M  V30 11 1 10 12
M  V30 12 1 10 13
M  V30 13 2 9 14
M  V30 14 1 14 15
M  V30 15 1 15 16
M  V30 16 2 16 17
M  V30 17 1 17 18
M  V30 18 2 18 19
M  V30 19 1 19 20
M  V30 20 2 20 21
M  V30 21 1 20 22
M  V30 22 1 22 23
M  V30 23 1 23 24
M  V30 24 2 6 25
M  V30 25 1 25 2
M  V30 26 2 15 7
M  V30 27 1 21 16
M  V30 28 1 24 19
M  V30 29 1 1 26
M  V30 30 1 1 27
M  V30 31 1 1 28
M  V30 32 1 3 29
M  V30 33 1 4 30
M  V30 34 1 5 31
M  V30 35 1 8 32
M  V30 36 1 11 33
M  V30 37 1 11 34
M  V30 38 1 11 35
M  V30 39 1 12 36
M  V30 40 1 12 37
M  V30 41 1 12 38
M  V30 42 1 13 39
M  V30 43 1 13 40
M  V30 44 1 13 41
M  V30 45 1 17 42
M  V30 46 1 18 43
M  V30 47 1 21 44
M  V30 48 1 23 45
M  V30 49 1 23 46
M  V30 END BOND
M  V30 END CTAB
M  END
>  <Dataset>  (944) 
ChEMBL_Kinases

>  <Ligand_Instance>  (944) 
nan

>  <PDB_ID>  (944) 
nan

>  <Standardized_SMILES>  (944) 
Cc1cccc(-c2[nH]c(C(C)(C)C)nc2-c2ccc3c(c2)OCO3)n1

>  <Name>  (944) 
nan

>  <Pocket>  (944) 
nan

>  <ATP_Site>  (944) 
nan

>  <Peripheral>  (944) 
nan

>  <Num_H_Atoms_ProtBoundConf>  (944) 
nan

>  <Num_Resolved_Atoms>  (944) 
nan

>  <Num_Not_Resolved_Atoms>  (944) 
nan

$$$$
CHEMBL605003
     RDKit          3D

  0  0  0  0  0  0  0  0  0  0999 V3000
M  V30 BEGIN CTAB
M  V30 COUNTS 47 50 0 0 0
M  V30 BEGIN ATOM
M  V30 1 C 6.573432 -0.058205 1.736947 0
M  V30 2 N 5.960143 -1.372907 1.860354 0
M  V30 3 C 5.172162 -1.391874 3.043327 0
M  V30 4 S 5.211401 -1.748083 0.402595 0
M  V30 5 O 6.267785 -1.800882 -0.668935 0
M  V30 6 O 4.633313 -3.153801 0.475996 0
M  V30 7 C 3.939866 -0.710615 -0.116103 0
M  V30 8 C 4.245713 0.403193 -0.903116 0
M  V30 9 C 3.300165 1.291476 -1.371783 0
M  V30 10 C 1.968851 1.094428 -1.062119 0
M  V30 11 C 1.667397 -0.011819 -0.280850 0
M  V30 12 C 2.605004 -0.905082 0.192609 0
M  V30 13 C 0.217930 0.025587 -0.113784 0
M  V30 14 C -0.601913 -0.796762 0.511074 0
M  V30 15 C -2.042760 -0.777642 0.693478 0
M  V30 16 C -2.927079 -1.809384 0.470285 0
M  V30 17 C -4.176902 -1.304136 0.834072 0
M  V30 18 C -3.972396 -0.012230 1.250988 0
M  V30 19 N -2.684180 0.303665 1.166317 0
M  V30 20 C -5.297714 0.580973 1.658857 0
M  V30 21 C -5.956366 -0.487866 2.525339 0
M  V30 22 C -6.545826 -1.486839 1.556918 0
M  V30 23 C -5.446797 -2.090656 0.749672 0
M  V30 24 C -0.314527 1.164804 -0.807306 0
M  V30 25 O -1.470573 1.577356 -0.933032 0
M  V30 26 N 0.797322 1.826077 -1.397759 0
M  V30 27 H 7.013210 0.268034 2.699048 0
M  V30 28 H 7.288743 -0.001577 0.886167 0
M  V30 29 H 5.802639 0.726359 1.481146 0
M  V30 30 H 5.752783 -1.812604 3.918422 0
M  V30 31 H 4.793665 -0.437281 3.402078 0
M  V30 32 H 4.384747 -2.182458 2.891604 0
M  V30 33 H 5.285514 0.569095 -1.154096 0
M  V30 34 H 3.587372 2.138002 -1.977102 0
M  V30 35 H 2.315966 -1.739668 0.790176 0
M  V30 36 H -0.156319 -1.677687 1.001266 0
M  V30 37 H -2.597121 -2.773381 0.087989 0
M  V30 38 H -2.483234 1.274054 1.485523 0
M  V30 39 H -5.961661 0.743433 0.781975 0
M  V30 40 H -5.165655 1.479731 2.273917 0
M  V30 41 H -6.737527 -0.100920 3.177596 0
M  V30 42 H -5.150996 -0.920254 3.144647 0
M  V30 43 H -7.081384 -2.287659 2.092850 0
M  V30 44 H -7.211375 -0.929137 0.856751 0
M  V30 45 H -5.283517 -3.131873 1.099743 0
M  V30 46 H -5.747582 -2.173870 -0.322773 0
M  V30 47 H 0.818365 2.676615 -1.969369 0
M  V30 END ATOM
M  V30 BEGIN BOND
M  V30 1 1 1 2
M  V30 2 1 2 3
M  V30 3 1 2 4
M  V30 4 2 4 5
M  V30 5 2 4 6
M  V30 6 1 4 7
M  V30 7 2 7 8
M  V30 8 1 8 9
M  V30 9 2 9 10
M  V30 10 1 10 11
M  V30 11 2 11 12
M  V30 12 1 11 13
M  V30 13 2 13 14
M  V30 14 1 14 15
M  V30 15 2 15 16
M  V30 16 1 16 17
M  V30 17 2 17 18
M  V30 18 1 18 19
M  V30 19 1 18 20
M  V30 20 1 20 21
M  V30 21 1 21 22
M  V30 22 1 22 23
M  V30 23 1 13 24
M  V30 24 2 24 25
M  V30 25 1 24 26
M  V30 26 1 12 7
M  V30 27 1 19 15
M  V30 28 1 26 10
M  V30 29 1 23 17
M  V30 30 1 1 27
M  V30 31 1 1 28
M  V30 32 1 1 29
M  V30 33 1 3 30
M  V30 34 1 3 31
M  V30 35 1 3 32
M  V30 36 1 8 33
M  V30 37 1 9 34
M  V30 38 1 12 35
M  V30 39 1 14 36
M  V30 40 1 16 37
M  V30 41 1 19 38
M  V30 42 1 20 39
M  V30 43 1 20 40
M  V30 44 1 21 41
M  V30 45 1 21 42
M  V30 46 1 22 43
M  V30 47 1 22 44
M  V30 48 1 23 45
M  V30 49 1 23 46
M  V30 50 1 26 47
M  V30 END BOND
M  V30 END CTAB
M  END
>  <Dataset>  (945) 
ChEMBL_Kinases

>  <Ligand_Instance>  (945) 
nan

>  <PDB_ID>  (945) 
nan

>  <Standardized_SMILES>  (945) 
CN(C)S(=O)(=O)c1ccc2c(c1)/C(=C/c1cc3c([nH]1)CCCC3)C(=O)N2

>  <Name>  (945) 
nan

>  <Pocket>  (945) 
nan

>  <ATP_Site>  (945) 
nan

>  <Peripheral>  (945) 
nan

>  <Num_H_Atoms_ProtBoundConf>  (945) 
nan

>  <Num_Resolved_Atoms>  (945) 
nan

>  <Num_Not_Resolved_Atoms>  (945) 
nan

$$$$
CHEMBL3310138
     RDKit          3D

  0  0  0  0  0  0  0  0  0  0999 V3000
M  V30 BEGIN CTAB
M  V30 COUNTS 28 30 0 0 0
M  V30 BEGIN ATOM
M  V30 1 N -3.526794 -0.355000 1.527412 0
M  V30 2 C -2.324547 0.407656 1.199030 0
M  V30 3 O -2.044757 1.677051 1.001936 0
M  V30 4 N -0.745898 1.718343 0.732762 0
M  V30 5 C -0.353812 0.401250 0.796733 0
M  V30 6 C 1.088340 0.674876 0.459967 0
M  V30 7 C 1.472715 0.655926 -0.891241 0
M  V30 8 C 2.762785 0.857728 -1.284162 0
M  V30 9 C 3.628083 1.080643 -0.209748 0
M  V30 10 F 4.936647 1.287021 -0.520305 0
M  V30 11 C 3.351017 1.119416 1.133957 0
M  V30 12 C 2.028760 0.906256 1.458433 0
M  V30 13 C -1.418446 -0.559000 1.120871 0
M  V30 14 C -0.662337 -1.765794 1.102399 0
M  V30 15 C 0.508989 -2.367149 0.930625 0
M  V30 16 C 0.731716 -3.703009 1.049523 0
M  V30 17 N -0.322830 -4.489431 1.369825 0
M  V30 18 C -1.550659 -3.935817 1.559655 0
M  V30 19 N -1.717349 -2.587202 1.427067 0
M  V30 20 H -4.217983 -0.821424 0.894350 0
M  V30 21 H -3.918522 -0.575206 2.493908 0
M  V30 22 H 0.731947 0.473514 -1.689023 0
M  V30 23 H 3.144857 0.856063 -2.291705 0
M  V30 24 H 4.103683 1.303789 1.882357 0
M  V30 25 H 1.711546 0.917118 2.494851 0
M  V30 26 H 1.242730 -1.665888 0.683648 0
M  V30 27 H 1.760205 -3.972015 0.866266 0
M  V30 28 H -2.194484 -4.792704 1.803217 0
M  V30 END ATOM
M  V30 BEGIN BOND
M  V30 1 1 1 2
M  V30 2 1 2 3
M  V30 3 1 3 4
M  V30 4 2 4 5
M  V30 5 1 5 6
M  V30 6 2 6 7
M  V30 7 1 7 8
M  V30 8 2 8 9
M  V30 9 1 9 10
M  V30 10 1 9 11
M  V30 11 2 11 12
M  V30 12 1 5 13
M  V30 13 1 13 14
M  V30 14 2 14 15
M  V30 15 1 15 16
M  V30 16 2 16 17
M  V30 17 1 17 18
M  V30 18 2 18 19
M  V30 19 2 13 2
M  V30 20 1 19 14
M  V30 21 1 12 6
M  V30 22 1 1 20
M  V30 23 1 1 21
M  V30 24 1 7 22
M  V30 25 1 8 23
M  V30 26 1 11 24
M  V30 27 1 12 25
M  V30 28 1 15 26
M  V30 29 1 16 27
M  V30 30 1 18 28
M  V30 END BOND
M  V30 END CTAB
M  END
>  <Dataset>  (946) 
ChEMBL_Kinases

>  <Ligand_Instance>  (946) 
nan

>  <PDB_ID>  (946) 
nan

>  <Standardized_SMILES>  (946) 
Nc1onc(-c2ccc(F)cc2)c1-c1ccncn1

>  <Name>  (946) 
nan

>  <Pocket>  (946) 
nan

>  <ATP_Site>  (946) 
nan

>  <Peripheral>  (946) 
nan

>  <Num_H_Atoms_ProtBoundConf>  (946) 
nan

>  <Num_Resolved_Atoms>  (946) 
nan

>  <Num_Not_Resolved_Atoms>  (946) 
nan

$$$$
CHEMBL3916849
     RDKit          3D

  0  0  0  0  0  0  0  0  0  0999 V3000
M  V30 BEGIN CTAB
M  V30 COUNTS 53 56 0 0 0
M  V30 BEGIN ATOM
M  V30 1 O -0.972145 -2.716814 3.334693 0
M  V30 2 C -1.796909 -2.361221 2.435654 0
M  V30 3 N -2.299337 -1.076199 2.189392 0
M  V30 4 C -1.829065 -0.038665 3.051506 0
M  V30 5 C -2.535082 0.225023 4.214383 0
M  V30 6 C -2.074570 1.226624 5.039449 0
M  V30 7 C -0.946895 1.939666 4.712418 0
M  V30 8 C -0.210296 1.704458 3.552997 0
M  V30 9 N 0.944436 2.481463 3.282610 0
M  V30 10 C 1.811778 2.408078 2.164158 0
M  V30 11 N 2.862032 3.239706 2.105589 0
M  V30 12 C 3.748116 3.267160 1.104681 0
M  V30 13 C 3.595179 2.394748 0.052785 0
M  V30 14 Br 4.771928 2.326252 -1.424855 0
M  V30 15 C 2.515854 1.543592 0.117843 0
M  V30 16 N 2.228333 0.583130 -0.901384 0
M  V30 17 C 1.105270 -0.333541 -0.878073 0
M  V30 18 C 1.085230 -1.217176 -2.107395 0
M  V30 19 C 0.978093 -0.427345 -3.355138 0
M  V30 20 C 0.941917 -1.023197 -4.599721 0
M  V30 21 N 0.842771 -0.004989 -5.473999 0
M  V30 22 C 0.817964 1.167048 -4.814438 0
M  V30 23 N 0.901094 0.929111 -3.492677 0
M  V30 24 N 1.657060 1.557083 1.144618 0
M  V30 25 C -0.712324 0.705779 2.779369 0
M  V30 26 N -2.104977 -3.553920 1.725767 0
M  V30 27 C -1.510594 -4.826614 2.087917 0
M  V30 28 C -1.242576 -5.448862 0.747148 0
M  V30 29 C -2.341761 -4.887159 -0.130942 0
M  V30 30 C -2.984944 -3.751723 0.602394 0
M  V30 31 H -2.966456 -1.016808 1.398147 0
M  V30 32 H -3.416715 -0.322583 4.482970 0
M  V30 33 H -2.606559 1.454107 5.954504 0
M  V30 34 H -0.641050 2.722889 5.419829 0
M  V30 35 H 1.179030 3.209570 4.022310 0
M  V30 36 H 4.571705 3.951777 1.104819 0
M  V30 37 H 2.881582 0.536537 -1.733820 0
M  V30 38 H 0.132228 0.192827 -0.768684 0
M  V30 39 H 1.207264 -0.981943 0.016503 0
M  V30 40 H 1.961987 -1.880245 -2.118102 0
M  V30 41 H 0.182588 -1.859651 -2.055339 0
M  V30 42 H 0.984417 -2.087271 -4.822423 0
M  V30 43 H 0.744301 2.173604 -5.223513 0
M  V30 44 H 0.906811 1.626569 -2.718768 0
M  V30 45 H -0.233154 0.440426 1.873782 0
M  V30 46 H -0.611268 -4.724250 2.712885 0
M  V30 47 H -2.305343 -5.435732 2.569158 0
M  V30 48 H -0.226331 -5.201753 0.344401 0
M  V30 49 H -1.328416 -6.559406 0.826556 0
M  V30 50 H -3.084448 -5.702011 -0.373359 0
M  V30 51 H -1.906715 -4.587819 -1.107406 0
M  V30 52 H -3.951657 -4.141633 1.011466 0
M  V30 53 H -3.133313 -2.852680 -0.015060 0
M  V30 END ATOM
M  V30 BEGIN BOND
M  V30 1 2 1 2
M  V30 2 1 2 3
M  V30 3 1 3 4
M  V30 4 2 4 5
M  V30 5 1 5 6
M  V30 6 2 6 7
M  V30 7 1 7 8
M  V30 8 1 8 9
M  V30 9 1 9 10
M  V30 10 2 10 11
M  V30 11 1 11 12
M  V30 12 2 12 13
M  V30 13 1 13 14
M  V30 14 1 13 15
M  V30 15 1 15 16
M  V30 16 1 16 17
M  V30 17 1 17 18
M  V30 18 1 18 19
M  V30 19 2 19 20
M  V30 20 1 20 21
M  V30 21 2 21 22
M  V30 22 1 22 23
M  V30 23 2 15 24
M  V30 24 2 8 25
M  V30 25 1 2 26
M  V30 26 1 26 27
M  V30 27 1 27 28
M  V30 28 1 28 29
M  V30 29 1 29 30
M  V30 30 1 25 4
M  V30 31 1 30 26
M  V30 32 1 24 10
M  V30 33 1 23 19
M  V30 34 1 3 31
M  V30 35 1 5 32
M  V30 36 1 6 33
M  V30 37 1 7 34
M  V30 38 1 9 35
M  V30 39 1 12 36
M  V30 40 1 16 37
M  V30 41 1 17 38
M  V30 42 1 17 39
M  V30 43 1 18 40
M  V30 44 1 18 41
M  V30 45 1 20 42
M  V30 46 1 22 43
M  V30 47 1 23 44
M  V30 48 1 25 45
M  V30 49 1 27 46
M  V30 50 1 27 47
M  V30 51 1 28 48
M  V30 52 1 28 49
M  V30 53 1 29 50
M  V30 54 1 29 51
M  V30 55 1 30 52
M  V30 56 1 30 53
M  V30 END BOND
M  V30 END CTAB
M  END
>  <Dataset>  (947) 
ChEMBL_Kinases

>  <Ligand_Instance>  (947) 
nan

>  <PDB_ID>  (947) 
nan

>  <Standardized_SMILES>  (947) 
O=C(Nc1cccc(Nc2ncc(Br)c(NCCc3cnc[nH]3)n2)c1)N1CCCC1

>  <Name>  (947) 
nan

>  <Pocket>  (947) 
nan

>  <ATP_Site>  (947) 
nan

>  <Peripheral>  (947) 
nan

>  <Num_H_Atoms_ProtBoundConf>  (947) 
nan

>  <Num_Resolved_Atoms>  (947) 
nan

>  <Num_Not_Resolved_Atoms>  (947) 
nan

$$$$
CHEMBL4542463
     RDKit          3D

  0  0  0  0  0  0  0  0  0  0999 V3000
M  V30 BEGIN CTAB
M  V30 COUNTS 54 58 0 0 0
M  V30 BEGIN ATOM
M  V30 1 O 0.328488 -7.093387 -0.029818 0
M  V30 2 C 1.326202 -7.052171 -0.827816 0
M  V30 3 N 2.396561 -6.273784 -1.322455 0
M  V30 4 C 2.414313 -4.992157 -0.707979 0
M  V30 5 N 3.101340 -4.798621 0.402860 0
M  V30 6 N 2.949869 -3.515063 0.770614 0
M  V30 7 C 2.142805 -2.932037 -0.160160 0
M  V30 8 C 1.651846 -1.626811 -0.285432 0
M  V30 9 C 0.821399 -1.267462 -1.352689 0
M  V30 10 C 0.319966 0.106744 -1.451967 0
M  V30 11 C 0.048916 0.764972 -2.632618 0
M  V30 12 C -0.429111 2.074385 -2.595767 0
M  V30 13 C -0.651199 2.764778 -1.413839 0
M  V30 14 C -0.387204 2.129238 -0.193478 0
M  V30 15 C -0.569944 2.714903 1.145317 0
M  V30 16 N -1.861649 2.500442 1.725649 0
M  V30 17 S -2.086710 3.161885 3.258146 0
M  V30 18 O -3.447817 2.743073 3.760246 0
M  V30 19 O -1.096256 2.545036 4.211721 0
M  V30 20 C -1.936578 4.905450 3.358468 0
M  V30 21 C -2.155433 5.412122 4.784089 0
M  V30 22 C -2.063295 6.855137 5.038516 0
M  V30 23 C -3.416738 6.172247 5.107398 0
M  V30 24 C 0.083035 0.836359 -0.289792 0
M  V30 25 C 0.504379 -2.243055 -2.275538 0
M  V30 26 C 0.959242 -3.547832 -2.203806 0
M  V30 27 C 1.772224 -3.850054 -1.135707 0
M  V30 28 C 0.691068 -8.367370 -0.955855 0
M  V30 29 C 1.444906 -9.631568 -1.102093 0
M  V30 30 C 0.681460 -9.083145 -2.241255 0
M  V30 31 H 2.836165 -6.925703 -2.003212 0
M  V30 32 H 3.376560 -3.073606 1.608793 0
M  V30 33 H 1.929462 -0.901829 0.462359 0
M  V30 34 H 0.218779 0.236296 -3.549375 0
M  V30 35 H -0.639376 2.582582 -3.532787 0
M  V30 36 H -1.014217 3.765308 -1.350177 0
M  V30 37 H -0.379648 3.807233 1.167236 0
M  V30 38 H 0.185959 2.264597 1.820100 0
M  V30 39 H -2.293835 1.593469 1.549898 0
M  V30 40 H -0.981801 5.302028 3.025392 0
M  V30 41 H -2.718278 5.421970 2.754126 0
M  V30 42 H -1.897748 4.660337 5.544250 0
M  V30 43 H -1.570060 7.136659 5.993816 0
M  V30 44 H -1.913500 7.532769 4.174625 0
M  V30 45 H -4.151279 6.408350 4.298900 0
M  V30 46 H -3.881470 6.055502 6.096012 0
M  V30 47 H 0.301661 0.304344 0.648757 0
M  V30 48 H -0.141998 -2.000539 -3.123884 0
M  V30 49 H 0.728708 -4.315059 -2.900852 0
M  V30 50 H -0.207562 -8.475146 -0.278313 0
M  V30 51 H 2.542844 -9.573856 -1.068989 0
M  V30 52 H 1.044748 -10.578729 -0.664516 0
M  V30 53 H -0.255859 -9.563025 -2.570361 0
M  V30 54 H 1.236619 -8.599660 -3.078060 0
M  V30 END ATOM
M  V30 BEGIN BOND
M  V30 1 2 1 2
M  V30 2 1 2 3
M  V30 3 1 3 4
M  V30 4 2 4 5
M  V30 5 1 5 6
M  V30 6 1 6 7
M  V30 7 2 7 8
M  V30 8 1 8 9
M  V30 9 1 9 10
M  V30 10 2 10 11
M  V30 11 1 11 12
M  V30 12 2 12 13
M  V30 13 1 13 14
M  V30 14 1 14 15
M  V30 15 1 15 16
M  V30 16 1 16 17
M  V30 17 2 17 18
M  V30 18 2 17 19
M  V30 19 1 17 20
M  V30 20 1 20 21
M  V30 21 1 21 22
M  V30 22 1 22 23
M  V30 23 2 14 24
M  V30 24 2 9 25
M  V30 25 1 25 26
M  V30 26 2 26 27
M  V30 27 1 2 28
M  V30 28 1 28 29
M  V30 29 1 29 30
M  V30 30 1 27 4
M  V30 31 1 30 28
M  V30 32 1 27 7
M  V30 33 1 24 10
M  V30 34 1 23 21
M  V30 35 1 3 31
M  V30 36 1 6 32
M  V30 37 1 8 33
M  V30 38 1 11 34
M  V30 39 1 12 35
M  V30 40 1 13 36
M  V30 41 1 15 37
M  V30 42 1 15 38
M  V30 43 1 16 39
M  V30 44 1 20 40
M  V30 45 1 20 41
M  V30 46 1 21 42
M  V30 47 1 22 43
M  V30 48 1 22 44
M  V30 49 1 23 45
M  V30 50 1 23 46
M  V30 51 1 24 47
M  V30 52 1 25 48
M  V30 53 1 26 49
M  V30 54 1 28 50
M  V30 55 1 29 51
M  V30 56 1 29 52
M  V30 57 1 30 53
M  V30 58 1 30 54
M  V30 END BOND
M  V30 END CTAB
M  END
>  <Dataset>  (948) 
ChEMBL_Kinases

>  <Ligand_Instance>  (948) 
nan

>  <PDB_ID>  (948) 
nan

>  <Standardized_SMILES>  (948) 
O=C(Nc1n[nH]c2cc(-c3cccc(CNS(=O)(=O)CC4CC4)c3)ccc12)C1CC1

>  <Name>  (948) 
nan

>  <Pocket>  (948) 
nan

>  <ATP_Site>  (948) 
nan

>  <Peripheral>  (948) 
nan

>  <Num_H_Atoms_ProtBoundConf>  (948) 
nan

>  <Num_Resolved_Atoms>  (948) 
nan

>  <Num_Not_Resolved_Atoms>  (948) 
nan

$$$$
CHEMBL2071613
     RDKit          3D

  0  0  0  0  0  0  0  0  0  0999 V3000
M  V30 BEGIN CTAB
M  V30 COUNTS 31 33 0 0 0
M  V30 BEGIN ATOM
M  V30 1 C -3.653788 -4.918976 1.263265 0
M  V30 2 C -2.497638 -4.004012 1.448950 0
M  V30 3 C -1.584049 -4.175816 2.467456 0
M  V30 4 C -0.521385 -3.315865 2.619668 0
M  V30 5 C -0.296653 -2.239713 1.780608 0
M  V30 6 N 0.806797 -1.370020 1.961333 0
M  V30 7 C 1.143620 -0.238038 1.172418 0
M  V30 8 N 0.536432 0.284695 0.097698 0
M  V30 9 C 1.157354 1.366006 -0.377296 0
M  V30 10 C 0.898740 2.210074 -1.440402 0
M  V30 11 C 1.796154 3.264063 -1.631291 0
M  V30 12 C 2.878077 3.436507 -0.791583 0
M  V30 13 C 3.735279 4.551576 -1.079465 0
M  V30 14 N 4.435036 5.446062 -1.315268 0
M  V30 15 C 3.111276 2.568242 0.271424 0
M  V30 16 C 2.225077 1.513134 0.473846 0
M  V30 17 N 2.200310 0.550990 1.388012 0
M  V30 18 C -1.235915 -2.111196 0.780355 0
M  V30 19 C -2.317494 -2.943771 0.583848 0
M  V30 20 H -3.710569 -5.093530 0.160373 0
M  V30 21 H -4.598459 -4.366574 1.526366 0
M  V30 22 H -3.553896 -5.853624 1.813158 0
M  V30 23 H -1.715036 -5.002454 3.150770 0
M  V30 24 H 0.149901 -3.516168 3.440204 0
M  V30 25 H 1.434210 -1.610591 2.780123 0
M  V30 26 H 0.038576 2.045199 -2.080942 0
M  V30 27 H 1.597840 3.936090 -2.470637 0
M  V30 28 H 3.970134 2.729155 0.914620 0
M  V30 29 H 2.922316 0.454799 2.154174 0
M  V30 30 H -1.167659 -1.317523 0.070705 0
M  V30 31 H -3.029949 -2.803032 -0.217025 0
M  V30 END ATOM
M  V30 BEGIN BOND
M  V30 1 1 1 2
M  V30 2 2 2 3
M  V30 3 1 3 4
M  V30 4 2 4 5
M  V30 5 1 5 6
M  V30 6 1 6 7
M  V30 7 2 7 8
M  V30 8 1 8 9
M  V30 9 2 9 10
M  V30 10 1 10 11
M  V30 11 2 11 12
M  V30 12 1 12 13
M  V30 13 3 13 14
M  V30 14 1 12 15
M  V30 15 2 15 16
M  V30 16 1 16 17
M  V30 17 1 5 18
M  V30 18 2 18 19
M  V30 19 1 19 2
M  V30 20 1 17 7
M  V30 21 1 16 9
M  V30 22 1 1 20
M  V30 23 1 1 21
M  V30 24 1 1 22
M  V30 25 1 3 23
M  V30 26 1 4 24
M  V30 27 1 6 25
M  V30 28 1 10 26
M  V30 29 1 11 27
M  V30 30 1 15 28
M  V30 31 1 17 29
M  V30 32 1 18 30
M  V30 33 1 19 31
M  V30 END BOND
M  V30 END CTAB
M  END
>  <Dataset>  (949) 
ChEMBL_Kinases

>  <Ligand_Instance>  (949) 
nan

>  <PDB_ID>  (949) 
nan

>  <Standardized_SMILES>  (949) 
Cc1ccc(Nc2nc3ccc(C#N)cc3[nH]2)cc1

>  <Name>  (949) 
nan

>  <Pocket>  (949) 
nan

>  <ATP_Site>  (949) 
nan

>  <Peripheral>  (949) 
nan

>  <Num_H_Atoms_ProtBoundConf>  (949) 
nan

>  <Num_Resolved_Atoms>  (949) 
nan

>  <Num_Not_Resolved_Atoms>  (949) 
nan

$$$$
CHEMBL4549459
     RDKit          3D

  0  0  0  0  0  0  0  0  0  0999 V3000
M  V30 BEGIN CTAB
M  V30 COUNTS 59 63 0 0 0
M  V30 BEGIN ATOM
M  V30 1 C 2.616623 -1.462280 8.161631 0
M  V30 2 C 3.129453 -1.421862 6.760648 0
M  V30 3 N 4.118493 -2.196556 6.282511 0
M  V30 4 O 4.306890 -1.899275 5.027699 0
M  V30 5 C 3.497483 -0.967358 4.638646 0
M  V30 6 C 3.446384 -0.403196 3.290813 0
M  V30 7 C 4.326627 -0.896551 2.350597 0
M  V30 8 C 4.328315 -0.402429 1.055465 0
M  V30 9 C 3.418142 0.606852 0.724202 0
M  V30 10 N 3.159067 1.298221 -0.421993 0
M  V30 11 C 2.147915 2.181390 -0.169016 0
M  V30 12 N 1.690402 3.030059 -1.214633 0
M  V30 13 C 0.642065 2.633820 -2.090394 0
M  V30 14 C 0.033328 1.415702 -1.957014 0
M  V30 15 C -0.988019 1.000017 -2.790871 0
M  V30 16 C -1.743580 -0.244174 -2.779961 0
M  V30 17 N -2.960699 -0.316799 -2.099774 0
M  V30 18 C -2.844928 -0.063470 -0.715939 0
M  V30 19 C -3.226741 -1.238379 0.159807 0
M  V30 20 N -2.849918 -2.429869 -0.580169 0
M  V30 21 C -1.817869 -3.223050 -0.008030 0
M  V30 22 O -1.392090 -2.743760 1.080654 0
M  V30 23 C -1.247186 -4.463702 -0.539430 0
M  V30 24 C -1.770173 -5.723836 0.110628 0
M  V30 25 F -1.540248 -5.798536 1.451187 0
M  V30 26 F -3.097447 -5.855005 -0.247203 0
M  V30 27 F -1.116306 -6.772782 -0.550148 0
M  V30 28 C -3.573189 -2.683889 -1.832361 0
M  V30 29 C -3.876176 -1.343964 -2.468154 0
M  V30 30 C -1.385230 1.890425 -3.799185 0
M  V30 31 C -0.751316 3.121393 -3.914071 0
M  V30 32 N 0.240591 3.478063 -3.072830 0
M  V30 33 N 1.765831 2.051374 1.134690 0
M  V30 34 C 2.554834 1.080873 1.670868 0
M  V30 35 C 2.529836 0.604177 2.979232 0
M  V30 36 N 2.750739 -0.655917 5.714876 0
M  V30 37 H 2.465717 -2.527105 8.451940 0
M  V30 38 H 1.586403 -1.012162 8.157325 0
M  V30 39 H 3.277533 -0.923924 8.843223 0
M  V30 40 H 5.031097 -1.677941 2.610046 0
M  V30 41 H 5.014049 -0.778602 0.303910 0
M  V30 42 H 2.141244 3.949965 -1.326527 0
M  V30 43 H 0.328693 0.713085 -1.192995 0
M  V30 44 H -1.078757 -1.040613 -2.316264 0
M  V30 45 H -1.807304 -0.614776 -3.846892 0
M  V30 46 H -3.492267 0.811841 -0.433867 0
M  V30 47 H -1.830850 0.229473 -0.391566 0
M  V30 48 H -4.329836 -1.218674 0.263694 0
M  V30 49 H -2.780952 -1.172724 1.150869 0
M  V30 50 H -1.495490 -4.572324 -1.633876 0
M  V30 51 H -0.123594 -4.445243 -0.435296 0
M  V30 52 H -3.032327 -3.382346 -2.470272 0
M  V30 53 H -4.499037 -3.227682 -1.514336 0
M  V30 54 H -4.878676 -1.041186 -2.075724 0
M  V30 55 H -3.979213 -1.389024 -3.549825 0
M  V30 56 H -2.170193 1.682643 -4.511906 0
M  V30 57 H -1.048651 3.822698 -4.689082 0
M  V30 58 H 1.000440 2.640740 1.535353 0
M  V30 59 H 1.848939 0.973219 3.738635 0
M  V30 END ATOM
M  V30 BEGIN BOND
M  V30 1 1 1 2
M  V30 2 2 2 3
M  V30 3 1 3 4
M  V30 4 1 4 5
M  V30 5 1 5 6
M  V30 6 2 6 7
M  V30 7 1 7 8
M  V30 8 2 8 9
M  V30 9 1 9 10
M  V30 10 2 10 11
M  V30 11 1 11 12
M  V30 12 1 12 13
M  V30 13 2 13 14
M  V30 14 1 14 15
M  V30 15 1 15 16
M  V30 16 1 16 17
M  V30 17 1 17 18
M  V30 18 1 18 19
M  V30 19 1 19 20
M  V30 20 1 20 21
M  V30 21 2 21 22
M  V30 22 1 21 23
M  V30 23 1 23 24
M  V30 24 1 24 25
M  V30 25 1 24 26
M  V30 26 1 24 27
M  V30 27 1 20 28
M  V30 28 1 28 29
M  V30 29 2 15 30
M  V30 30 1 30 31
M  V30 31 2 31 32
M  V30 32 1 11 33
M  V30 33 1 33 34
M  V30 34 2 34 35
M  V30 35 2 5 36
M  V30 36 1 36 2
M  V30 37 1 35 6
M  V30 38 1 34 9
M  V30 39 1 32 13
M  V30 40 1 29 17
M  V30 41 1 1 37
M  V30 42 1 1 38
M  V30 43 1 1 39
M  V30 44 1 7 40
M  V30 45 1 8 41
M  V30 46 1 12 42
M  V30 47 1 14 43
M  V30 48 1 16 44
M  V30 49 1 16 45
M  V30 50 1 18 46
M  V30 51 1 18 47
M  V30 52 1 19 48
M  V30 53 1 19 49
M  V30 54 1 23 50
M  V30 55 1 23 51
M  V30 56 1 28 52
M  V30 57 1 28 53
M  V30 58 1 29 54
M  V30 59 1 29 55
M  V30 60 1 30 56
M  V30 61 1 31 57
M  V30 62 1 33 58
M  V30 63 1 35 59
M  V30 END BOND
M  V30 END CTAB
M  END
>  <Dataset>  (950) 
ChEMBL_Kinases

>  <Ligand_Instance>  (950) 
nan

>  <PDB_ID>  (950) 
nan

>  <Standardized_SMILES>  (950) 
Cc1noc(-c2ccc3nc(Nc4cc(CN5CCN(C(=O)CC(F)(F)F)CC5)ccn4)[nH]c3c2)n1

>  <Name>  (950) 
nan

>  <Pocket>  (950) 
nan

>  <ATP_Site>  (950) 
nan

>  <Peripheral>  (950) 
nan

>  <Num_H_Atoms_ProtBoundConf>  (950) 
nan

>  <Num_Resolved_Atoms>  (950) 
nan

>  <Num_Not_Resolved_Atoms>  (950) 
nan

$$$$
CHEMBL493066
     RDKit          3D

  0  0  0  0  0  0  0  0  0  0999 V3000
M  V30 BEGIN CTAB
M  V30 COUNTS 43 46 0 0 0
M  V30 BEGIN ATOM
M  V30 1 C -0.408279 -3.026723 -0.915426 0
M  V30 2 C 0.645955 -2.043895 -0.417109 0
M  V30 3 N 0.178612 -0.710116 -0.611100 0
M  V30 4 C 0.352828 0.085248 -1.690473 0
M  V30 5 C 1.068657 -0.222004 -2.921769 0
M  V30 6 N 1.730269 -1.315437 -3.334771 0
M  V30 7 O 2.223747 -1.146694 -4.525871 0
M  V30 8 N 1.933968 0.043021 -4.982662 0
M  V30 9 C 1.209784 0.638553 -3.991141 0
M  V30 10 N 0.724203 1.965468 -4.158434 0
M  V30 11 N -0.240082 1.285589 -1.519846 0
M  V30 12 C -0.834146 1.311962 -0.294502 0
M  V30 13 C -1.567356 2.235243 0.408502 0
M  V30 14 N -2.036081 1.937092 1.650503 0
M  V30 15 C -1.775237 0.713852 2.199342 0
M  V30 16 C -1.036180 -0.203798 1.479875 0
M  V30 17 C -0.833706 -1.441694 2.204606 0
M  V30 18 O -1.525122 -2.491324 2.179875 0
M  V30 19 N 0.362171 -1.151620 2.958399 0
M  V30 20 C 1.301322 -0.061916 3.148626 0
M  V30 21 C 1.296724 0.404350 4.602223 0
M  V30 22 N 1.362882 -0.722582 5.507728 0
M  V30 23 C 1.798935 -1.911134 4.799636 0
M  V30 24 C 0.744918 -2.289888 3.773442 0
M  V30 25 C -0.545172 0.063811 0.217537 0
M  V30 26 H -1.435794 -2.621331 -0.779836 0
M  V30 27 H -0.305157 -3.203061 -2.013597 0
M  V30 28 H -0.292381 -4.030028 -0.450192 0
M  V30 29 H 1.063633 -2.292166 0.553054 0
M  V30 30 H 1.506412 -2.181358 -1.140838 0
M  V30 31 H 0.443822 2.342387 -5.086795 0
M  V30 32 H 0.609699 2.663652 -3.374612 0
M  V30 33 H -1.720120 3.169125 -0.106580 0
M  V30 34 H -2.182703 0.574416 3.172066 0
M  V30 35 H 1.066424 0.831638 2.536351 0
M  V30 36 H 2.330255 -0.377457 2.878995 0
M  V30 37 H 2.195823 1.026073 4.782709 0
M  V30 38 H 0.407606 1.002377 4.843356 0
M  V30 39 H 0.469601 -0.952791 5.975889 0
M  V30 40 H 2.773390 -1.737219 4.333867 0
M  V30 41 H 1.858189 -2.720827 5.554048 0
M  V30 42 H 1.196897 -3.108507 3.151184 0
M  V30 43 H -0.144243 -2.709667 4.292535 0
M  V30 END ATOM
M  V30 BEGIN BOND
M  V30 1 1 1 2
M  V30 2 1 2 3
M  V30 3 1 3 4
M  V30 4 1 4 5
M  V30 5 2 5 6
M  V30 6 1 6 7
M  V30 7 1 7 8
M  V30 8 2 8 9
M  V30 9 1 9 10
M  V30 10 2 4 11
M  V30 11 1 11 12
M  V30 12 2 12 13
M  V30 13 1 13 14
M  V30 14 2 14 15
M  V30 15 1 15 16
M  V30 16 1 16 17
M  V30 17 2 17 18
M  V30 18 1 17 19
M  V30 19 1 19 20
M  V30 20 1 20 21
M  V30 21 1 21 22
M  V30 22 1 22 23
M  V30 23 1 23 24
M  V30 24 2 16 25
M  V30 25 1 25 3
M  V30 26 1 9 5
M  V30 27 1 25 12
M  V30 28 1 24 19
M  V30 29 1 1 26
M  V30 30 1 1 27
M  V30 31 1 1 28
M  V30 32 1 2 29
M  V30 33 1 2 30
M  V30 34 1 10 31
M  V30 35 1 10 32
M  V30 36 1 13 33
M  V30 37 1 15 34
M  V30 38 1 20 35
M  V30 39 1 20 36
M  V30 40 1 21 37
M  V30 41 1 21 38
M  V30 42 1 22 39
M  V30 43 1 23 40
M  V30 44 1 23 41
M  V30 45 1 24 42
M  V30 46 1 24 43
M  V30 END BOND
M  V30 END CTAB
M  END
>  <Dataset>  (951) 
ChEMBL_Kinases

>  <Ligand_Instance>  (951) 
nan

>  <PDB_ID>  (951) 
nan

>  <Standardized_SMILES>  (951) 
CCn1c(-c2nonc2N)nc2cncc(C(=O)N3CCNCC3)c21

>  <Name>  (951) 
nan

>  <Pocket>  (951) 
nan

>  <ATP_Site>  (951) 
nan

>  <Peripheral>  (951) 
nan

>  <Num_H_Atoms_ProtBoundConf>  (951) 
nan

>  <Num_Resolved_Atoms>  (951) 
nan

>  <Num_Not_Resolved_Atoms>  (951) 
nan

$$$$
CHEMBL492634
     RDKit          3D

  0  0  0  0  0  0  0  0  0  0999 V3000
M  V30 BEGIN CTAB
M  V30 COUNTS 52 56 0 0 0
M  V30 BEGIN ATOM
M  V30 1 C 0.696761 -3.289687 4.511644 0
M  V30 2 C 1.823619 -2.763361 3.674576 0
M  V30 3 C 3.124777 -3.143913 3.922037 0
M  V30 4 C 4.083308 -2.595675 3.087790 0
M  V30 5 C 3.762173 -1.712722 2.058661 0
M  V30 6 C 2.434550 -1.367120 1.858647 0
M  V30 7 C 1.933951 -0.461789 0.832576 0
M  V30 8 N 2.060886 0.834671 0.494258 0
M  V30 9 C 1.335180 1.116299 -0.588553 0
M  V30 10 C 1.272186 2.469903 -1.199929 0
M  V30 11 C 0.122286 3.182676 -0.582981 0
M  V30 12 C 0.237646 3.931660 0.567886 0
M  V30 13 C -0.920200 4.533933 1.014745 0
M  V30 14 C -2.154138 4.443256 0.408594 0
M  V30 15 C -2.226878 3.684878 -0.739797 0
M  V30 16 C -3.463809 3.491051 -1.500130 0
M  V30 17 N -4.621531 4.127754 -0.988548 0
M  V30 18 O -3.711553 2.850964 -2.551340 0
M  V30 19 C -1.093664 3.060718 -1.228420 0
M  V30 20 N 0.718175 -0.034409 -0.964590 0
M  V30 21 C 1.070631 -1.022081 -0.104962 0
M  V30 22 C 0.545377 -2.392768 -0.273708 0
M  V30 23 C 1.373019 -3.476825 -0.545010 0
M  V30 24 C 0.808819 -4.737724 -0.688466 0
M  V30 25 C -0.553426 -4.876043 -0.557454 0
M  V30 26 N -1.052572 -6.132280 -0.707658 0
M  V30 27 C -2.384958 -6.347268 -0.592560 0
M  V30 28 C -3.225898 -5.268263 -0.320334 0
M  V30 29 N -2.705605 -4.030729 -0.175901 0
M  V30 30 C -1.404155 -3.809836 -0.286437 0
M  V30 31 C -0.813559 -2.577035 -0.150765 0
M  V30 32 N 1.511519 -1.906570 2.676218 0
M  V30 33 H 1.104707 -3.327938 5.554972 0
M  V30 34 H -0.176844 -2.621771 4.465778 0
M  V30 35 H 0.502479 -4.317159 4.196514 0
M  V30 36 H 3.380283 -3.833370 4.725178 0
M  V30 37 H 5.130015 -2.866541 3.244422 0
M  V30 38 H 4.479318 -1.273217 1.398632 0
M  V30 39 H 2.688905 1.409221 1.111185 0
M  V30 40 H 1.091172 2.334582 -2.300355 0
M  V30 41 H 2.208538 3.023669 -1.009929 0
M  V30 42 H 1.187589 4.016955 1.057483 0
M  V30 43 H -0.863484 5.126852 1.913306 0
M  V30 44 H -3.042514 4.929002 0.786322 0
M  V30 45 H -5.489149 4.530817 -0.589477 0
M  V30 46 H -5.468670 3.826598 -0.451933 0
M  V30 47 H -1.212444 2.488180 -2.119866 0
M  V30 48 H 2.450728 -3.311592 -0.639974 0
M  V30 49 H 1.503490 -5.511499 -0.893823 0
M  V30 50 H -2.905731 -7.275951 -0.685200 0
M  V30 51 H -4.302055 -5.291854 -0.203446 0
M  V30 52 H -1.484909 -1.733188 0.063810 0
M  V30 END ATOM
M  V30 BEGIN BOND
M  V30 1 1 1 2
M  V30 2 2 2 3
M  V30 3 1 3 4
M  V30 4 2 4 5
M  V30 5 1 5 6
M  V30 6 1 6 7
M  V30 7 1 7 8
M  V30 8 1 8 9
M  V30 9 1 9 10
M  V30 10 1 10 11
M  V30 11 2 11 12
M  V30 12 1 12 13
M  V30 13 2 13 14
M  V30 14 1 14 15
M  V30 15 1 15 16
M  V30 16 1 16 17
M  V30 17 2 16 18
M  V30 18 2 15 19
M  V30 19 2 9 20
M  V30 20 1 20 21
M  V30 21 1 21 22
M  V30 22 2 22 23
M  V30 23 1 23 24
M  V30 24 2 24 25
M  V30 25 1 25 26
M  V30 26 2 26 27
M  V30 27 1 27 28
M  V30 28 2 28 29
M  V30 29 1 29 30
M  V30 30 2 30 31
M  V30 31 2 6 32
M  V30 32 1 32 2
M  V30 33 2 21 7
M  V30 34 1 31 22
M  V30 35 1 19 11
M  V30 36 1 30 25
M  V30 37 1 1 33
M  V30 38 1 1 34
M  V30 39 1 1 35
M  V30 40 1 3 36
M  V30 41 1 4 37
M  V30 42 1 5 38
M  V30 43 1 8 39
M  V30 44 1 10 40
M  V30 45 1 10 41
M  V30 46 1 12 42
M  V30 47 1 13 43
M  V30 48 1 14 44
M  V30 49 1 17 45
M  V30 50 1 17 46
M  V30 51 1 19 47
M  V30 52 1 23 48
M  V30 53 1 24 49
M  V30 54 1 27 50
M  V30 55 1 28 51
M  V30 56 1 31 52
M  V30 END BOND
M  V30 END CTAB
M  END
>  <Dataset>  (952) 
ChEMBL_Kinases

>  <Ligand_Instance>  (952) 
nan

>  <PDB_ID>  (952) 
nan

>  <Standardized_SMILES>  (952) 
Cc1cccc(-c2[nH]c(Cc3cccc(C(N)=O)c3)nc2-c2ccc3nccnc3c2)n1

>  <Name>  (952) 
nan

>  <Pocket>  (952) 
nan

>  <ATP_Site>  (952) 
nan

>  <Peripheral>  (952) 
nan

>  <Num_H_Atoms_ProtBoundConf>  (952) 
nan

>  <Num_Resolved_Atoms>  (952) 
nan

>  <Num_Not_Resolved_Atoms>  (952) 
nan

$$$$
CHEMBL5092828
     RDKit          3D

  0  0  0  0  0  0  0  0  0  0999 V3000
M  V30 BEGIN CTAB
M  V30 COUNTS 40 43 0 0 0
M  V30 BEGIN ATOM
M  V30 1 C -2.287807 -4.221486 1.610530 0
M  V30 2 C -1.713845 -2.857576 1.790347 0
M  V30 3 N -0.610416 -2.550907 1.117744 0
M  V30 4 C -0.005153 -1.353213 1.201488 0
M  V30 5 N 1.179942 -1.136033 0.493885 0
M  V30 6 C 1.734066 -2.149477 -0.380290 0
M  V30 7 C 0.834112 -2.469478 -1.530676 0
M  V30 8 C -0.158584 -3.367787 -1.865785 0
M  V30 9 C -0.598763 -3.084973 -3.142845 0
M  V30 10 O 0.082863 -2.061277 -3.587672 0
M  V30 11 C 0.941735 -1.662179 -2.671541 0
M  V30 12 C -0.620639 -0.457877 2.043501 0
M  V30 13 C -0.180817 0.823195 2.283261 0
M  V30 14 C 0.858643 1.737049 1.846805 0
M  V30 15 C 1.675644 2.177286 2.891684 0
M  V30 16 C 2.718292 3.086610 2.744108 0
M  V30 17 N 2.934371 3.558684 1.505047 0
M  V30 18 C 2.198427 3.190550 0.443153 0
M  V30 19 N 2.381268 3.655973 -0.886149 0
M  V30 20 C 1.172958 2.293883 0.598084 0
M  V30 21 C -1.118734 1.327808 3.196539 0
M  V30 22 N -2.055896 0.377797 3.465848 0
M  V30 23 C -1.764892 -0.730650 2.762072 0
M  V30 24 N -2.288266 -1.948867 2.610328 0
M  V30 25 H -2.921930 -4.452340 2.479983 0
M  V30 26 H -2.848037 -4.268644 0.654891 0
M  V30 27 H -1.428694 -4.914972 1.552450 0
M  V30 28 H 1.826582 -0.336453 0.456529 0
M  V30 29 H 2.739141 -1.964568 -0.752422 0
M  V30 30 H 1.771932 -3.121010 0.205090 0
M  V30 31 H -0.425171 -4.104471 -1.147787 0
M  V30 32 H -1.387819 -3.729037 -3.524470 0
M  V30 33 H 1.570018 -0.817680 -2.917552 0
M  V30 34 H 1.560399 1.838957 3.921363 0
M  V30 35 H 3.332882 3.408175 3.570814 0
M  V30 36 H 3.146292 3.719379 -1.579532 0
M  V30 37 H 1.562107 4.072323 -1.395087 0
M  V30 38 H 0.481874 1.890552 -0.153269 0
M  V30 39 H -1.205793 2.306625 3.693549 0
M  V30 40 H -2.878811 0.447660 4.101811 0
M  V30 END ATOM
M  V30 BEGIN BOND
M  V30 1 1 1 2
M  V30 2 2 2 3
M  V30 3 1 3 4
M  V30 4 1 4 5
M  V30 5 1 5 6
M  V30 6 1 6 7
M  V30 7 1 7 8
M  V30 8 2 8 9
M  V30 9 1 9 10
M  V30 10 1 10 11
M  V30 11 2 4 12
M  V30 12 1 12 13
M  V30 13 1 13 14
M  V30 14 2 14 15
M  V30 15 1 15 16
M  V30 16 2 16 17
M  V30 17 1 17 18
M  V30 18 1 18 19
M  V30 19 2 18 20
M  V30 20 2 13 21
M  V30 21 1 21 22
M  V30 22 1 22 23
M  V30 23 2 23 24
M  V30 24 1 24 2
M  V30 25 2 11 7
M  V30 26 1 23 12
M  V30 27 1 20 14
M  V30 28 1 1 25
M  V30 29 1 1 26
M  V30 30 1 1 27
M  V30 31 1 5 28
M  V30 32 1 6 29
M  V30 33 1 6 30
M  V30 34 1 8 31
M  V30 35 1 9 32
M  V30 36 1 11 33
M  V30 37 1 15 34
M  V30 38 1 16 35
M  V30 39 1 19 36
M  V30 40 1 19 37
M  V30 41 1 20 38
M  V30 42 1 21 39
M  V30 43 1 22 40
M  V30 END BOND
M  V30 END CTAB
M  END
>  <Dataset>  (953) 
ChEMBL_Kinases

>  <Ligand_Instance>  (953) 
nan

>  <PDB_ID>  (953) 
nan

>  <Standardized_SMILES>  (953) 
Cc1nc(NCc2ccoc2)c2c(-c3ccnc(N)c3)c[nH]c2n1

>  <Name>  (953) 
nan

>  <Pocket>  (953) 
nan

>  <ATP_Site>  (953) 
nan

>  <Peripheral>  (953) 
nan

>  <Num_H_Atoms_ProtBoundConf>  (953) 
nan

>  <Num_Resolved_Atoms>  (953) 
nan

>  <Num_Not_Resolved_Atoms>  (953) 
nan

$$$$
CHEMBL3590106
     RDKit          3D

  0  0  0  0  0  0  0  0  0  0999 V3000
M  V30 BEGIN CTAB
M  V30 COUNTS 51 53 0 0 0
M  V30 BEGIN ATOM
M  V30 1 C 4.063848 -4.403465 4.964585 0
M  V30 2 C 5.184114 -3.854729 4.121323 0
M  V30 3 C 5.491692 -4.839034 3.018504 0
M  V30 4 N 4.744466 -2.612152 3.490742 0
M  V30 5 C 3.620012 -2.641584 2.623264 0
M  V30 6 C 3.199860 -1.455683 2.021476 0
M  V30 7 C 2.114199 -1.425135 1.170168 0
M  V30 8 C 1.625827 -0.217571 0.510290 0
M  V30 9 C 2.398551 0.754511 -0.135529 0
M  V30 10 N 1.586867 1.717371 -0.620246 0
M  V30 11 C 0.330732 1.362542 -0.288792 0
M  V30 12 C -0.850150 2.152925 -0.636199 0
M  V30 13 O -0.729147 3.227798 -1.278295 0
M  V30 14 N -2.154292 1.724383 -0.256841 0
M  V30 15 C -3.375577 2.472789 -0.575735 0 CFG=2
M  V30 16 C -4.166271 2.787836 0.655788 0
M  V30 17 O -5.317737 3.505349 0.460216 0
M  V30 18 C -4.181513 1.646880 -1.482495 0
M  V30 19 C -5.505288 1.277520 -1.516621 0
M  V30 20 C -6.024594 0.480796 -2.505707 0
M  V30 21 C -5.245660 -0.002490 -3.534065 0
M  V30 22 C -3.913301 0.345535 -3.534906 0
M  V30 23 Cl -2.969593 -0.293051 -4.860033 0
M  V30 24 C -3.396580 1.155256 -2.525507 0
M  V30 25 C 0.303163 0.173007 0.411287 0
M  V30 26 C 1.451352 -2.610282 0.929628 0
M  V30 27 Cl 0.056619 -2.721284 -0.129208 0
M  V30 28 C 1.901909 -3.760969 1.546894 0
M  V30 29 N 2.965557 -3.789915 2.380713 0
M  V30 30 H 4.509914 -4.983440 5.817590 0
M  V30 31 H 3.407191 -5.097903 4.436035 0
M  V30 32 H 3.537675 -3.551672 5.441809 0
M  V30 33 H 6.057507 -3.703840 4.753044 0
M  V30 34 H 5.803598 -4.307588 2.095355 0
M  V30 35 H 6.313549 -5.532806 3.360959 0
M  V30 36 H 4.618272 -5.455253 2.784993 0
M  V30 37 H 5.248544 -1.732322 3.678244 0
M  V30 38 H 3.686141 -0.505049 2.179115 0
M  V30 39 H 3.476515 0.710360 -0.215586 0
M  V30 40 H 1.968320 2.530837 -1.134626 0
M  V30 41 H -2.311394 0.828968 0.283626 0
M  V30 42 H -3.111498 3.397718 -1.144140 0
M  V30 43 H -4.338984 1.836431 1.226721 0
M  V30 44 H -3.498092 3.391671 1.317109 0
M  V30 45 H -5.942133 3.287214 1.215058 0
M  V30 46 H -6.064211 1.679942 -0.689026 0
M  V30 47 H -7.072817 0.290217 -2.380441 0
M  V30 48 H -5.775851 -0.617470 -4.246881 0
M  V30 49 H -2.340288 1.326007 -2.683567 0
M  V30 50 H -0.566938 -0.334786 0.794481 0
M  V30 51 H 1.433620 -4.741099 1.410091 0
M  V30 END ATOM
M  V30 BEGIN BOND
M  V30 1 1 1 2
M  V30 2 1 2 3
M  V30 3 1 2 4
M  V30 4 1 4 5
M  V30 5 2 5 6
M  V30 6 1 6 7
M  V30 7 1 7 8
M  V30 8 2 8 9
M  V30 9 1 9 10
M  V30 10 1 10 11
M  V30 11 1 11 12
M  V30 12 2 12 13
M  V30 13 1 12 14
M  V30 14 1 14 15
M  V30 15 1 15 16
M  V30 16 1 16 17
M  V30 17 1 15 18
M  V30 18 2 18 19
M  V30 19 1 19 20
M  V30 20 2 20 21
M  V30 21 1 21 22
M  V30 22 1 22 23
M  V30 23 2 22 24
M  V30 24 2 11 25
M  V30 25 2 7 26
M  V30 26 1 26 27
M  V30 27 1 26 28
M  V30 28 2 28 29
M  V30 29 1 29 5
M  V30 30 1 25 8
M  V30 31 1 24 18
M  V30 32 1 1 30
M  V30 33 1 1 31
M  V30 34 1 1 32
M  V30 35 1 2 33
M  V30 36 1 3 34
M  V30 37 1 3 35
M  V30 38 1 3 36
M  V30 39 1 4 37
M  V30 40 1 6 38
M  V30 41 1 9 39
M  V30 42 1 10 40
M  V30 43 1 14 41
M  V30 44 1 15 42 CFG=3
M  V30 45 1 16 43
M  V30 46 1 16 44
M  V30 47 1 17 45
M  V30 48 1 19 46
M  V30 49 1 20 47
M  V30 50 1 21 48
M  V30 51 1 24 49
M  V30 52 1 25 50
M  V30 53 1 28 51
M  V30 END BOND
M  V30 END CTAB
M  END
>  <Dataset>  (954) 
ChEMBL_Kinases

>  <Ligand_Instance>  (954) 
nan

>  <PDB_ID>  (954) 
nan

>  <Standardized_SMILES>  (954) 
CC(C)Nc1cc(-c2c[nH]c(C(=O)N[C@H](CO)c3cccc(Cl)c3)c2)c(Cl)cn1

>  <Name>  (954) 
ULIXERTINIB

>  <Pocket>  (954) 
nan

>  <ATP_Site>  (954) 
nan

>  <Peripheral>  (954) 
nan

>  <Num_H_Atoms_ProtBoundConf>  (954) 
nan

>  <Num_Resolved_Atoms>  (954) 
nan

>  <Num_Not_Resolved_Atoms>  (954) 
nan

$$$$
CHEMBL4083276
     RDKit          3D

  0  0  0  0  0  0  0  0  0  0999 V3000
M  V30 BEGIN CTAB
M  V30 COUNTS 55 58 0 0 0
M  V30 BEGIN ATOM
M  V30 1 C 0.263634 -3.388137 -0.724890 0
M  V30 2 C 1.561476 -3.988896 -0.289323 0
M  V30 3 N 1.587529 -4.203024 1.145532 0
M  V30 4 C 1.992860 -3.395849 2.157184 0
M  V30 5 C 2.509722 -2.044281 1.809643 0
M  V30 6 N 1.479116 -1.051466 1.777768 0
M  V30 7 C 1.745123 0.308525 1.459583 0
M  V30 8 C 3.015449 0.753392 1.160535 0
M  V30 9 C 3.283938 2.072163 0.849439 0
M  V30 10 C 2.209630 2.969343 0.844698 0
M  V30 11 C 0.921421 2.571069 1.137314 0
M  V30 12 C -0.142163 3.571458 1.109630 0
M  V30 13 O 0.210334 4.740279 0.804317 0
M  V30 14 N -1.493431 3.249039 1.408542 0
M  V30 15 C -2.574609 4.199792 1.393861 0
M  V30 16 C -3.044905 4.561495 0.036162 0
M  V30 17 C -4.062881 3.735134 -0.452072 0
M  V30 18 C -4.622350 3.935972 -1.713064 0
M  V30 19 C -4.150381 4.976516 -2.483020 0
M  V30 20 C -3.161452 5.788597 -2.022964 0
M  V30 21 C -2.599701 5.592351 -0.764984 0
M  V30 22 C 0.729798 1.239864 1.438270 0
M  V30 23 N 1.828536 -4.034125 3.335567 0
M  V30 24 N 1.330807 -5.223398 3.106101 0
M  V30 25 C 1.176415 -5.343973 1.766040 0
M  V30 26 C 0.645341 -6.530398 1.103798 0
M  V30 27 C -0.723881 -6.587956 0.950662 0
M  V30 28 C -1.204782 -7.725453 0.318370 0
M  V30 29 N -0.376611 -8.693069 -0.108000 0
M  V30 30 C 0.964066 -8.613806 0.053809 0
M  V30 31 C 1.531770 -7.499268 0.681986 0
M  V30 32 H -0.390704 -4.102630 -1.305691 0
M  V30 33 H -0.346341 -3.054469 0.140653 0
M  V30 34 H 0.398140 -2.515955 -1.409378 0
M  V30 35 H 2.462529 -3.448192 -0.652805 0
M  V30 36 H 1.639222 -5.002121 -0.784212 0
M  V30 37 H 3.235333 -1.729870 2.616120 0
M  V30 38 H 3.107445 -2.052403 0.880617 0
M  V30 39 H 0.502925 -1.337770 1.995330 0
M  V30 40 H 3.847029 0.055943 1.164719 0
M  V30 41 H 4.299198 2.424669 0.611258 0
M  V30 42 H 2.485656 4.001932 0.590121 0
M  V30 43 H -1.766876 2.273141 1.660034 0
M  V30 44 H -3.438440 3.873059 2.012131 0
M  V30 45 H -2.176014 5.102274 1.937307 0
M  V30 46 H -4.467638 2.898993 0.123712 0
M  V30 47 H -5.409892 3.277961 -2.061823 0
M  V30 48 H -4.616496 5.094288 -3.458265 0
M  V30 49 H -2.784277 6.612261 -2.626361 0
M  V30 50 H -1.813487 6.198329 -0.336940 0
M  V30 51 H -0.268470 0.897654 1.671706 0
M  V30 52 H -1.385604 -5.809101 1.294261 0
M  V30 53 H -2.273146 -7.812074 0.177262 0
M  V30 54 H 1.669595 -9.359647 -0.268858 0
M  V30 55 H 2.605580 -7.369097 0.845861 0
M  V30 END ATOM
M  V30 BEGIN BOND
M  V30 1 1 1 2
M  V30 2 1 2 3
M  V30 3 1 3 4
M  V30 4 1 4 5
M  V30 5 1 5 6
M  V30 6 1 6 7
M  V30 7 2 7 8
M  V30 8 1 8 9
M  V30 9 2 9 10
M  V30 10 1 10 11
M  V30 11 1 11 12
M  V30 12 2 12 13
M  V30 13 1 12 14
M  V30 14 1 14 15
M  V30 15 1 15 16
M  V30 16 2 16 17
M  V30 17 1 17 18
M  V30 18 2 18 19
M  V30 19 1 19 20
M  V30 20 2 20 21
M  V30 21 2 11 22
M  V30 22 2 4 23
M  V30 23 1 23 24
M  V30 24 2 24 25
M  V30 25 1 25 26
M  V30 26 2 26 27
M  V30 27 1 27 28
M  V30 28 2 28 29
M  V30 29 1 29 30
M  V30 30 2 30 31
M  V30 31 1 25 3
M  V30 32 1 31 26
M  V30 33 1 22 7
M  V30 34 1 21 16
M  V30 35 1 1 32
M  V30 36 1 1 33
M  V30 37 1 1 34
M  V30 38 1 2 35
M  V30 39 1 2 36
M  V30 40 1 5 37
M  V30 41 1 5 38
M  V30 42 1 6 39
M  V30 43 1 8 40
M  V30 44 1 9 41
M  V30 45 1 10 42
M  V30 46 1 14 43
M  V30 47 1 15 44
M  V30 48 1 15 45
M  V30 49 1 17 46
M  V30 50 1 18 47
M  V30 51 1 19 48
M  V30 52 1 20 49
M  V30 53 1 21 50
M  V30 54 1 22 51
M  V30 55 1 27 52
M  V30 56 1 28 53
M  V30 57 1 30 54
M  V30 58 1 31 55
M  V30 END BOND
M  V30 END CTAB
M  END
>  <Dataset>  (955) 
ChEMBL_Kinases

>  <Ligand_Instance>  (955) 
nan

>  <PDB_ID>  (955) 
nan

>  <Standardized_SMILES>  (955) 
CCn1c(CNc2cccc(C(=O)NCc3ccccc3)c2)nnc1-c1ccncc1

>  <Name>  (955) 
nan

>  <Pocket>  (955) 
nan

>  <ATP_Site>  (955) 
nan

>  <Peripheral>  (955) 
nan

>  <Num_H_Atoms_ProtBoundConf>  (955) 
nan

>  <Num_Resolved_Atoms>  (955) 
nan

>  <Num_Not_Resolved_Atoms>  (955) 
nan

$$$$
CHEMBL4213984
     RDKit          3D

  0  0  0  0  0  0  0  0  0  0999 V3000
M  V30 BEGIN CTAB
M  V30 COUNTS 48 53 0 0 0
M  V30 BEGIN ATOM
M  V30 1 C 1.464212 -3.793890 -1.262510 0
M  V30 2 O 0.470958 -2.820579 -1.156445 0
M  V30 3 C -0.657138 -2.855530 -0.383390 0
M  V30 4 C -1.060515 -3.867083 0.464744 0
M  V30 5 C -2.229257 -3.776155 1.192905 0
M  V30 6 C -3.008355 -2.636374 1.060753 0
M  V30 7 C -2.641458 -1.599368 0.222416 0
M  V30 8 C -1.451548 -1.726628 -0.499086 0
M  V30 9 N -1.189135 -0.584102 -1.328080 0
M  V30 10 C -1.649067 -0.407134 -2.560816 0
M  V30 11 N -1.199835 0.788065 -3.042541 0
M  V30 12 C -0.447801 1.373980 -2.105475 0
M  V30 13 C 0.254583 2.557584 -2.014438 0
M  V30 14 C 0.939092 2.830062 -0.840129 0
M  V30 15 C 0.941649 1.959597 0.238123 0
M  V30 16 C 1.730262 2.461586 1.360177 0
M  V30 17 C 1.581040 3.799135 1.747866 0
M  V30 18 C 2.292097 4.365939 2.808309 0
M  V30 19 N 3.155754 3.582488 3.479653 0
M  V30 20 C 3.338454 2.286848 3.148251 0
M  V30 21 N 4.132388 1.296934 3.652099 0
M  V30 22 C 3.934752 0.147373 2.941508 0
M  V30 23 C 2.996187 0.403653 1.962758 0
M  V30 24 C 2.636023 1.728330 2.101254 0
M  V30 25 C 0.233640 0.780433 0.129260 0
M  V30 26 C -0.448481 0.507083 -1.038733 0
M  V30 27 C -4.198878 -2.797192 1.947510 0
M  V30 28 N -3.858378 -3.865325 2.853694 0
M  V30 29 C -2.889114 -4.694745 2.159074 0
M  V30 30 H 1.757269 -3.997489 -2.326344 0
M  V30 31 H 2.371647 -3.597389 -0.667422 0
M  V30 32 H 1.057329 -4.767102 -0.905618 0
M  V30 33 H -0.403996 -4.729405 0.519921 0
M  V30 34 H -3.296643 -0.736285 0.165884 0
M  V30 35 H -2.285934 -1.113873 -3.094953 0
M  V30 36 H 0.230605 3.212340 -2.874123 0
M  V30 37 H 1.456559 3.782946 -0.872750 0
M  V30 38 H 0.878297 4.451903 1.207994 0
M  V30 39 H 2.141109 5.406061 3.069323 0
M  V30 40 H 4.792725 1.364103 4.444448 0
M  V30 41 H 4.443025 -0.793254 3.135430 0
M  V30 42 H 2.632169 -0.313524 1.240642 0
M  V30 43 H 0.292872 0.166182 1.017536 0
M  V30 44 H -5.123461 -2.959268 1.374929 0
M  V30 45 H -4.369488 -1.884832 2.576656 0
M  V30 46 H -3.441722 -3.483946 3.731944 0
M  V30 47 H -2.209498 -5.099325 2.926806 0
M  V30 48 H -3.350968 -5.520042 1.585708 0
M  V30 END ATOM
M  V30 BEGIN BOND
M  V30 1 1 1 2
M  V30 2 1 2 3
M  V30 3 2 3 4
M  V30 4 1 4 5
M  V30 5 2 5 6
M  V30 6 1 6 7
M  V30 7 2 7 8
M  V30 8 1 8 9
M  V30 9 1 9 10
M  V30 10 2 10 11
M  V30 11 1 11 12
M  V30 12 2 12 13
M  V30 13 1 13 14
M  V30 14 2 14 15
M  V30 15 1 15 16
M  V30 16 2 16 17
M  V30 17 1 17 18
M  V30 18 2 18 19
M  V30 19 1 19 20
M  V30 20 1 20 21
M  V30 21 1 21 22
M  V30 22 2 22 23
M  V30 23 1 23 24
M  V30 24 1 15 25
M  V30 25 2 25 26
M  V30 26 1 6 27
M  V30 27 1 27 28
M  V30 28 1 28 29
M  V30 29 1 8 3
M  V30 30 1 26 9
M  V30 31 1 29 5
M  V30 32 1 26 12
M  V30 33 1 24 16
M  V30 34 2 24 20
M  V30 35 1 1 30
M  V30 36 1 1 31
M  V30 37 1 1 32
M  V30 38 1 4 33
M  V30 39 1 7 34
M  V30 40 1 10 35
M  V30 41 1 13 36
M  V30 42 1 14 37
M  V30 43 1 17 38
M  V30 44 1 18 39
M  V30 45 1 21 40
M  V30 46 1 22 41
M  V30 47 1 23 42
M  V30 48 1 25 43
M  V30 49 1 27 44
M  V30 50 1 27 45
M  V30 51 1 28 46
M  V30 52 1 29 47
M  V30 53 1 29 48
M  V30 END BOND
M  V30 END CTAB
M  END
>  <Dataset>  (956) 
ChEMBL_Kinases

>  <Ligand_Instance>  (956) 
nan

>  <PDB_ID>  (956) 
nan

>  <Standardized_SMILES>  (956) 
COc1cc2c(cc1-n1cnc3ccc(-c4ccnc5[nH]ccc45)cc31)CNC2

>  <Name>  (956) 
nan

>  <Pocket>  (956) 
nan

>  <ATP_Site>  (956) 
nan

>  <Peripheral>  (956) 
nan

>  <Num_H_Atoms_ProtBoundConf>  (956) 
nan

>  <Num_Resolved_Atoms>  (956) 
nan

>  <Num_Not_Resolved_Atoms>  (956) 
nan

$$$$
CHEMBL1234833
     RDKit          3D

  0  0  0  0  0  0  0  0  0  0999 V3000
M  V30 BEGIN CTAB
M  V30 COUNTS 55 57 0 0 0
M  V30 BEGIN ATOM
M  V30 1 C 1.394112 -1.982966 -2.929524 0
M  V30 2 C 1.394385 -0.628628 -2.255970 0
M  V30 3 C 0.037036 0.016210 -2.445148 0
M  V30 4 C 1.719198 -0.765016 -0.804228 0
M  V30 5 C 3.019388 -0.663725 -0.300563 0
M  V30 6 N 2.901430 -0.839219 1.036989 0
M  V30 7 N 1.638648 -1.032755 1.339242 0
M  V30 8 C 0.996269 -1.254389 2.499090 0
M  V30 9 N 1.694294 -1.310984 3.731138 0
M  V30 10 C 1.771389 -0.065192 4.425260 0
M  V30 11 C 2.421613 1.029845 3.705437 0
M  V30 12 C 3.758996 1.370311 3.704677 0
M  V30 13 C 4.172276 2.461142 2.944740 0
M  V30 14 C 3.288309 3.210733 2.194070 0
M  V30 15 C 1.957345 2.867510 2.198162 0
M  V30 16 C 1.514662 1.780994 2.948990 0
M  V30 17 C -0.361928 -1.430720 2.537051 0
M  V30 18 C -1.163878 -1.392560 1.388995 0
M  V30 19 N -2.567800 -1.574555 1.455845 0
M  V30 20 C -3.485207 -1.570452 0.324878 0 CFG=1
M  V30 21 C -3.430264 -0.327070 -0.469684 0
M  V30 22 O -4.310801 -0.306265 -1.542542 0
M  V30 23 C -3.266676 -2.857062 -0.395242 0 CFG=2
M  V30 24 O -1.975065 -3.033886 -0.886003 0
M  V30 25 C -4.322168 -3.284903 -1.349800 0
M  V30 26 O -4.342481 -2.668383 -2.569481 0
M  V30 27 N -0.488608 -1.168784 0.248575 0
M  V30 28 C 0.839444 -1.002407 0.259439 0
M  V30 29 H 0.326328 -2.328993 -3.046026 0
M  V30 30 H 2.018312 -2.724168 -2.434813 0
M  V30 31 H 1.740302 -1.830422 -3.978286 0
M  V30 32 H 2.142406 0.052785 -2.712909 0
M  V30 33 H 0.041200 0.739767 -3.291416 0
M  V30 34 H -0.784158 -0.705045 -2.593324 0
M  V30 35 H -0.239181 0.630594 -1.548868 0
M  V30 36 H 3.891477 -0.484017 -0.895434 0
M  V30 37 H 2.077869 -2.260259 3.998706 0
M  V30 38 H 2.384275 -0.227571 5.360230 0
M  V30 39 H 0.765173 0.217321 4.814178 0
M  V30 40 H 4.393970 0.748085 4.308682 0
M  V30 41 H 5.245796 2.705020 2.966102 0
M  V30 42 H 3.654713 4.063478 1.608486 0
M  V30 43 H 1.280919 3.481855 1.592195 0
M  V30 44 H 0.446618 1.623769 2.861399 0
M  V30 45 H -0.862738 -1.611430 3.501240 0
M  V30 46 H -2.949778 -1.725771 2.440971 0
M  V30 47 H -4.524767 -1.636144 0.763902 0
M  V30 48 H -3.678464 0.591355 0.122815 0
M  V30 49 H -2.414001 -0.150201 -0.908808 0
M  V30 50 H -4.262425 0.576454 -1.985124 0
M  V30 51 H -3.313098 -3.648692 0.442710 0
M  V30 52 H -1.642404 -3.965449 -0.791472 0
M  V30 53 H -5.329681 -3.271658 -0.861230 0
M  V30 54 H -4.142099 -4.381241 -1.550038 0
M  V30 55 H -5.125400 -2.997187 -3.071011 0
M  V30 END ATOM
M  V30 BEGIN BOND
M  V30 1 1 1 2
M  V30 2 1 2 3
M  V30 3 1 2 4
M  V30 4 1 4 5
M  V30 5 2 5 6
M  V30 6 1 6 7
M  V30 7 1 7 8
M  V30 8 1 8 9
M  V30 9 1 9 10
M  V30 10 1 10 11
M  V30 11 2 11 12
M  V30 12 1 12 13
M  V30 13 2 13 14
M  V30 14 1 14 15
M  V30 15 2 15 16
M  V30 16 2 8 17
M  V30 17 1 17 18
M  V30 18 1 18 19
M  V30 19 1 19 20
M  V30 20 1 20 21
M  V30 21 1 21 22
M  V30 22 1 20 23
M  V30 23 1 23 24
M  V30 24 1 23 25
M  V30 25 1 25 26
M  V30 26 2 18 27
M  V30 27 1 27 28
M  V30 28 2 28 4
M  V30 29 1 28 7
M  V30 30 1 16 11
M  V30 31 1 1 29
M  V30 32 1 1 30
M  V30 33 1 1 31
M  V30 34 1 2 32
M  V30 35 1 3 33
M  V30 36 1 3 34
M  V30 37 1 3 35
M  V30 38 1 5 36
M  V30 39 1 9 37
M  V30 40 1 10 38
M  V30 41 1 10 39
M  V30 42 1 12 40
M  V30 43 1 13 41
M  V30 44 1 14 42
M  V30 45 1 15 43
M  V30 46 1 16 44
M  V30 47 1 17 45
M  V30 48 1 19 46
M  V30 49 1 20 47 CFG=1
M  V30 50 1 21 48
M  V30 51 1 21 49
M  V30 52 1 22 50
M  V30 53 1 23 51 CFG=1
M  V30 54 1 24 52
M  V30 55 1 25 53
M  V30 56 1 25 54
M  V30 57 1 26 55
M  V30 END BOND
M  V30 END CTAB
M  END
>  <Dataset>  (957) 
ChEMBL_Kinases

>  <Ligand_Instance>  (957) 
nan

>  <PDB_ID>  (957) 
nan

>  <Standardized_SMILES>  (957) 
CC(C)c1cnn2c(NCc3ccccc3)cc(N[C@@H](CO)[C@H](O)CO)nc12

>  <Name>  (957) 
nan

>  <Pocket>  (957) 
nan

>  <ATP_Site>  (957) 
nan

>  <Peripheral>  (957) 
nan

>  <Num_H_Atoms_ProtBoundConf>  (957) 
nan

>  <Num_Resolved_Atoms>  (957) 
nan

>  <Num_Not_Resolved_Atoms>  (957) 
nan

$$$$
CHEMBL4460561
     RDKit          3D

  0  0  0  0  0  0  0  0  0  0999 V3000
M  V30 BEGIN CTAB
M  V30 COUNTS 37 40 0 0 0
M  V30 BEGIN ATOM
M  V30 1 C 1.073472 -5.615582 2.087370 0
M  V30 2 C 1.054815 -4.140176 2.050362 0
M  V30 3 N 1.546577 -3.287122 2.991548 0
M  V30 4 C 1.346821 -2.023211 2.607988 0
M  V30 5 C 1.673973 -0.838720 3.233739 0
M  V30 6 C 1.322774 0.313441 2.560299 0
M  V30 7 C 0.684564 0.315598 1.337947 0
M  V30 8 C 0.306184 1.522958 0.612636 0
M  V30 9 C -0.322913 1.370934 -0.592152 0
M  V30 10 C -0.676961 2.539261 -1.270378 0
M  V30 11 N -1.337693 2.336793 -2.535720 0
M  V30 12 N -0.440222 3.773014 -0.817161 0
M  V30 13 C 0.186728 3.942976 0.383493 0
M  V30 14 N 0.466125 5.237060 0.918462 0
M  V30 15 C 0.536905 2.789735 1.054303 0
M  V30 16 N 0.394685 -0.875480 0.783558 0
M  V30 17 C 0.703884 -2.057343 1.376590 0
M  V30 18 N 0.541768 -3.356636 1.067104 0
M  V30 19 C -0.082029 -3.858814 -0.127329 0
M  V30 20 C -1.162924 -2.988901 -0.806664 0
M  V30 21 C 0.176140 -3.160373 -1.419539 0
M  V30 22 H 1.576376 -6.055630 1.183197 0
M  V30 23 H 0.096757 -6.092468 2.162413 0
M  V30 24 H 1.750743 -5.925511 2.931726 0
M  V30 25 H 2.173708 -0.782359 4.190772 0
M  V30 26 H 1.563619 1.261010 3.020967 0
M  V30 27 H -0.543512 0.400059 -1.014474 0
M  V30 28 H -2.305100 2.761522 -2.419966 0
M  V30 29 H -2.290264 2.586344 -2.882105 0
M  V30 30 H -0.153895 6.070075 1.004737 0
M  V30 31 H 1.408184 5.466730 1.301351 0
M  V30 32 H 1.029174 2.941888 1.997035 0
M  V30 33 H -0.297917 -4.949009 -0.178785 0
M  V30 34 H -2.046216 -3.499337 -1.237128 0
M  V30 35 H -1.380294 -2.022540 -0.311078 0
M  V30 36 H 0.191787 -3.783557 -2.344420 0
M  V30 37 H 0.831826 -2.273053 -1.457726 0
M  V30 END ATOM
M  V30 BEGIN BOND
M  V30 1 1 1 2
M  V30 2 2 2 3
M  V30 3 1 3 4
M  V30 4 2 4 5
M  V30 5 1 5 6
M  V30 6 2 6 7
M  V30 7 1 7 8
M  V30 8 2 8 9
M  V30 9 1 9 10
M  V30 10 1 10 11
M  V30 11 2 10 12
M  V30 12 1 12 13
M  V30 13 1 13 14
M  V30 14 2 13 15
M  V30 15 1 7 16
M  V30 16 2 16 17
M  V30 17 1 17 18
M  V30 18 1 18 19
M  V30 19 1 19 20
M  V30 20 1 20 21
M  V30 21 1 18 2
M  V30 22 1 21 19
M  V30 23 1 17 4
M  V30 24 1 15 8
M  V30 25 1 1 22
M  V30 26 1 1 23
M  V30 27 1 1 24
M  V30 28 1 5 25
M  V30 29 1 6 26
M  V30 30 1 9 27
M  V30 31 1 11 28
M  V30 32 1 11 29
M  V30 33 1 14 30
M  V30 34 1 14 31
M  V30 35 1 15 32
M  V30 36 1 19 33
M  V30 37 1 20 34
M  V30 38 1 20 35
M  V30 39 1 21 36
M  V30 40 1 21 37
M  V30 END BOND
M  V30 END CTAB
M  END
>  <Dataset>  (958) 
ChEMBL_Kinases

>  <Ligand_Instance>  (958) 
nan

>  <PDB_ID>  (958) 
nan

>  <Standardized_SMILES>  (958) 
Cc1nc2ccc(-c3cc(N)nc(N)c3)nc2n1C1CC1

>  <Name>  (958) 
nan

>  <Pocket>  (958) 
nan

>  <ATP_Site>  (958) 
nan

>  <Peripheral>  (958) 
nan

>  <Num_H_Atoms_ProtBoundConf>  (958) 
nan

>  <Num_Resolved_Atoms>  (958) 
nan

>  <Num_Not_Resolved_Atoms>  (958) 
nan

$$$$
CHEMBL2023845
     RDKit          3D

  0  0  0  0  0  0  0  0  0  0999 V3000
M  V30 BEGIN CTAB
M  V30 COUNTS 261 266 0 0 0
M  V30 BEGIN ATOM
M  V30 1 C 5.729086 -4.502910 10.541350 0
M  V30 2 N 4.399870 -5.030868 10.273457 0
M  V30 3 C 4.180542 -6.470006 10.177944 0
M  V30 4 C 3.281235 -4.177056 10.086468 0
M  V30 5 C 2.018633 -4.693974 9.825980 0
M  V30 6 C 1.000332 -3.797857 9.658445 0
M  V30 7 C 1.110523 -2.422681 9.724303 0
M  V30 8 C 2.399890 -1.979773 9.987760 0
M  V30 9 C 3.481391 -2.816532 10.169468 0
M  V30 10 O 2.600374 -0.608813 10.070637 0
M  V30 11 C 1.565366 0.300548 9.900000 0
M  V30 12 C 1.807766 1.601029 9.989523 0
M  V30 13 C 0.773299 2.656993 9.823938 0
M  V30 14 N 0.705558 3.504470 11.005728 0
M  V30 15 C -0.318433 4.500026 10.755436 0
M  V30 16 C 1.971244 4.200844 11.103041 0
M  V30 17 C -0.520246 2.000458 9.556377 0
M  V30 18 C -0.846857 0.727501 9.452375 0
M  V30 19 C 0.244293 -0.208307 9.628380 0
M  V30 20 C -0.016065 -1.494050 9.533865 0
M  V30 21 C -1.302424 -2.078273 9.194661 0
M  V30 22 C -1.938808 -2.951212 10.057875 0
M  V30 23 C -3.131104 -3.611743 9.869257 0
M  V30 24 C -3.746254 -3.351509 8.661046 0
M  V30 25 C -5.018206 -4.003449 8.389055 0
M  V30 26 O -5.486497 -4.776922 9.272578 0
M  V30 27 O -5.753266 -3.840995 7.237221 0
M  V30 28 C -3.193401 -2.490406 7.716658 0
M  V30 29 C -1.975379 -1.865461 7.997747 0
M  V30 30 C -1.468128 -1.023111 6.946855 0
M  V30 31 O -2.287506 -0.294925 6.328800 0
M  V30 32 N -0.136167 -0.893233 6.499506 0
M  V30 33 C 0.892112 -0.357366 5.653233 0 CFG=2
M  V30 34 C 1.955828 0.270616 6.451838 0
M  V30 35 C 3.066045 0.861096 5.660185 0
M  V30 36 C 3.791977 -0.173657 4.811502 0
M  V30 37 C 4.884733 0.575718 4.059702 0
M  V30 38 N 5.617337 -0.354757 3.241515 0
M  V30 39 C 0.213979 0.651502 4.732588 0
M  V30 40 O 0.502508 1.851516 4.460831 0
M  V30 41 N -0.944808 0.257349 4.004819 0
M  V30 42 C -1.698429 1.092846 3.135896 0
M  V30 43 N -1.336069 2.301262 3.025315 0
M  V30 44 N -2.823069 0.617882 2.384853 0
M  V30 45 C -4.027932 1.433555 2.218004 0
M  V30 46 C -5.024134 0.697960 1.339262 0
M  V30 47 C -5.376037 -0.637230 1.943095 0
M  V30 48 C -6.361489 -1.325355 1.050121 0 CFG=1
M  V30 49 N -5.810741 -1.500578 -0.280908 0
M  V30 50 C -6.655183 -1.270581 -1.399572 0
M  V30 51 O -7.861198 -0.942861 -1.073616 0
M  V30 52 C -6.657222 -1.267685 -2.864261 0 CFG=1
M  V30 53 C -7.223285 0.069089 -3.295004 0
M  V30 54 C -7.359522 0.268940 -4.760276 0
M  V30 55 C -8.260480 -0.735469 -5.424758 0
M  V30 56 N -8.327487 -0.447259 -6.836460 0
M  V30 57 C -9.188984 -1.350716 -7.523894 0
M  V30 58 N -10.056308 -2.160876 -7.038795 0
M  V30 59 N -9.203044 -1.484616 -8.942946 0
M  V30 60 N -5.361342 -1.585703 -3.335223 0
M  V30 61 C -4.649253 -1.958746 -4.466844 0
M  V30 62 O -5.305820 -2.063235 -5.549232 0
M  V30 63 C -3.296685 -2.306092 -4.913270 0 CFG=1
M  V30 64 C -3.247932 -3.859686 -5.054059 0
M  V30 65 C -1.858798 -4.249193 -5.500737 0
M  V30 66 C -1.747958 -5.752156 -5.682979 0
M  V30 67 N -0.386592 -6.023281 -6.083499 0
M  V30 68 C 0.155012 -5.636197 -7.320531 0
M  V30 69 N -0.650929 -5.301002 -8.289231 0
M  V30 70 N 1.594803 -5.645992 -7.415312 0
M  V30 71 N -3.009274 -1.740110 -6.221031 0
M  V30 72 C -1.623629 -1.341975 -6.272605 0
M  V30 73 O -0.679540 -1.437128 -5.446384 0
M  V30 74 C -0.792503 -0.658363 -7.324174 0 CFG=1
M  V30 75 C -0.887047 0.867390 -6.891260 0
M  V30 76 C -2.310056 1.315787 -6.884352 0
M  V30 77 C -2.391440 2.729341 -6.396268 0
M  V30 78 N -1.655492 3.692018 -7.179107 0
M  V30 79 C -1.822649 5.006165 -6.594971 0
M  V30 80 N -2.513984 5.303356 -5.557037 0
M  V30 81 N -1.140155 6.098373 -7.241075 0
M  V30 82 N 0.592676 -0.949540 -7.037988 0
M  V30 83 C 1.633554 -0.984559 -8.050656 0
M  V30 84 O 1.199314 -0.712847 -9.226804 0
M  V30 85 C 3.043879 -1.243379 -8.133461 0 CFG=1
M  V30 86 C 3.965291 -0.138406 -8.532887 0
M  V30 87 C 4.044859 1.073161 -7.705467 0
M  V30 88 C 2.817307 1.894940 -7.572249 0
M  V30 89 N 3.027312 3.088399 -6.718813 0
M  V30 90 C 3.870649 4.149245 -7.186305 0
M  V30 91 N 4.588508 4.074530 -8.235970 0
M  V30 92 N 3.873435 5.342305 -6.394131 0
M  V30 93 N 3.594739 -1.754538 -6.853341 0
M  V30 94 C 4.822267 -2.481342 -6.740922 0
M  V30 95 O 5.587116 -2.723442 -7.683905 0
M  V30 96 C 5.102430 -2.920912 -5.372610 0 CFG=1
M  V30 97 C 5.682876 -1.726864 -4.553991 0
M  V30 98 C 6.951902 -1.207025 -5.163075 0
M  V30 99 C 7.459069 -0.079223 -4.265472 0
M  V30 100 N 6.506987 0.994772 -4.150162 0
M  V30 101 C 6.744203 2.165436 -3.358266 0
M  V30 102 N 7.793658 2.242968 -2.619384 0
M  V30 103 N 5.793054 3.208316 -3.427805 0
M  V30 104 N 3.866033 -3.224959 -4.643675 0
M  V30 105 C 3.418509 -3.537618 -3.348274 0
M  V30 106 O 4.431478 -3.528535 -2.571508 0
M  V30 107 C 1.994544 -3.787011 -3.152327 0
M  V30 108 C 1.479776 -3.562125 -1.765537 0
M  V30 109 C 2.166966 -4.400742 -0.751789 0
M  V30 110 C 1.720759 -4.149882 0.663471 0
M  V30 111 C 2.043531 -2.821753 1.254678 0
M  V30 112 N 1.629760 -1.670381 0.531492 0
M  V30 113 C 1.705106 -0.418128 1.328018 0
M  V30 114 C 1.290447 0.713997 0.354695 0
M  V30 115 N -0.011862 0.499694 -0.144573 0
M  V30 116 S -0.560178 1.659899 -1.239164 0
M  V30 117 O 0.302354 1.585389 -2.519569 0
M  V30 118 O -1.921986 1.163107 -1.742941 0
M  V30 119 C -0.689781 3.283180 -0.702551 0
M  V30 120 C -1.978408 3.724045 -0.365205 0
M  V30 121 C -2.259071 4.975573 0.146678 0
M  V30 122 C -1.238487 5.871961 0.350360 0
M  V30 123 C 0.067015 5.476363 0.025048 0
M  V30 124 C 1.132479 6.353991 0.183053 0
M  V30 125 N 2.387225 5.944216 -0.175084 0
M  V30 126 C 2.615336 4.717112 -0.675732 0
M  V30 127 C 1.557781 3.869232 -0.822309 0
M  V30 128 C 0.275429 4.226451 -0.476349 0
M  V30 129 C -6.541008 -2.724176 1.586883 0
M  V30 130 N -6.267694 -3.989289 1.001928 0
M  V30 131 O -7.020461 -2.625501 2.759742 0
M  V30 132 H 5.924438 -3.780704 9.695648 0
M  V30 133 H 5.825685 -4.012506 11.516134 0
M  V30 134 H 6.493954 -5.278358 10.457245 0
M  V30 135 H 5.092749 -7.054169 10.255720 0
M  V30 136 H 3.519457 -6.794692 11.023810 0
M  V30 137 H 3.663198 -6.716620 9.217035 0
M  V30 138 H 1.904862 -5.746451 9.771721 0
M  V30 139 H 0.039914 -4.232779 9.454481 0
M  V30 140 H 4.458587 -2.397374 10.367941 0
M  V30 141 H 2.797428 1.968323 10.190567 0
M  V30 142 H 0.986711 3.328866 8.955618 0
M  V30 143 H -0.276916 4.739970 9.667853 0
M  V30 144 H -1.333941 4.116843 10.964038 0
M  V30 145 H -0.124266 5.458630 11.278584 0
M  V30 146 H 2.790560 3.579113 11.496920 0
M  V30 147 H 2.219700 4.665921 10.116262 0
M  V30 148 H 1.858913 5.073166 11.808651 0
M  V30 149 H -1.295127 2.750903 9.431179 0
M  V30 150 H -1.850378 0.432051 9.269719 0
M  V30 151 H -1.420261 -3.132795 11.007173 0
M  V30 152 H -3.512443 -4.264816 10.640025 0
M  V30 153 H -6.655604 -4.289512 7.161012 0
M  V30 154 H -3.714159 -2.337346 6.802244 0
M  V30 155 H 0.458738 -1.554961 7.091086 0
M  V30 156 H 1.196408 -1.125795 4.886730 0
M  V30 157 H 1.509357 1.051789 7.112313 0
M  V30 158 H 2.422095 -0.549969 7.080130 0
M  V30 159 H 3.836821 1.290216 6.370296 0
M  V30 160 H 2.763068 1.663669 4.965751 0
M  V30 161 H 3.065962 -0.582066 4.083930 0
M  V30 162 H 4.216617 -0.998479 5.407286 0
M  V30 163 H 5.583178 1.069479 4.776652 0
M  V30 164 H 4.445105 1.365400 3.450329 0
M  V30 165 H 5.914866 0.129351 2.349999 0
M  V30 166 H 6.457965 -0.732652 3.776115 0
M  V30 167 H -1.280259 -0.752974 4.053707 0
M  V30 168 H -1.847045 2.956219 2.406112 0
M  V30 169 H -2.712403 -0.360955 1.972761 0
M  V30 170 H -4.448432 1.599318 3.225238 0
M  V30 171 H -3.738883 2.388746 1.789225 0
M  V30 172 H -5.958252 1.317090 1.342456 0
M  V30 173 H -4.695741 0.625279 0.303031 0
M  V30 174 H -5.920535 -0.454022 2.910925 0
M  V30 175 H -4.509400 -1.298497 2.087462 0
M  V30 176 H -7.354581 -0.878501 1.033878 0
M  V30 177 H -4.895914 -1.761949 -0.669847 0
M  V30 178 H -7.378835 -1.998659 -3.267827 0
M  V30 179 H -6.723474 0.922189 -2.802887 0
M  V30 180 H -8.253560 0.068525 -2.867363 0
M  V30 181 H -6.387422 0.368601 -5.243717 0
M  V30 182 H -7.868923 1.265593 -4.965571 0
M  V30 183 H -9.312719 -0.637968 -5.027751 0
M  V30 184 H -8.004140 -1.781811 -5.286351 0
M  V30 185 H -7.901202 0.267399 -7.490215 0
M  V30 186 H -10.189172 -2.204212 -6.013103 0
M  V30 187 H -9.222090 -1.579476 -9.975402 0
M  V30 188 H -8.611399 -1.732003 -9.768445 0
M  V30 189 H -4.549839 -1.539904 -2.627005 0
M  V30 190 H -2.553169 -2.083190 -4.163561 0
M  V30 191 H -3.426735 -4.292602 -4.070222 0
M  V30 192 H -4.030814 -4.190661 -5.759528 0
M  V30 193 H -1.159236 -3.984442 -4.671598 0
M  V30 194 H -1.618692 -3.797207 -6.463243 0
M  V30 195 H -2.388797 -6.067882 -6.551011 0
M  V30 196 H -2.099378 -6.318657 -4.824144 0
M  V30 197 H 0.175156 -6.531223 -5.380041 0
M  V30 198 H -0.174438 -5.025014 -9.175573 0
M  V30 199 H 2.524829 -5.178864 -7.596181 0
M  V30 200 H 2.017658 -6.595123 -7.193469 0
M  V30 201 H -3.441741 -1.525341 -7.113494 0
M  V30 202 H -1.130080 -0.739508 -8.328342 0
M  V30 203 H -0.335644 1.390697 -7.672780 0
M  V30 204 H -0.356958 0.923539 -5.943413 0
M  V30 205 H -2.694862 1.271915 -7.920283 0
M  V30 206 H -2.951450 0.667851 -6.243264 0
M  V30 207 H -3.468589 3.074113 -6.349074 0
M  V30 208 H -2.047046 2.820900 -5.325424 0
M  V30 209 H -1.066390 3.587241 -8.030846 0
M  V30 210 H -2.572746 6.267383 -5.218546 0
M  V30 211 H -0.535540 6.736607 -7.795942 0
M  V30 212 H -1.407333 7.092403 -7.089485 0
M  V30 213 H 1.040228 -1.166735 -6.132705 0
M  V30 214 H 3.245175 -2.061802 -8.899847 0
M  V30 215 H 3.810907 0.132664 -9.630954 0
M  V30 216 H 5.001229 -0.615524 -8.561253 0
M  V30 217 H 4.866159 1.753657 -8.095321 0
M  V30 218 H 4.460976 0.781675 -6.690606 0
M  V30 219 H 2.450668 2.275958 -8.550651 0
M  V30 220 H 1.991964 1.294972 -7.158253 0
M  V30 221 H 2.534259 3.115285 -5.778977 0
M  V30 222 H 5.171688 4.884140 -8.510963 0
M  V30 223 H 4.016348 5.848643 -5.497706 0
M  V30 224 H 3.589061 6.180692 -6.972425 0
M  V30 225 H 2.985228 -1.480809 -6.057547 0
M  V30 226 H 5.842825 -3.688328 -5.223597 0
M  V30 227 H 5.956889 -2.159761 -3.577059 0
M  V30 228 H 4.899755 -0.952152 -4.512818 0
M  V30 229 H 6.822751 -0.769164 -6.177949 0
M  V30 230 H 7.731257 -1.996394 -5.140371 0
M  V30 231 H 8.451561 0.272145 -4.587234 0
M  V30 232 H 7.535717 -0.568074 -3.246712 0
M  V30 233 H 5.605339 0.930194 -4.654763 0
M  V30 234 H 7.974012 3.095352 -2.035848 0
M  V30 235 H 5.120461 2.922554 -2.654390 0
M  V30 236 H 5.281133 4.069761 -3.709119 0
M  V30 237 H 3.066421 -3.236413 -5.351691 0
M  V30 238 H 1.742749 -4.844997 -3.452788 0
M  V30 239 H 1.436389 -3.167919 -3.893590 0
M  V30 240 H 1.272777 -2.516503 -1.554612 0
M  V30 241 H 0.373136 -3.971110 -1.851952 0
M  V30 242 H 1.913810 -5.479599 -0.994671 0
M  V30 243 H 3.293737 -4.392226 -0.821470 0
M  V30 244 H 2.223020 -4.935092 1.306578 0
M  V30 245 H 0.631082 -4.389119 0.715439 0
M  V30 246 H 3.134368 -2.757236 1.502265 0
M  V30 247 H 1.538417 -2.808664 2.269337 0
M  V30 248 H 2.474556 -1.462447 -0.170371 0
M  V30 249 H 2.726122 -0.182411 1.644739 0
M  V30 250 H 1.023248 -0.486996 2.154459 0
M  V30 251 H 1.320836 1.667063 0.928759 0
M  V30 252 H 2.029519 0.666740 -0.464628 0
M  V30 253 H -0.364310 -0.451707 -0.227589 0
M  V30 254 H -2.827227 3.083100 -0.501483 0
M  V30 255 H -3.262657 5.284533 0.398429 0
M  V30 256 H -1.336597 6.879648 0.746248 0
M  V30 257 H 0.950447 7.337232 0.578492 0
M  V30 258 H 3.604165 4.381141 -0.963363 0
M  V30 259 H 1.753937 2.901487 -1.248592 0
M  V30 260 H -7.035786 -4.017019 0.270528 0
M  V30 261 H -5.473818 -4.560641 1.356408 0
M  V30 END ATOM
M  V30 BEGIN BOND
M  V30 1 1 1 2
M  V30 2 1 2 3
M  V30 3 1 2 4
M  V30 4 2 4 5
M  V30 5 1 5 6
M  V30 6 2 6 7
M  V30 7 1 7 8
M  V30 8 2 8 9
M  V30 9 1 8 10
M  V30 10 1 10 11
M  V30 11 2 11 12
M  V30 12 1 12 13
M  V30 13 1 13 14
M  V30 14 1 14 15
M  V30 15 1 14 16
M  V30 16 1 13 17
M  V30 17 2 17 18
M  V30 18 1 18 19
M  V30 19 2 19 20
M  V30 20 1 20 21
M  V30 21 2 21 22
M  V30 22 1 22 23
M  V30 23 2 23 24
M  V30 24 1 24 25
M  V30 25 2 25 26
M  V30 26 1 25 27
M  V30 27 1 24 28
M  V30 28 2 28 29
M  V30 29 1 29 30
M  V30 30 2 30 31
M  V30 31 1 30 32
M  V30 32 1 32 33
M  V30 33 1 33 34
M  V30 34 1 34 35
M  V30 35 1 35 36
M  V30 36 1 36 37
M  V30 37 1 37 38
M  V30 38 1 33 39
M  V30 39 2 39 40
M  V30 40 1 39 41
M  V30 41 1 41 42
M  V30 42 2 42 43 CFG=2
M  V30 43 1 42 44
M  V30 44 1 44 45
M  V30 45 1 45 46
M  V30 46 1 46 47
M  V30 47 1 47 48
M  V30 48 1 48 49
M  V30 49 1 49 50
M  V30 50 2 50 51
M  V30 51 1 50 52
M  V30 52 1 52 53
M  V30 53 1 53 54
M  V30 54 1 54 55
M  V30 55 1 55 56
M  V30 56 1 56 57
M  V30 57 2 57 58 CFG=2
M  V30 58 1 57 59
M  V30 59 1 52 60
M  V30 60 1 60 61
M  V30 61 2 61 62
M  V30 62 1 61 63
M  V30 63 1 63 64
M  V30 64 1 64 65
M  V30 65 1 65 66
M  V30 66 1 66 67
M  V30 67 1 67 68
M  V30 68 2 68 69 CFG=2
M  V30 69 1 68 70
M  V30 70 1 63 71
M  V30 71 1 71 72
M  V30 72 2 72 73
M  V30 73 1 72 74
M  V30 74 1 74 75
M  V30 75 1 75 76
M  V30 76 1 76 77
M  V30 77 1 77 78
M  V30 78 1 78 79
M  V30 79 2 79 80 CFG=2
M  V30 80 1 79 81
M  V30 81 1 74 82
M  V30 82 1 82 83
M  V30 83 2 83 84
M  V30 84 1 83 85
M  V30 85 1 85 86
M  V30 86 1 86 87
M  V30 87 1 87 88
M  V30 88 1 88 89
M  V30 89 1 89 90
M  V30 90 2 90 91 CFG=2
M  V30 91 1 90 92
M  V30 92 1 85 93
M  V30 93 1 93 94
M  V30 94 2 94 95
M  V30 95 1 94 96
M  V30 96 1 96 97
M  V30 97 1 97 98
M  V30 98 1 98 99
M  V30 99 1 99 100
M  V30 100 1 100 101
M  V30 101 2 101 102 CFG=2
M  V30 102 1 101 103
M  V30 103 1 96 104
M  V30 104 1 104 105
M  V30 105 2 105 106
M  V30 106 1 105 107
M  V30 107 1 107 108
M  V30 108 1 108 109
M  V30 109 1 109 110
M  V30 110 1 110 111
M  V30 111 1 111 112
M  V30 112 1 112 113
M  V30 113 1 113 114
M  V30 114 1 114 115
M  V30 115 1 115 116
M  V30 116 2 116 117
M  V30 117 2 116 118
M  V30 118 1 116 119
M  V30 119 2 119 120
M  V30 120 1 120 121
M  V30 121 2 121 122
M  V30 122 1 122 123
M  V30 123 2 123 124
M  V30 124 1 124 125
M  V30 125 2 125 126
M  V30 126 1 126 127
M  V30 127 2 127 128
M  V30 128 1 48 129
M  V30 129 1 129 130
M  V30 130 2 129 131
M  V30 131 1 9 4
M  V30 132 1 19 11
M  V30 133 1 29 21
M  V30 134 1 128 119
M  V30 135 1 20 7
M  V30 136 1 128 123
M  V30 137 1 1 132
M  V30 138 1 1 133
M  V30 139 1 1 134
M  V30 140 1 3 135
M  V30 141 1 3 136
M  V30 142 1 3 137
M  V30 143 1 5 138
M  V30 144 1 6 139
M  V30 145 1 9 140
M  V30 146 1 12 141
M  V30 147 1 13 142
M  V30 148 1 15 143
M  V30 149 1 15 144
M  V30 150 1 15 145
M  V30 151 1 16 146
M  V30 152 1 16 147
M  V30 153 1 16 148
M  V30 154 1 17 149
M  V30 155 1 18 150
M  V30 156 1 22 151
M  V30 157 1 23 152
M  V30 158 1 27 153
M  V30 159 1 28 154
M  V30 160 1 32 155
M  V30 161 1 33 156 CFG=3
M  V30 162 1 34 157
M  V30 163 1 34 158
M  V30 164 1 35 159
M  V30 165 1 35 160
M  V30 166 1 36 161
M  V30 167 1 36 162
M  V30 168 1 37 163
M  V30 169 1 37 164
M  V30 170 1 38 165
M  V30 171 1 38 166
M  V30 172 1 41 167
M  V30 173 1 43 168
M  V30 174 1 44 169
M  V30 175 1 45 170
M  V30 176 1 45 171
M  V30 177 1 46 172
M  V30 178 1 46 173
M  V30 179 1 47 174
M  V30 180 1 47 175
M  V30 181 1 48 176 CFG=3
M  V30 182 1 49 177
M  V30 183 1 52 178 CFG=3
M  V30 184 1 53 179
M  V30 185 1 53 180
M  V30 186 1 54 181
M  V30 187 1 54 182
M  V30 188 1 55 183
M  V30 189 1 55 184
M  V30 190 1 56 185
M  V30 191 1 58 186
M  V30 192 1 59 187
M  V30 193 1 59 188
M  V30 194 1 60 189
M  V30 195 1 63 190 CFG=1
M  V30 196 1 64 191
M  V30 197 1 64 192
M  V30 198 1 65 193
M  V30 199 1 65 194
M  V30 200 1 66 195
M  V30 201 1 66 196
M  V30 202 1 67 197
M  V30 203 1 69 198
M  V30 204 1 70 199
M  V30 205 1 70 200
M  V30 206 1 71 201
M  V30 207 1 74 202 CFG=3
M  V30 208 1 75 203
M  V30 209 1 75 204
M  V30 210 1 76 205
M  V30 211 1 76 206
M  V30 212 1 77 207
M  V30 213 1 77 208
M  V30 214 1 78 209
M  V30 215 1 80 210
M  V30 216 1 81 211
M  V30 217 1 81 212
M  V30 218 1 82 213
M  V30 219 1 85 214 CFG=3
M  V30 220 1 86 215
M  V30 221 1 86 216
M  V30 222 1 87 217
M  V30 223 1 87 218
M  V30 224 1 88 219
M  V30 225 1 88 220
M  V30 226 1 89 221
M  V30 227 1 91 222
M  V30 228 1 92 223
M  V30 229 1 92 224
M  V30 230 1 93 225
M  V30 231 1 96 226 CFG=3
M  V30 232 1 97 227
M  V30 233 1 97 228
M  V30 234 1 98 229
M  V30 235 1 98 230
M  V30 236 1 99 231
M  V30 237 1 99 232
M  V30 238 1 100 233
M  V30 239 1 102 234
M  V30 240 1 103 235
M  V30 241 1 103 236
M  V30 242 1 104 237
M  V30 243 1 107 238
M  V30 244 1 107 239
M  V30 245 1 108 240
M  V30 246 1 108 241
M  V30 247 1 109 242
M  V30 248 1 109 243
M  V30 249 1 110 244
M  V30 250 1 110 245
M  V30 251 1 111 246
M  V30 252 1 111 247
M  V30 253 1 112 248
M  V30 254 1 113 249
M  V30 255 1 113 250
M  V30 256 1 114 251
M  V30 257 1 114 252
M  V30 258 1 115 253
M  V30 259 1 120 254
M  V30 260 1 121 255
M  V30 261 1 122 256
M  V30 262 1 124 257
M  V30 263 1 126 258
M  V30 264 1 127 259
M  V30 265 1 130 260
M  V30 266 1 130 261
M  V30 END BOND
M  V30 END CTAB
M  END
>  <Dataset>  (959) 
ChEMBL_Kinases

>  <Ligand_Instance>  (959) 
nan

>  <PDB_ID>  (959) 
nan

>  <Standardized_SMILES>  (959) 
CN(C)c1ccc2c(c1)OC1=CC(N(C)C)C=CC1=C2c1ccc(C(=O)O)cc1C(=O)N[C@H](CCCCN)C(=O)NC(=N)NCCC[C@@H](NC(=O)[C@@H](CCCNC(=N)N)NC(=O)[C@@H](CCCNC(=N)N)NC(=O)[C@@H](CCCNC(=N)N)NC(=O)[C@@H](CCCNC(=N)N)NC(=O)[C@@H](CCCNC(=N)N)NC(=O)CCCCCNCCNS(=O)(=O)c1cccc2cnccc12)C(N)=O

>  <Name>  (959) 
nan

>  <Pocket>  (959) 
nan

>  <ATP_Site>  (959) 
nan

>  <Peripheral>  (959) 
nan

>  <Num_H_Atoms_ProtBoundConf>  (959) 
nan

>  <Num_Resolved_Atoms>  (959) 
nan

>  <Num_Not_Resolved_Atoms>  (959) 
nan

$$$$
CHEMBL1980391
     RDKit          3D

  0  0  0  0  0  0  0  0  0  0999 V3000
M  V30 BEGIN CTAB
M  V30 COUNTS 39 42 0 0 0
M  V30 BEGIN ATOM
M  V30 1 C -0.457136 -5.708143 -1.653399 0
M  V30 2 O -0.220529 -4.384829 -2.074164 0
M  V30 3 C -0.135127 -3.297242 -1.215688 0
M  V30 4 C -0.258711 -3.291331 0.158521 0
M  V30 5 C -0.156777 -2.161336 0.904759 0
M  V30 6 C 0.081488 -0.976207 0.237110 0
M  V30 7 C 0.218356 -0.890900 -1.132710 0
M  V30 8 C 0.104687 -2.072946 -1.835571 0
M  V30 9 F 0.241983 -1.980450 -3.198352 0
M  V30 10 C 0.223002 0.339683 0.854309 0
M  V30 11 C 0.257424 1.514632 -0.014503 0
M  V30 12 C -0.839330 2.001449 -0.736595 0
M  V30 13 C -0.745177 3.105570 -1.532868 0
M  V30 14 C 0.454482 3.798032 -1.660484 0
M  V30 15 C 1.553519 3.339634 -0.958928 0
M  V30 16 C 1.458955 2.222371 -0.152951 0
M  V30 17 Cl 2.934177 1.736015 0.692164 0
M  V30 18 N 0.328266 0.649537 2.110657 0
M  V30 19 C 0.338577 -0.188157 3.268230 0
M  V30 20 C 0.050797 -1.537306 3.327650 0
M  V30 21 N 0.178662 -1.936120 4.607833 0
M  V30 22 N 0.535383 -0.896788 5.362705 0
M  V30 23 C 0.645909 0.207446 4.572792 0
M  V30 24 C 1.013013 1.602218 4.923991 0
M  V30 25 N -0.325933 -2.451954 2.290969 0
M  V30 26 H -1.544173 -5.888676 -1.587570 0
M  V30 27 H 0.054872 -6.446011 -2.337748 0
M  V30 28 H -0.046244 -5.834299 -0.616949 0
M  V30 29 H -0.442068 -4.246486 0.600755 0
M  V30 30 H 0.405686 0.065019 -1.617646 0
M  V30 31 H -1.740403 1.397459 -0.577918 0
M  V30 32 H -1.704311 3.324376 -2.009377 0
M  V30 33 H 0.406286 4.655809 -2.318648 0
M  V30 34 H 2.469276 3.904252 -1.083327 0
M  V30 35 H 0.721123 -0.838791 6.388144 0
M  V30 36 H 0.225124 2.346140 4.640374 0
M  V30 37 H 1.043006 1.655219 6.045274 0
M  V30 38 H 2.004122 1.900722 4.524758 0
M  V30 39 H -0.745294 -3.378417 2.550515 0
M  V30 END ATOM
M  V30 BEGIN BOND
M  V30 1 1 1 2
M  V30 2 1 2 3
M  V30 3 2 3 4
M  V30 4 1 4 5
M  V30 5 2 5 6
M  V30 6 1 6 7
M  V30 7 2 7 8
M  V30 8 1 8 9
M  V30 9 1 6 10
M  V30 10 1 10 11
M  V30 11 2 11 12
M  V30 12 1 12 13
M  V30 13 2 13 14
M  V30 14 1 14 15
M  V30 15 2 15 16
M  V30 16 1 16 17
M  V30 17 2 10 18
M  V30 18 1 18 19
M  V30 19 1 19 20
M  V30 20 2 20 21
M  V30 21 1 21 22
M  V30 22 1 22 23
M  V30 23 1 23 24
M  V30 24 1 20 25
M  V30 25 1 8 3
M  V30 26 1 16 11
M  V30 27 2 23 19
M  V30 28 1 25 5
M  V30 29 1 1 26
M  V30 30 1 1 27
M  V30 31 1 1 28
M  V30 32 1 4 29
M  V30 33 1 7 30
M  V30 34 1 12 31
M  V30 35 1 13 32
M  V30 36 1 14 33
M  V30 37 1 15 34
M  V30 38 1 22 35
M  V30 39 1 24 36
M  V30 40 1 24 37
M  V30 41 1 24 38
M  V30 42 1 25 39
M  V30 END BOND
M  V30 END CTAB
M  END
>  <Dataset>  (960) 
ChEMBL_Kinases

>  <Ligand_Instance>  (960) 
nan

>  <PDB_ID>  (960) 
nan

>  <Standardized_SMILES>  (960) 
COc1cc2c(cc1F)C(c1ccccc1Cl)=Nc1c(n[nH]c1C)N2

>  <Name>  (960) 
RG-1530

>  <Pocket>  (960) 
nan

>  <ATP_Site>  (960) 
nan

>  <Peripheral>  (960) 
nan

>  <Num_H_Atoms_ProtBoundConf>  (960) 
nan

>  <Num_Resolved_Atoms>  (960) 
nan

>  <Num_Not_Resolved_Atoms>  (960) 
nan

$$$$
CHEMBL1235645
     RDKit          3D

  0  0  0  0  0  0  0  0  0  0999 V3000
M  V30 BEGIN CTAB
M  V30 COUNTS 42 45 0 0 0
M  V30 BEGIN ATOM
M  V30 1 N 1.010641 -4.478483 4.558509 0
M  V30 2 C 1.447082 -4.657165 3.479902 0
M  V30 3 C 2.010197 -4.886785 2.153276 0
M  V30 4 C 2.440602 -3.606925 1.520769 0
M  V30 5 C 3.724097 -3.153351 1.717046 0
M  V30 6 C 4.199255 -1.974089 1.167696 0
M  V30 7 C 3.351299 -1.193368 0.373441 0
M  V30 8 N 3.731673 0.052503 -0.248146 0
M  V30 9 C 2.728447 0.704878 -1.057948 0
M  V30 10 N 2.616796 0.461250 -2.404403 0
M  V30 11 C 1.620609 1.118112 -3.059535 0
M  V30 12 C 0.740825 1.996374 -2.445982 0
M  V30 13 C 0.904782 2.206269 -1.065494 0
M  V30 14 N -0.091817 3.113150 -0.610966 0
M  V30 15 C -1.080255 2.531054 0.268773 0
M  V30 16 C -1.029657 1.234404 0.788288 0
M  V30 17 C -2.175277 1.065058 1.574441 0
M  V30 18 C -2.409281 -0.226359 2.294857 0
M  V30 19 C -3.506400 -1.114851 1.609847 0
M  V30 20 C -3.669867 -0.545693 2.960657 0
M  V30 21 N -2.871358 2.212395 1.520271 0
M  V30 22 N -2.213647 3.051787 0.754568 0
M  V30 23 N 1.891802 1.552636 -0.427603 0
M  V30 24 C 2.055076 -1.692606 0.199777 0
M  V30 25 C 1.581214 -2.864730 0.745015 0
M  V30 26 H 1.169847 -5.347873 1.555003 0
M  V30 27 H 2.811012 -5.650202 2.193474 0
M  V30 28 H 4.393272 -3.746523 2.327203 0
M  V30 29 H 5.209703 -1.607189 1.316996 0
M  V30 30 H 4.692322 0.403678 -0.079112 0
M  V30 31 H 1.599404 0.869358 -4.123487 0
M  V30 32 H 0.004594 2.436610 -3.113938 0
M  V30 33 H -0.155334 4.111503 -0.852601 0
M  V30 34 H -0.236162 0.490352 0.610310 0
M  V30 35 H -1.485946 -0.831234 2.468325 0
M  V30 36 H -4.056179 -0.650065 0.767293 0
M  V30 37 H -3.247109 -2.177825 1.437049 0
M  V30 38 H -4.385703 0.274823 3.135605 0
M  V30 39 H -3.594874 -1.269874 3.820895 0
M  V30 40 H -3.773740 2.337495 2.027226 0
M  V30 41 H 1.341198 -1.135840 -0.407576 0
M  V30 42 H 0.571747 -3.205207 0.581995 0
M  V30 END ATOM
M  V30 BEGIN BOND
M  V30 1 3 1 2
M  V30 2 1 2 3
M  V30 3 1 3 4
M  V30 4 2 4 5
M  V30 5 1 5 6
M  V30 6 2 6 7
M  V30 7 1 7 8
M  V30 8 1 8 9
M  V30 9 2 9 10
M  V30 10 1 10 11
M  V30 11 2 11 12
M  V30 12 1 12 13
M  V30 13 1 13 14
M  V30 14 1 14 15
M  V30 15 1 15 16
M  V30 16 2 16 17
M  V30 17 1 17 18
M  V30 18 1 18 19
M  V30 19 1 19 20
M  V30 20 1 17 21
M  V30 21 1 21 22
M  V30 22 2 13 23
M  V30 23 1 7 24
M  V30 24 2 24 25
M  V30 25 1 25 4
M  V30 26 1 23 9
M  V30 27 2 22 15
M  V30 28 1 20 18
M  V30 29 1 3 26
M  V30 30 1 3 27
M  V30 31 1 5 28
M  V30 32 1 6 29
M  V30 33 1 8 30
M  V30 34 1 11 31
M  V30 35 1 12 32
M  V30 36 1 14 33
M  V30 37 1 16 34
M  V30 38 1 18 35
M  V30 39 1 19 36
M  V30 40 1 19 37
M  V30 41 1 20 38
M  V30 42 1 20 39
M  V30 43 1 21 40
M  V30 44 1 24 41
M  V30 45 1 25 42
M  V30 END BOND
M  V30 END CTAB
M  END
>  <Dataset>  (961) 
ChEMBL_Kinases

>  <Ligand_Instance>  (961) 
nan

>  <PDB_ID>  (961) 
nan

>  <Standardized_SMILES>  (961) 
N#CCc1ccc(Nc2nccc(Nc3cc(C4CC4)[nH]n3)n2)cc1

>  <Name>  (961) 
nan

>  <Pocket>  (961) 
nan

>  <ATP_Site>  (961) 
nan

>  <Peripheral>  (961) 
nan

>  <Num_H_Atoms_ProtBoundConf>  (961) 
nan

>  <Num_Resolved_Atoms>  (961) 
nan

>  <Num_Not_Resolved_Atoms>  (961) 
nan

$$$$
CHEMBL1235786
     RDKit          3D

  0  0  0  0  0  0  0  0  0  0999 V3000
M  V30 BEGIN CTAB
M  V30 COUNTS 71 75 0 0 0
M  V30 BEGIN ATOM
M  V30 1 C 1.650911 -0.415302 -3.701498 0
M  V30 2 O 0.284599 -0.344834 -3.428003 0
M  V30 3 C -0.424950 0.741847 -2.993236 0
M  V30 4 C 0.085215 1.998037 -2.738294 0
M  V30 5 C -0.670906 3.064695 -2.300801 0
M  V30 6 N -0.091912 4.339833 -2.057449 0
M  V30 7 C 1.265652 4.732690 -2.273406 0
M  V30 8 C 1.953783 5.004846 -0.950193 0
M  V30 9 C 1.068048 5.852289 -0.096299 0
M  V30 10 O 0.524939 5.126745 0.966634 0
M  V30 11 C -0.055117 6.491626 -0.903985 0
M  V30 12 C -0.901794 5.420147 -1.527396 0
M  V30 13 C -2.022810 2.884891 -2.099547 0
M  V30 14 C -2.549645 1.612325 -2.355948 0
M  V30 15 C -1.792279 0.522285 -2.800162 0
M  V30 16 N -2.510803 -0.682841 -3.006019 0
M  V30 17 C -2.325306 -1.925349 -2.375604 0
M  V30 18 C -1.372542 -2.135117 -1.403482 0
M  V30 19 C -1.176095 -3.364419 -0.770039 0
M  V30 20 N -0.221988 -3.643770 0.217090 0
M  V30 21 C -0.425334 -4.061489 1.534617 0
M  V30 22 C -1.710358 -4.236180 1.988558 0
M  V30 23 C -1.967664 -4.671568 3.271737 0
M  V30 24 C -0.946493 -4.951794 4.159678 0
M  V30 25 C 0.328924 -4.754419 3.640260 0
M  V30 26 C 0.651723 -4.315289 2.350501 0
M  V30 27 S 2.325778 -4.099022 1.908720 0
M  V30 28 O 3.190687 -4.626323 3.006083 0
M  V30 29 O 2.590109 -4.837514 0.620527 0
M  V30 30 C 2.606482 -2.377825 1.613931 0
M  V30 31 C 4.070983 -2.108721 1.303613 0
M  V30 32 C 2.282393 -1.584868 2.883703 0
M  V30 33 C -1.986865 -4.416022 -1.148563 0
M  V30 34 C -2.193837 -5.767674 -0.855257 0
M  V30 35 C -3.215035 -6.273622 -1.633109 0
M  V30 36 N -3.657631 -5.270416 -2.411694 0
M  V30 37 C -2.943836 -4.174081 -2.136387 0
M  V30 38 N -3.103320 -2.963159 -2.728124 0
M  V30 39 H 1.828833 -0.983307 -4.659815 0
M  V30 40 H 2.119873 0.577441 -3.893321 0
M  V30 41 H 2.217214 -0.899665 -2.881848 0
M  V30 42 H 1.141943 2.075249 -2.912921 0
M  V30 43 H 1.852859 3.976859 -2.847699 0
M  V30 44 H 1.304409 5.725846 -2.812761 0
M  V30 45 H 2.246416 4.052513 -0.451585 0
M  V30 46 H 2.890032 5.584801 -1.189261 0
M  V30 47 H 1.651579 6.697156 0.315052 0
M  V30 48 H -0.400394 5.447869 1.095420 0
M  V30 49 H 0.344207 7.139217 -1.707519 0
M  V30 50 H -0.682226 7.109019 -0.255154 0
M  V30 51 H -1.506419 5.871385 -2.337909 0
M  V30 52 H -1.588098 5.012009 -0.733511 0
M  V30 53 H -2.696264 3.655359 -1.760600 0
M  V30 54 H -3.632473 1.493612 -2.187696 0
M  V30 55 H -3.249124 -0.551104 -3.726112 0
M  V30 56 H -0.719169 -1.338918 -1.077823 0
M  V30 57 H 0.644253 -3.459447 -0.327092 0
M  V30 58 H -2.604206 -4.052901 1.411004 0
M  V30 59 H -2.978094 -4.816795 3.651790 0
M  V30 60 H -1.038853 -5.293244 5.170797 0
M  V30 61 H 1.176980 -4.964845 4.311351 0
M  V30 62 H 1.997742 -1.936582 0.815311 0
M  V30 63 H 4.646183 -2.036054 2.244307 0
M  V30 64 H 4.121283 -1.143928 0.796130 0
M  V30 65 H 4.452035 -2.897465 0.648259 0
M  V30 66 H 2.673389 -2.105925 3.784974 0
M  V30 67 H 1.181806 -1.449663 2.937441 0
M  V30 68 H 2.742689 -0.595810 2.847410 0
M  V30 69 H -1.575068 -6.250997 -0.098735 0
M  V30 70 H -3.558651 -7.310394 -1.581929 0
M  V30 71 H -4.433810 -5.411473 -3.091057 0
M  V30 END ATOM
M  V30 BEGIN BOND
M  V30 1 1 1 2
M  V30 2 1 2 3
M  V30 3 2 3 4
M  V30 4 1 4 5
M  V30 5 1 5 6
M  V30 6 1 6 7
M  V30 7 1 7 8
M  V30 8 1 8 9
M  V30 9 1 9 10
M  V30 10 1 9 11
M  V30 11 1 11 12
M  V30 12 2 5 13
M  V30 13 1 13 14
M  V30 14 2 14 15
M  V30 15 1 15 16
M  V30 16 1 16 17
M  V30 17 2 17 18
M  V30 18 1 18 19
M  V30 19 1 19 20
M  V30 20 1 20 21
M  V30 21 2 21 22
M  V30 22 1 22 23
M  V30 23 2 23 24
M  V30 24 1 24 25
M  V30 25 2 25 26
M  V30 26 1 26 27
M  V30 27 2 27 28
M  V30 28 2 27 29
M  V30 29 1 27 30
M  V30 30 1 30 31
M  V30 31 1 30 32
M  V30 32 2 19 33
M  V30 33 1 33 34
M  V30 34 2 34 35
M  V30 35 1 35 36
M  V30 36 1 36 37
M  V30 37 2 37 38
M  V30 38 1 15 3
M  V30 39 1 38 17
M  V30 40 1 12 6
M  V30 41 1 26 21
M  V30 42 1 37 33
M  V30 43 1 1 39
M  V30 44 1 1 40
M  V30 45 1 1 41
M  V30 46 1 4 42
M  V30 47 1 7 43
M  V30 48 1 7 44
M  V30 49 1 8 45
M  V30 50 1 8 46
M  V30 51 1 9 47
M  V30 52 1 10 48
M  V30 53 1 11 49
M  V30 54 1 11 50
M  V30 55 1 12 51
M  V30 56 1 12 52
M  V30 57 1 13 53
M  V30 58 1 14 54
M  V30 59 1 16 55
M  V30 60 1 18 56
M  V30 61 1 20 57
M  V30 62 1 22 58
M  V30 63 1 23 59
M  V30 64 1 24 60
M  V30 65 1 25 61
M  V30 66 1 30 62
M  V30 67 1 31 63
M  V30 68 1 31 64
M  V30 69 1 31 65
M  V30 70 1 32 66
M  V30 71 1 32 67
M  V30 72 1 32 68
M  V30 73 1 34 69
M  V30 74 1 35 70
M  V30 75 1 36 71
M  V30 END BOND
M  V30 END CTAB
M  END
>  <Dataset>  (962) 
ChEMBL_Kinases

>  <Ligand_Instance>  (962) 
nan

>  <PDB_ID>  (962) 
nan

>  <Standardized_SMILES>  (962) 
COc1cc(N2CCC(O)CC2)ccc1Nc1cc(Nc2ccccc2S(=O)(=O)C(C)C)c2cc[nH]c2n1

>  <Name>  (962) 
nan

>  <Pocket>  (962) 
nan

>  <ATP_Site>  (962) 
nan

>  <Peripheral>  (962) 
nan

>  <Num_H_Atoms_ProtBoundConf>  (962) 
nan

>  <Num_Resolved_Atoms>  (962) 
nan

>  <Num_Not_Resolved_Atoms>  (962) 
nan

$$$$
CHEMBL49120
     RDKit          3D

  0  0  0  0  0  0  0  0  0  0999 V3000
M  V30 BEGIN CTAB
M  V30 COUNTS 62 65 0 0 0
M  V30 BEGIN ATOM
M  V30 1 C 8.743979 -2.898705 1.172693 0
M  V30 2 C 8.549616 -1.456467 1.509182 0
M  V30 3 N 7.139802 -1.091950 1.702231 0
M  V30 4 C 7.011324 0.293187 2.014823 0
M  V30 5 C 7.602338 0.621030 3.389057 0
M  V30 6 C 6.479351 -1.440174 0.500506 0
M  V30 7 C 5.025892 -1.248706 0.382631 0
M  V30 8 O 4.507883 0.026200 0.515048 0
M  V30 9 C 3.149623 0.331064 0.433443 0
M  V30 10 C 2.235933 -0.674964 0.210255 0
M  V30 11 C 0.906859 -0.318327 0.139511 0
M  V30 12 C 0.403359 0.955025 0.271327 0
M  V30 13 N -0.960412 1.331132 0.209436 0
M  V30 14 C -2.093076 0.491277 0.059873 0
M  V30 15 N -2.066634 -0.842096 -0.051114 0
M  V30 16 C -3.125812 -1.649604 -0.188689 0
M  V30 17 C -4.372860 -1.065521 -0.220813 0
M  V30 18 C -5.527699 -1.807521 -0.357877 0
M  V30 19 C -6.767177 -1.184429 -0.385024 0
M  V30 20 C -7.941825 -2.027627 -0.530717 0
M  V30 21 C -8.526965 -2.405320 -1.716369 0
M  V30 22 Cl -7.765543 -1.798969 -3.185123 0
M  V30 23 C -9.643654 -3.208717 -1.800107 0
M  V30 24 C -10.236656 -3.681504 -0.626647 0
M  V30 25 C -9.671805 -3.319042 0.575880 0
M  V30 26 C -8.554600 -2.514168 0.630031 0
M  V30 27 Cl -7.918105 -2.114982 2.208263 0
M  V30 28 C -6.774813 0.191075 -0.269470 0
M  V30 29 O -7.912317 0.737886 -0.296524 0
M  V30 30 N -5.638627 0.905111 -0.136024 0
M  V30 31 C -5.768724 2.352906 -0.022349 0
M  V30 32 C -4.424839 0.305267 -0.108488 0
M  V30 33 N -3.315927 1.043756 0.026369 0
M  V30 34 C 1.372732 1.910218 0.491832 0
M  V30 35 C 2.718809 1.632235 0.575233 0
M  V30 36 H 9.743818 -3.213798 1.534264 0
M  V30 37 H 8.704000 -3.087798 0.067515 0
M  V30 38 H 8.014884 -3.557598 1.713675 0
M  V30 39 H 9.143022 -1.231803 2.416673 0
M  V30 40 H 8.938406 -0.840801 0.677415 0
M  V30 41 H 7.599885 0.929194 1.292203 0
M  V30 42 H 5.971836 0.654933 2.075020 0
M  V30 43 H 7.379255 1.694688 3.566315 0
M  V30 44 H 7.076453 0.058689 4.188506 0
M  V30 45 H 8.703668 0.517445 3.405583 0
M  V30 46 H 6.747450 -2.518530 0.279762 0
M  V30 47 H 7.010070 -0.889238 -0.337040 0
M  V30 48 H 4.518705 -1.995343 1.055742 0
M  V30 49 H 4.722759 -1.604319 -0.650099 0
M  V30 50 H 2.561676 -1.689580 0.098342 0
M  V30 51 H 0.229941 -1.136914 -0.036936 0
M  V30 52 H -1.147805 2.367701 0.284302 0
M  V30 53 H -3.021746 -2.724850 -0.273224 0
M  V30 54 H -5.462389 -2.898919 -0.445685 0
M  V30 55 H -10.088472 -3.495156 -2.729805 0
M  V30 56 H -11.107957 -4.311002 -0.615128 0
M  V30 57 H -10.130047 -3.684402 1.483310 0
M  V30 58 H -6.582111 2.745819 -0.655587 0
M  V30 59 H -5.948069 2.536583 1.063659 0
M  V30 60 H -4.792053 2.827918 -0.258972 0
M  V30 61 H 1.122563 2.956931 0.614558 0
M  V30 62 H 3.451643 2.389335 0.747047 0
M  V30 END ATOM
M  V30 BEGIN BOND
M  V30 1 1 1 2
M  V30 2 1 2 3
M  V30 3 1 3 4
M  V30 4 1 4 5
M  V30 5 1 3 6
M  V30 6 1 6 7
M  V30 7 1 7 8
M  V30 8 1 8 9
M  V30 9 2 9 10
M  V30 10 1 10 11
M  V30 11 2 11 12
M  V30 12 1 12 13
M  V30 13 1 13 14
M  V30 14 2 14 15
M  V30 15 1 15 16
M  V30 16 2 16 17
M  V30 17 1 17 18
M  V30 18 2 18 19
M  V30 19 1 19 20
M  V30 20 2 20 21
M  V30 21 1 21 22
M  V30 22 1 21 23
M  V30 23 2 23 24
M  V30 24 1 24 25
M  V30 25 2 25 26
M  V30 26 1 26 27
M  V30 27 1 19 28
M  V30 28 2 28 29
M  V30 29 1 28 30
M  V30 30 1 30 31
M  V30 31 1 30 32
M  V30 32 2 32 33
M  V30 33 1 12 34
M  V30 34 2 34 35
M  V30 35 1 35 9
M  V30 36 1 33 14
M  V30 37 1 32 17
M  V30 38 1 26 20
M  V30 39 1 1 36
M  V30 40 1 1 37
M  V30 41 1 1 38
M  V30 42 1 2 39
M  V30 43 1 2 40
M  V30 44 1 4 41
M  V30 45 1 4 42
M  V30 46 1 5 43
M  V30 47 1 5 44
M  V30 48 1 5 45
M  V30 49 1 6 46
M  V30 50 1 6 47
M  V30 51 1 7 48
M  V30 52 1 7 49
M  V30 53 1 10 50
M  V30 54 1 11 51
M  V30 55 1 13 52
M  V30 56 1 16 53
M  V30 57 1 18 54
M  V30 58 1 23 55
M  V30 59 1 24 56
M  V30 60 1 25 57
M  V30 61 1 31 58
M  V30 62 1 31 59
M  V30 63 1 31 60
M  V30 64 1 34 61
M  V30 65 1 35 62
M  V30 END BOND
M  V30 END CTAB
M  END
>  <Dataset>  (963) 
ChEMBL_Kinases

>  <Ligand_Instance>  (963) 
nan

>  <PDB_ID>  (963) 
nan

>  <Standardized_SMILES>  (963) 
CCN(CC)CCOc1ccc(Nc2ncc3cc(-c4c(Cl)cccc4Cl)c(=O)n(C)c3n2)cc1

>  <Name>  (963) 
PD-0166285

>  <Pocket>  (963) 
nan

>  <ATP_Site>  (963) 
nan

>  <Peripheral>  (963) 
nan

>  <Num_H_Atoms_ProtBoundConf>  (963) 
nan

>  <Num_Resolved_Atoms>  (963) 
nan

>  <Num_Not_Resolved_Atoms>  (963) 
nan

$$$$
CHEMBL3544911
     RDKit          3D

  0  0  0  0  0  0  0  0  0  0999 V3000
M  V30 BEGIN CTAB
M  V30 COUNTS 46 48 0 0 0
M  V30 BEGIN ATOM
M  V30 1 C -0.854117 -4.020451 -0.956521 0
M  V30 2 O -0.145203 -2.997934 -1.322183 0
M  V30 3 C 0.545544 -1.998014 -1.690915 0
M  V30 4 C 0.581054 -1.570859 -3.033526 0
M  V30 5 C 1.356231 -0.489158 -3.356783 0
M  V30 6 C 2.108172 0.209065 -2.435803 0
M  V30 7 C 2.114743 -0.156028 -1.124394 0
M  V30 8 O 2.746878 0.351400 -0.033810 0
M  V30 9 C 3.582653 1.441631 0.083002 0
M  V30 10 C 4.098031 1.600687 1.520177 0
M  V30 11 C 2.974036 1.719362 2.508833 0
M  V30 12 N 3.566935 1.851020 3.854891 0
M  V30 13 C 1.309381 -1.278443 -0.793410 0
M  V30 14 C 1.164691 -1.614831 0.647617 0
M  V30 15 C -0.092362 -1.059572 1.037470 0
M  V30 16 C -0.262903 -1.175408 2.433894 0
M  V30 17 N -1.375465 -0.714703 3.193286 0
M  V30 18 C -2.736121 -0.786818 2.808658 0
M  V30 19 C -3.058522 0.265138 1.959441 0
M  V30 20 N -4.299911 0.455793 1.411627 0
M  V30 21 C -5.244934 -0.425282 1.714232 0
M  V30 22 C -6.583453 -0.324912 1.168922 0
M  V30 23 N -7.661823 -0.261760 0.715944 0
M  V30 24 C -4.926902 -1.468683 2.558345 0
M  V30 25 N -3.715725 -1.677382 3.111143 0
M  V30 26 N 0.868885 -1.786060 2.832692 0
M  V30 27 N 1.664441 -2.031570 1.824555 0
M  V30 28 H -0.239601 -4.801441 -0.368718 0
M  V30 29 H -1.826612 -3.825136 -0.421474 0
M  V30 30 H -1.210590 -4.674777 -1.824774 0
M  V30 31 H -0.037033 -2.125847 -3.738965 0
M  V30 32 H 1.386041 -0.166591 -4.377960 0
M  V30 33 H 2.721124 1.052866 -2.637260 0
M  V30 34 H 2.960605 2.349895 -0.190388 0
M  V30 35 H 4.436123 1.441451 -0.582748 0
M  V30 36 H 4.796875 0.788121 1.747470 0
M  V30 37 H 4.640169 2.576496 1.513863 0
M  V30 38 H 2.387140 2.662652 2.339952 0
M  V30 39 H 2.249141 0.895056 2.472862 0
M  V30 40 H 2.834660 2.314200 4.459745 0
M  V30 41 H 3.761804 0.856890 4.163854 0
M  V30 42 H -0.955758 -0.571124 0.516416 0
M  V30 43 H -1.247948 -0.260843 4.153030 0
M  V30 44 H -2.397120 1.059652 1.618677 0
M  V30 45 H -5.688405 -2.220055 2.836723 0
M  V30 46 H 2.593446 -2.454164 1.570214 0
M  V30 END ATOM
M  V30 BEGIN BOND
M  V30 1 1 1 2
M  V30 2 1 2 3
M  V30 3 2 3 4
M  V30 4 1 4 5
M  V30 5 2 5 6
M  V30 6 1 6 7
M  V30 7 1 7 8
M  V30 8 1 8 9
M  V30 9 1 9 10
M  V30 10 1 10 11
M  V30 11 1 11 12
M  V30 12 2 7 13
M  V30 13 1 13 14
M  V30 14 2 14 15
M  V30 15 1 15 16
M  V30 16 1 16 17
M  V30 17 1 17 18
M  V30 18 2 18 19
M  V30 19 1 19 20
M  V30 20 2 20 21
M  V30 21 1 21 22
M  V30 22 3 22 23
M  V30 23 1 21 24
M  V30 24 2 24 25
M  V30 25 2 16 26
M  V30 26 1 26 27
M  V30 27 1 13 3
M  V30 28 1 27 14
M  V30 29 1 25 18
M  V30 30 1 1 28
M  V30 31 1 1 29
M  V30 32 1 1 30
M  V30 33 1 4 31
M  V30 34 1 5 32
M  V30 35 1 6 33
M  V30 36 1 9 34
M  V30 37 1 9 35
M  V30 38 1 10 36
M  V30 39 1 10 37
M  V30 40 1 11 38
M  V30 41 1 11 39
M  V30 42 1 12 40
M  V30 43 1 12 41
M  V30 44 1 15 42
M  V30 45 1 17 43
M  V30 46 1 19 44
M  V30 47 1 24 45
M  V30 48 1 27 46
M  V30 END BOND
M  V30 END CTAB
M  END
>  <Dataset>  (964) 
ChEMBL_Kinases

>  <Ligand_Instance>  (964) 
nan

>  <PDB_ID>  (964) 
nan

>  <Standardized_SMILES>  (964) 
COc1cccc(OCCCN)c1-c1cc(Nc2cnc(C#N)cn2)n[nH]1

>  <Name>  (964) 
PREXASERTIB

>  <Pocket>  (964) 
nan

>  <ATP_Site>  (964) 
nan

>  <Peripheral>  (964) 
nan

>  <Num_H_Atoms_ProtBoundConf>  (964) 
nan

>  <Num_Resolved_Atoms>  (964) 
nan

>  <Num_Not_Resolved_Atoms>  (964) 
nan

$$$$
CHEMBL1236682
     RDKit          3D

  0  0  0  0  0  0  0  0  0  0999 V3000
M  V30 BEGIN CTAB
M  V30 COUNTS 51 53 0 0 0
M  V30 BEGIN ATOM
M  V30 1 C 0.423393 -0.733292 5.721224 0
M  V30 2 O 0.264631 -0.579717 4.328638 0
M  V30 3 C 1.309561 -0.246933 3.462324 0
M  V30 4 C 2.539831 -0.080133 4.121232 0
M  V30 5 C 3.611388 0.249072 3.321085 0
M  V30 6 F 4.794588 0.405833 3.967139 0
M  V30 7 C 3.425823 0.392629 1.971125 0
M  V30 8 F 4.601099 0.695055 1.339277 0
M  V30 9 C 2.209489 0.226238 1.344504 0
M  V30 10 N 2.297129 0.490287 -0.034434 0
M  V30 11 C 1.987115 1.568223 -0.910173 0
M  V30 12 C 1.203577 1.562396 -2.036566 0
M  V30 13 C 0.922237 2.663914 -2.803377 0
M  V30 14 C 1.432482 3.879322 -2.469542 0
M  V30 15 I 0.975708 5.544652 -3.674171 0
M  V30 16 C 2.239707 3.961942 -1.335962 0
M  V30 17 C 2.500208 2.831815 -0.588581 0
M  V30 18 F 3.287999 3.145176 0.458299 0
M  V30 19 C 1.130594 -0.098033 2.074485 0
M  V30 20 N -0.203958 -0.329556 1.771027 0
M  V30 21 S -1.382692 -1.559433 1.406364 0
M  V30 22 O -1.527717 -2.373100 2.634919 0
M  V30 23 O -2.702154 -0.807199 1.198569 0
M  V30 24 C -1.081485 -2.490381 -0.037968 0
M  V30 25 C -1.932631 -3.630511 -0.485425 0
M  V30 26 C -3.360501 -3.429521 -0.780031 0 CFG=2
M  V30 27 O -3.613381 -2.483430 -1.752711 0
M  V30 28 C -4.342085 -3.421861 0.334297 0
M  V30 29 O -4.011727 -4.373439 1.323101 0
M  V30 30 C -0.601944 -1.615730 -1.257038 0
M  V30 31 C 0.360045 -2.496447 -0.564174 0
M  V30 32 H -0.530816 -0.959402 6.226592 0
M  V30 33 H 1.112736 -1.596065 5.907590 0
M  V30 34 H 0.905355 0.151587 6.189825 0
M  V30 35 H 2.646947 -0.201023 5.189744 0
M  V30 36 H 2.674884 -0.214498 -0.708151 0
M  V30 37 H 0.800712 0.640069 -2.349642 0
M  V30 38 H 0.291372 2.565340 -3.677930 0
M  V30 39 H 2.597707 4.965586 -1.152238 0
M  V30 40 H -0.493790 0.689449 1.796478 0
M  V30 41 H -1.803419 -4.530931 0.182628 0
M  V30 42 H -1.455613 -4.007007 -1.452106 0
M  V30 43 H -3.703138 -4.414503 -1.376808 0
M  V30 44 H -3.230801 -2.772038 -2.621310 0
M  V30 45 H -4.620154 -2.464755 0.776325 0
M  V30 46 H -5.364145 -3.819814 -0.031141 0
M  V30 47 H -4.430592 -4.119408 2.197585 0
M  V30 48 H -0.694803 -0.528657 -1.074592 0
M  V30 49 H -0.974163 -1.918811 -2.256720 0
M  V30 50 H 1.126641 -2.031951 0.054043 0
M  V30 51 H 0.636454 -3.427715 -1.142968 0
M  V30 END ATOM
M  V30 BEGIN BOND
M  V30 1 1 1 2
M  V30 2 1 2 3
M  V30 3 2 3 4
M  V30 4 1 4 5
M  V30 5 1 5 6
M  V30 6 2 5 7
M  V30 7 1 7 8
M  V30 8 1 7 9
M  V30 9 1 9 10
M  V30 10 1 10 11
M  V30 11 2 11 12
M  V30 12 1 12 13
M  V30 13 2 13 14
M  V30 14 1 14 15
M  V30 15 1 14 16
M  V30 16 2 16 17
M  V30 17 1 17 18
M  V30 18 2 9 19
M  V30 19 1 19 20
M  V30 20 1 20 21
M  V30 21 2 21 22
M  V30 22 2 21 23
M  V30 23 1 21 24
M  V30 24 1 24 25
M  V30 25 1 25 26
M  V30 26 1 26 27
M  V30 27 1 26 28
M  V30 28 1 28 29
M  V30 29 1 24 30
M  V30 30 1 30 31
M  V30 31 1 19 3
M  V30 32 1 31 24
M  V30 33 1 17 11
M  V30 34 1 1 32
M  V30 35 1 1 33
M  V30 36 1 1 34
M  V30 37 1 4 35
M  V30 38 1 10 36
M  V30 39 1 12 37
M  V30 40 1 13 38
M  V30 41 1 16 39
M  V30 42 1 20 40
M  V30 43 1 25 41
M  V30 44 1 25 42
M  V30 45 1 26 43 CFG=3
M  V30 46 1 27 44
M  V30 47 1 28 45
M  V30 48 1 28 46
M  V30 49 1 29 47
M  V30 50 1 30 48
M  V30 51 1 30 49
M  V30 52 1 31 50
M  V30 53 1 31 51
M  V30 END BOND
M  V30 END CTAB
M  END
>  <Dataset>  (965) 
ChEMBL_Kinases

>  <Ligand_Instance>  (965) 
nan

>  <PDB_ID>  (965) 
nan

>  <Standardized_SMILES>  (965) 
COc1cc(F)c(F)c(Nc2ccc(I)cc2F)c1NS(=O)(=O)C1(C[C@H](O)CO)CC1

>  <Name>  (965) 
REFAMETINIB

>  <Pocket>  (965) 
nan

>  <ATP_Site>  (965) 
nan

>  <Peripheral>  (965) 
nan

>  <Num_H_Atoms_ProtBoundConf>  (965) 
nan

>  <Num_Resolved_Atoms>  (965) 
nan

>  <Num_Not_Resolved_Atoms>  (965) 
nan

$$$$
CHEMBL359486
     RDKit          3D

  0  0  0  0  0  0  0  0  0  0999 V3000
M  V30 BEGIN CTAB
M  V30 COUNTS 69 75 0 0 0
M  V30 BEGIN ATOM
M  V30 1 C 0.571504 -3.875477 1.161331 0
M  V30 2 N 1.484543 -3.425443 0.112519 0
M  V30 3 C 0.712867 -3.316862 -1.115183 0
M  V30 4 C 2.555755 -4.382111 -0.062635 0
M  V30 5 C 3.543700 -3.969005 -1.119290 0
M  V30 6 C 4.268090 -2.711364 -0.844082 0
M  V30 7 N 3.486807 -1.517829 -0.658315 0
M  V30 8 N 3.046593 -0.721151 -1.602526 0
M  V30 9 C 2.333802 0.321425 -1.103040 0
M  V30 10 C 1.740326 1.360392 -1.935778 0
M  V30 11 C 0.570712 1.980317 -1.919395 0
M  V30 12 C -0.586361 1.845073 -1.037837 0
M  V30 13 C -1.199861 0.653427 -0.632795 0
M  V30 14 N -2.214599 0.967537 0.189516 0
M  V30 15 C -3.089338 0.038675 0.814771 0
M  V30 16 C -4.466662 0.200129 0.758567 0
M  V30 17 N -5.359160 -0.665459 1.344153 0
M  V30 18 C -4.853248 -1.748045 2.020584 0
M  V30 19 C -5.780294 -2.592959 2.593944 0
M  V30 20 C -5.274030 -3.680494 3.273375 0
M  V30 21 C -3.930537 -3.953151 3.402341 0
M  V30 22 C -2.993933 -3.089351 2.816593 0
M  V30 23 C -3.509747 -2.006355 2.139986 0
M  V30 24 C -2.703433 -1.080870 1.519110 0
M  V30 25 C -2.338635 2.270146 0.375727 0
M  V30 26 C -3.189428 3.090949 1.111037 0
M  V30 27 C -3.069727 4.479145 1.119264 0
M  V30 28 C -2.038940 4.945907 0.337798 0
M  V30 29 C -1.143151 4.231802 -0.425513 0
M  V30 30 C -1.316667 2.843845 -0.392845 0
M  V30 31 C 0.534263 2.944740 -3.039540 0
M  V30 32 O -0.321347 3.773326 -3.477738 0
M  V30 33 N 1.764429 2.890291 -3.761619 0
M  V30 34 C 2.524351 1.899489 -3.074917 0
M  V30 35 O 3.705344 1.562919 -3.432282 0
M  V30 36 C 2.380165 0.085533 0.253592 0
M  V30 37 C 1.836729 0.829265 1.268490 0
M  V30 38 C 1.948194 0.518162 2.608839 0
M  V30 39 C 2.665518 -0.629854 2.902606 0
M  V30 40 C 3.218637 -1.388462 1.895881 0
M  V30 41 C 3.094762 -1.056614 0.541187 0
M  V30 42 H 0.038816 -2.979730 1.571762 0
M  V30 43 H 1.128003 -4.322493 2.000427 0
M  V30 44 H -0.154894 -4.557938 0.705546 0
M  V30 45 H 1.363959 -2.923715 -1.893395 0
M  V30 46 H 0.240713 -4.291360 -1.407594 0
M  V30 47 H -0.087553 -2.568417 -0.934874 0
M  V30 48 H 3.073845 -4.553689 0.908325 0
M  V30 49 H 2.067712 -5.353600 -0.302542 0
M  V30 50 H 4.280251 -4.830906 -1.172033 0
M  V30 51 H 3.079209 -3.990087 -2.141904 0
M  V30 52 H 5.041302 -2.567940 -1.659713 0
M  V30 53 H 4.931480 -2.892831 0.059699 0
M  V30 54 H -0.845376 -0.301502 -0.977484 0
M  V30 55 H -4.927677 1.024487 0.243494 0
M  V30 56 H -6.849287 -2.486358 2.562168 0
M  V30 57 H -5.851121 -4.447790 3.783506 0
M  V30 58 H -3.482041 -4.783765 3.919302 0
M  V30 59 H -1.930809 -3.262620 2.892321 0
M  V30 60 H -1.615793 -1.246425 1.586847 0
M  V30 61 H -3.985435 2.659362 1.711569 0
M  V30 62 H -3.704291 5.138950 1.670823 0
M  V30 63 H -1.923927 6.041762 0.328941 0
M  V30 64 H -0.377562 4.748093 -0.981620 0
M  V30 65 H 2.111906 3.413471 -4.602512 0
M  V30 66 H 1.279685 1.733035 1.082412 0
M  V30 67 H 1.520026 1.102183 3.408517 0
M  V30 68 H 2.786914 -0.924909 3.933683 0
M  V30 69 H 3.792791 -2.302684 2.082773 0
M  V30 END ATOM
M  V30 BEGIN BOND
M  V30 1 1 1 2
M  V30 2 1 2 3
M  V30 3 1 2 4
M  V30 4 1 4 5
M  V30 5 1 5 6
M  V30 6 1 6 7
M  V30 7 1 7 8
M  V30 8 2 8 9
M  V30 9 1 9 10
M  V30 10 2 10 11
M  V30 11 1 11 12
M  V30 12 2 12 13
M  V30 13 1 13 14
M  V30 14 1 14 15
M  V30 15 2 15 16
M  V30 16 1 16 17
M  V30 17 2 17 18
M  V30 18 1 18 19
M  V30 19 2 19 20
M  V30 20 1 20 21
M  V30 21 2 21 22
M  V30 22 1 22 23
M  V30 23 2 23 24
M  V30 24 1 14 25
M  V30 25 2 25 26
M  V30 26 1 26 27
M  V30 27 2 27 28
M  V30 28 1 28 29
M  V30 29 2 29 30
M  V30 30 1 11 31
M  V30 31 2 31 32
M  V30 32 1 31 33
M  V30 33 1 33 34
M  V30 34 2 34 35
M  V30 35 1 9 36
M  V30 36 2 36 37
M  V30 37 1 37 38
M  V30 38 2 38 39
M  V30 39 1 39 40
M  V30 40 2 40 41
M  V30 41 1 41 7
M  V30 42 1 34 10
M  V30 43 1 41 36
M  V30 44 1 30 12
M  V30 45 1 24 15
M  V30 46 1 30 25
M  V30 47 1 23 18
M  V30 48 1 1 42
M  V30 49 1 1 43
M  V30 50 1 1 44
M  V30 51 1 3 45
M  V30 52 1 3 46
M  V30 53 1 3 47
M  V30 54 1 4 48
M  V30 55 1 4 49
M  V30 56 1 5 50
M  V30 57 1 5 51
M  V30 58 1 6 52
M  V30 59 1 6 53
M  V30 60 1 13 54
M  V30 61 1 16 55
M  V30 62 1 19 56
M  V30 63 1 20 57
M  V30 64 1 21 58
M  V30 65 1 22 59
M  V30 66 1 24 60
M  V30 67 1 26 61
M  V30 68 1 27 62
M  V30 69 1 28 63
M  V30 70 1 29 64
M  V30 71 1 33 65
M  V30 72 1 37 66
M  V30 73 1 38 67
M  V30 74 1 39 68
M  V30 75 1 40 69
M  V30 END BOND
M  V30 END CTAB
M  END
>  <Dataset>  (966) 
ChEMBL_Kinases

>  <Ligand_Instance>  (966) 
nan

>  <PDB_ID>  (966) 
nan

>  <Standardized_SMILES>  (966) 
CN(C)CCCn1nc(C2=C(c3cn(-c4cnc5ccccc5c4)c4ccccc34)C(=O)NC2=O)c2ccccc21

>  <Name>  (966) 
nan

>  <Pocket>  (966) 
nan

>  <ATP_Site>  (966) 
nan

>  <Peripheral>  (966) 
nan

>  <Num_H_Atoms_ProtBoundConf>  (966) 
nan

>  <Num_Resolved_Atoms>  (966) 
nan

>  <Num_Not_Resolved_Atoms>  (966) 
nan

$$$$
CHEMBL4082278
     RDKit          3D

  0  0  0  0  0  0  0  0  0  0999 V3000
M  V30 BEGIN CTAB
M  V30 COUNTS 59 62 0 0 0
M  V30 BEGIN ATOM
M  V30 1 C 6.145628 -4.683170 4.557209 0
M  V30 2 C 5.892642 -3.985242 3.491755 0
M  V30 3 C 5.557170 -2.781963 2.763393 0
M  V30 4 O 5.443296 -2.783410 1.520779 0
M  V30 5 N 5.363948 -1.591491 3.555264 0
M  V30 6 C 5.032760 -0.381970 2.886718 0
M  V30 7 C 6.091591 0.409416 2.506745 0
M  V30 8 C 5.900539 1.596865 1.843646 0
M  V30 9 C 4.642887 2.050768 1.528154 0
M  V30 10 C 3.565875 1.240343 1.917178 0
M  V30 11 C 2.199572 1.640929 1.586882 0
M  V30 12 O 1.186476 1.007013 2.041063 0
M  V30 13 N 1.845053 2.728227 0.757846 0
M  V30 14 C 0.435033 2.819147 0.650379 0
M  V30 15 C -0.617685 3.468220 1.216034 0
M  V30 16 C -1.921487 3.296085 0.838864 0
M  V30 17 C -2.270763 2.432358 -0.167576 0
M  V30 18 N -3.643546 2.310266 -0.507456 0
M  V30 19 C -4.119577 1.317027 -1.437093 0
M  V30 20 C -3.760522 -0.013585 -1.239626 0
M  V30 21 C -4.158170 -1.033978 -2.079653 0
M  V30 22 C -3.736363 -2.398983 -1.822592 0
M  V30 23 N -2.899808 -2.650137 -0.770227 0
M  V30 24 C -2.628110 -3.970784 -0.692770 0
M  V30 25 S -1.624067 -4.884876 0.432368 0
M  V30 26 C -2.499455 -5.456927 1.889721 0
M  V30 27 N -3.304631 -4.530112 -1.705960 0
M  V30 28 C -3.985265 -3.598596 -2.406378 0
M  V30 29 C -4.844279 -3.799069 -3.574007 0
M  V30 30 C -4.937971 -0.632627 -3.126592 0
M  V30 31 C -5.313248 0.698732 -3.348732 0
M  V30 32 N -4.894680 1.676818 -2.489488 0
M  V30 33 C -1.255858 1.739048 -0.789822 0
M  V30 34 C 0.076757 1.928549 -0.387837 0
M  V30 35 C 3.729855 0.043192 2.585051 0
M  V30 36 H 6.391022 -5.544434 5.136063 0
M  V30 37 H 6.149671 -4.299502 5.549604 0
M  V30 38 H 6.046402 -4.889381 2.898082 0
M  V30 39 H 5.451612 -1.555358 4.600712 0
M  V30 40 H 7.128079 0.136201 2.710769 0
M  V30 41 H 6.716973 2.235089 1.534963 0
M  V30 42 H 4.506256 2.984751 1.008016 0
M  V30 43 H 2.612053 3.301309 0.346874 0
M  V30 44 H -0.186161 4.108928 1.987283 0
M  V30 45 H -2.596853 3.904872 1.415453 0
M  V30 46 H -4.364717 2.938119 -0.096910 0
M  V30 47 H -3.137020 -0.190981 -0.350298 0
M  V30 48 H -2.433733 -2.054105 -0.024827 0
M  V30 49 H -2.602509 -6.559836 1.891720 0
M  V30 50 H -3.472911 -4.978178 2.028064 0
M  V30 51 H -1.862475 -5.195437 2.774034 0
M  V30 52 H -4.879796 -4.924096 -3.736430 0
M  V30 53 H -4.426744 -3.441986 -4.537947 0
M  V30 54 H -5.917971 -3.558713 -3.421253 0
M  V30 55 H -5.298340 -1.345027 -3.843630 0
M  V30 56 H -5.933251 0.930423 -4.202935 0
M  V30 57 H -1.568465 1.071384 -1.581744 0
M  V30 58 H 0.713090 1.290128 -1.000588 0
M  V30 59 H 2.941059 -0.605187 2.901234 0
M  V30 END ATOM
M  V30 BEGIN BOND
M  V30 1 2 1 2
M  V30 2 1 2 3
M  V30 3 2 3 4
M  V30 4 1 3 5
M  V30 5 1 5 6
M  V30 6 2 6 7
M  V30 7 1 7 8
M  V30 8 2 8 9
M  V30 9 1 9 10
M  V30 10 1 10 11
M  V30 11 2 11 12
M  V30 12 1 11 13
M  V30 13 1 13 14
M  V30 14 2 14 15
M  V30 15 1 15 16
M  V30 16 2 16 17
M  V30 17 1 17 18
M  V30 18 1 18 19
M  V30 19 2 19 20
M  V30 20 1 20 21
M  V30 21 1 21 22
M  V30 22 1 22 23
M  V30 23 1 23 24
M  V30 24 1 24 25
M  V30 25 1 25 26
M  V30 26 2 24 27
M  V30 27 1 27 28
M  V30 28 1 28 29
M  V30 29 2 21 30
M  V30 30 1 30 31
M  V30 31 2 31 32
M  V30 32 1 17 33
M  V30 33 2 33 34
M  V30 34 2 10 35
M  V30 35 1 35 6
M  V30 36 1 34 14
M  V30 37 1 32 19
M  V30 38 2 28 22
M  V30 39 1 1 36
M  V30 40 1 1 37
M  V30 41 1 2 38
M  V30 42 1 5 39
M  V30 43 1 7 40
M  V30 44 1 8 41
M  V30 45 1 9 42
M  V30 46 1 13 43
M  V30 47 1 15 44
M  V30 48 1 16 45
M  V30 49 1 18 46
M  V30 50 1 20 47
M  V30 51 1 23 48
M  V30 52 1 26 49
M  V30 53 1 26 50
M  V30 54 1 26 51
M  V30 55 1 29 52
M  V30 56 1 29 53
M  V30 57 1 29 54
M  V30 58 1 30 55
M  V30 59 1 31 56
M  V30 60 1 33 57
M  V30 61 1 34 58
M  V30 62 1 35 59
M  V30 END BOND
M  V30 END CTAB
M  END
>  <Dataset>  (967) 
ChEMBL_Kinases

>  <Ligand_Instance>  (967) 
nan

>  <PDB_ID>  (967) 
nan

>  <Standardized_SMILES>  (967) 
C=CC(=O)Nc1cccc(C(=O)Nc2ccc(Nc3cc(-c4[nH]c(SC)nc4C)ccn3)cc2)c1

>  <Name>  (967) 
nan

>  <Pocket>  (967) 
nan

>  <ATP_Site>  (967) 
nan

>  <Peripheral>  (967) 
nan

>  <Num_H_Atoms_ProtBoundConf>  (967) 
nan

>  <Num_Resolved_Atoms>  (967) 
nan

>  <Num_Not_Resolved_Atoms>  (967) 
nan

$$$$
CHEMBL509435
     RDKit          3D

  0  0  0  0  0  0  0  0  0  0999 V3000
M  V30 BEGIN CTAB
M  V30 COUNTS 50 53 0 0 0
M  V30 BEGIN ATOM
M  V30 1 C -0.127871 -5.787541 2.308866 0
M  V30 2 O -1.227344 -4.926529 2.179859 0
M  V30 3 C -1.131235 -3.558894 2.010784 0
M  V30 4 C 0.106178 -2.934653 1.956698 0
M  V30 5 C 0.268931 -1.544878 1.785938 0
M  V30 6 C 1.655274 -1.105306 1.745078 0
M  V30 7 C 2.185433 -0.230804 0.916369 0
M  V30 8 C 1.850793 0.641716 -0.193803 0
M  V30 9 C 2.343171 0.463567 -1.497696 0
M  V30 10 N 1.898198 1.435745 -2.320047 0
M  V30 11 C 2.212207 1.556561 -3.739935 0
M  V30 12 C 1.124501 2.262230 -1.612409 0
M  V30 13 C 0.422928 3.424179 -1.937416 0
M  V30 14 C -0.292117 4.093448 -0.990332 0
M  V30 15 C -0.328481 3.626835 0.299337 0
M  V30 16 C 0.375073 2.478993 0.580629 0
M  V30 17 C 1.095970 1.787824 -0.338280 0
M  V30 18 C 3.618024 -0.130832 1.283911 0
M  V30 19 O 4.645154 0.510187 0.891822 0
M  V30 20 N 3.861279 -1.005016 2.371083 0
M  V30 21 C 2.631777 -1.653639 2.729898 0
M  V30 22 C -0.939910 -0.906133 1.682784 0
M  V30 23 C -2.180654 -1.445260 1.725775 0
M  V30 24 O -3.284288 -0.617308 1.599923 0
M  V30 25 C -3.072519 0.769623 1.428028 0
M  V30 26 C -2.273453 -2.802829 1.893989 0
M  V30 27 O -3.541264 -3.371527 1.940682 0
M  V30 28 C -4.176391 -3.813550 0.754406 0
M  V30 29 H 0.285479 -5.738198 3.326028 0
M  V30 30 H -0.513709 -6.828969 2.169371 0
M  V30 31 H 0.642639 -5.656571 1.528467 0
M  V30 32 H 0.968018 -3.600765 2.055194 0
M  V30 33 H 3.000226 -0.345641 -1.828740 0
M  V30 34 H 3.286259 1.823460 -3.888156 0
M  V30 35 H 1.599043 2.345018 -4.193301 0
M  V30 36 H 2.087820 0.571335 -4.257274 0
M  V30 37 H 0.436696 3.818485 -2.967396 0
M  V30 38 H -0.859983 5.007381 -1.195327 0
M  V30 39 H -0.905091 4.176635 1.048131 0
M  V30 40 H 0.343637 2.141470 1.595377 0
M  V30 41 H 4.688283 -1.275081 2.948865 0
M  V30 42 H 2.700712 -2.757479 2.709103 0
M  V30 43 H 2.325024 -1.287312 3.747825 0
M  V30 44 H -0.835789 0.135051 1.559280 0
M  V30 45 H -4.051750 1.259436 1.181105 0
M  V30 46 H -2.389206 0.998970 0.585781 0
M  V30 47 H -2.655506 1.199053 2.360122 0
M  V30 48 H -3.401144 -4.151474 0.008292 0
M  V30 49 H -4.808585 -4.685074 0.949744 0
M  V30 50 H -4.760915 -3.007375 0.270834 0
M  V30 END ATOM
M  V30 BEGIN BOND
M  V30 1 1 1 2
M  V30 2 1 2 3
M  V30 3 2 3 4
M  V30 4 1 4 5
M  V30 5 1 5 6
M  V30 6 2 6 7
M  V30 7 1 7 8
M  V30 8 2 8 9
M  V30 9 1 9 10
M  V30 10 1 10 11
M  V30 11 1 10 12
M  V30 12 2 12 13
M  V30 13 1 13 14
M  V30 14 2 14 15
M  V30 15 1 15 16
M  V30 16 2 16 17
M  V30 17 1 7 18
M  V30 18 2 18 19
M  V30 19 1 18 20
M  V30 20 1 20 21
M  V30 21 2 5 22
M  V30 22 1 22 23
M  V30 23 1 23 24
M  V30 24 1 24 25
M  V30 25 2 23 26
M  V30 26 1 26 27
M  V30 27 1 27 28
M  V30 28 1 26 3
M  V30 29 1 21 6
M  V30 30 1 17 8
M  V30 31 1 17 12
M  V30 32 1 1 29
M  V30 33 1 1 30
M  V30 34 1 1 31
M  V30 35 1 4 32
M  V30 36 1 9 33
M  V30 37 1 11 34
M  V30 38 1 11 35
M  V30 39 1 11 36
M  V30 40 1 13 37
M  V30 41 1 14 38
M  V30 42 1 15 39
M  V30 43 1 16 40
M  V30 44 1 20 41
M  V30 45 1 21 42
M  V30 46 1 21 43
M  V30 47 1 22 44
M  V30 48 1 25 45
M  V30 49 1 25 46
M  V30 50 1 25 47
M  V30 51 1 28 48
M  V30 52 1 28 49
M  V30 53 1 28 50
M  V30 END BOND
M  V30 END CTAB
M  END
>  <Dataset>  (968) 
ChEMBL_Kinases

>  <Ligand_Instance>  (968) 
nan

>  <PDB_ID>  (968) 
nan

>  <Standardized_SMILES>  (968) 
COc1cc(C2=C(c3cn(C)c4ccccc34)C(=O)NC2)cc(OC)c1OC

>  <Name>  (968) 
nan

>  <Pocket>  (968) 
nan

>  <ATP_Site>  (968) 
nan

>  <Peripheral>  (968) 
nan

>  <Num_H_Atoms_ProtBoundConf>  (968) 
nan

>  <Num_Resolved_Atoms>  (968) 
nan

>  <Num_Not_Resolved_Atoms>  (968) 
nan

$$$$
CHEMBL3702566
     RDKit          3D

  0  0  0  0  0  0  0  0  0  0999 V3000
M  V30 BEGIN CTAB
M  V30 COUNTS 46 50 0 0 0
M  V30 BEGIN ATOM
M  V30 1 C -1.294844 0.424571 -0.078954 0
M  V30 2 N -0.109954 0.863889 0.631516 0
M  V30 3 C 0.520050 2.015842 0.333634 0
M  V30 4 O 0.083666 2.761013 -0.595281 0
M  V30 5 C 1.658635 2.426448 1.024835 0
M  V30 6 S 2.496841 3.952797 0.633150 0
M  V30 7 C 3.756686 3.682784 -0.609014 0
M  V30 8 C 3.500640 3.783946 -1.965067 0
M  V30 9 C 4.472487 3.575808 -2.928171 0
M  V30 10 C 5.710993 3.261156 -2.438738 0
M  V30 11 F 6.708595 3.045321 -3.351748 0
M  V30 12 C 6.087919 3.131664 -1.117654 0
M  V30 13 C 5.054370 3.356191 -0.203679 0
M  V30 14 C 2.095109 1.583271 2.025931 0
M  V30 15 C 1.467337 0.397839 2.350392 0
M  V30 16 C 1.885697 -0.458292 3.345206 0
M  V30 17 N 1.189352 -1.581341 3.563940 0
M  V30 18 C 0.093405 -1.949523 2.878722 0
M  V30 19 N -0.567187 -3.165492 3.197000 0
M  V30 20 C -1.706799 -3.724740 2.614208 0
M  V30 21 C -2.216535 -4.931049 3.057030 0
M  V30 22 C -3.332432 -5.526822 2.521795 0
M  V30 23 C -4.018038 -4.931351 1.485508 0
M  V30 24 N -5.111887 -5.276781 0.785315 0
M  V30 25 C -5.376869 -4.332860 -0.140367 0
M  V30 26 C -4.410508 -3.350607 -0.019947 0
M  V30 27 C -3.559505 -3.725552 0.998391 0
M  V30 28 C -2.434386 -3.180535 1.579016 0
M  V30 29 N -0.280884 -1.091104 1.920672 0
M  V30 30 C 0.347284 0.054225 1.626071 0
M  V30 31 H -2.123968 0.147979 0.593010 0
M  V30 32 H -1.041060 -0.387684 -0.799037 0
M  V30 33 H -1.651156 1.306564 -0.672387 0
M  V30 34 H 2.486678 4.038763 -2.268887 0
M  V30 35 H 4.279475 3.652756 -3.974417 0
M  V30 36 H 7.082188 2.881893 -0.822976 0
M  V30 37 H 5.241453 3.280445 0.850815 0
M  V30 38 H 2.987126 1.856565 2.603052 0
M  V30 39 H 2.758411 -0.200190 3.916662 0
M  V30 40 H -0.134382 -3.727680 3.988203 0
M  V30 41 H -1.725041 -5.464880 3.878609 0
M  V30 42 H -3.683173 -6.479103 2.916437 0
M  V30 43 H -5.704031 -6.129740 0.896259 0
M  V30 44 H -6.153639 -4.225588 -0.896998 0
M  V30 45 H -4.299741 -2.440448 -0.592961 0
M  V30 46 H -2.140081 -2.246836 1.148809 0
M  V30 END ATOM
M  V30 BEGIN BOND
M  V30 1 1 1 2
M  V30 2 1 2 3
M  V30 3 2 3 4
M  V30 4 1 3 5
M  V30 5 1 5 6
M  V30 6 1 6 7
M  V30 7 2 7 8
M  V30 8 1 8 9
M  V30 9 2 9 10
M  V30 10 1 10 11
M  V30 11 1 10 12
M  V30 12 2 12 13
M  V30 13 2 5 14
M  V30 14 1 14 15
M  V30 15 2 15 16
M  V30 16 1 16 17
M  V30 17 2 17 18
M  V30 18 1 18 19
M  V30 19 1 19 20
M  V30 20 2 20 21
M  V30 21 1 21 22
M  V30 22 2 22 23
M  V30 23 1 23 24
M  V30 24 1 24 25
M  V30 25 2 25 26
M  V30 26 1 26 27
M  V30 27 2 27 28
M  V30 28 1 18 29
M  V30 29 2 29 30
M  V30 30 1 30 2
M  V30 31 1 13 7
M  V30 32 1 30 15
M  V30 33 1 28 20
M  V30 34 1 27 23
M  V30 35 1 1 31
M  V30 36 1 1 32
M  V30 37 1 1 33
M  V30 38 1 8 34
M  V30 39 1 9 35
M  V30 40 1 12 36
M  V30 41 1 13 37
M  V30 42 1 14 38
M  V30 43 1 16 39
M  V30 44 1 19 40
M  V30 45 1 21 41
M  V30 46 1 22 42
M  V30 47 1 24 43
M  V30 48 1 25 44
M  V30 49 1 26 45
M  V30 50 1 28 46
M  V30 END BOND
M  V30 END CTAB
M  END
>  <Dataset>  (969) 
ChEMBL_Kinases

>  <Ligand_Instance>  (969) 
nan

>  <PDB_ID>  (969) 
nan

>  <Standardized_SMILES>  (969) 
Cn1c(=O)c(Sc2ccc(F)cc2)cc2cnc(Nc3ccc4[nH]ccc4c3)nc21

>  <Name>  (969) 
nan

>  <Pocket>  (969) 
nan

>  <ATP_Site>  (969) 
nan

>  <Peripheral>  (969) 
nan

>  <Num_H_Atoms_ProtBoundConf>  (969) 
nan

>  <Num_Resolved_Atoms>  (969) 
nan

>  <Num_Not_Resolved_Atoms>  (969) 
nan

$$$$
CHEMBL3884250
     RDKit          3D

  0  0  0  0  0  0  0  0  0  0999 V3000
M  V30 BEGIN CTAB
M  V30 COUNTS 32 35 0 0 0
M  V30 BEGIN ATOM
M  V30 1 C -1.338175 -3.444008 3.751128 0
M  V30 2 O -0.913787 -2.514883 2.814318 0
M  V30 3 C -0.102628 -2.631451 1.754658 0
M  V30 4 C 0.369092 -3.911226 1.606343 0
M  V30 5 C 1.230707 -4.218121 0.551433 0
M  V30 6 C 1.583032 -3.224858 -0.311869 0
M  V30 7 C 1.079562 -1.958303 -0.115217 0
M  V30 8 N 1.324051 -0.867080 -0.869481 0
M  V30 9 C 0.645604 0.132215 -0.331344 0
M  V30 10 C 0.548055 1.454315 -0.708934 0
M  V30 11 C 1.231489 1.919890 -1.819421 0
M  V30 12 C 1.120916 3.263609 -2.187610 0
M  V30 13 N 0.336404 4.040101 -1.419000 0
M  V30 14 C -0.331673 3.593586 -0.336785 0
M  V30 15 C -0.250069 2.275448 0.060979 0
M  V30 16 C -0.930556 1.809854 1.167466 0
M  V30 17 C -0.828587 0.465024 1.547810 0
M  V30 18 C -1.586928 0.141704 2.705396 0
M  V30 19 N -2.208197 -0.101150 3.645238 0
M  V30 20 C -0.035366 -0.329190 0.774182 0
M  V30 21 C 0.228760 -1.636871 0.919356 0
M  V30 22 H -2.158583 -4.048147 3.292404 0
M  V30 23 H -0.526252 -4.142424 4.047619 0
M  V30 24 H -1.775205 -2.962863 4.645845 0
M  V30 25 H 0.154218 -4.781517 2.234872 0
M  V30 26 H 1.629637 -5.207330 0.390070 0
M  V30 27 H 2.246347 -3.446121 -1.129780 0
M  V30 28 H 1.934744 -0.790897 -1.730571 0
M  V30 29 H 1.855491 1.270689 -2.418591 0
M  V30 30 H 1.634562 3.674760 -3.045854 0
M  V30 31 H -0.945644 4.264573 0.240309 0
M  V30 32 H -1.523137 2.566376 1.682402 0
M  V30 END ATOM
M  V30 BEGIN BOND
M  V30 1 1 1 2
M  V30 2 1 2 3
M  V30 3 2 3 4
M  V30 4 1 4 5
M  V30 5 2 5 6
M  V30 6 1 6 7
M  V30 7 1 7 8
M  V30 8 1 8 9
M  V30 9 2 9 10
M  V30 10 1 10 11
M  V30 11 2 11 12
M  V30 12 1 12 13
M  V30 13 2 13 14
M  V30 14 1 14 15
M  V30 15 2 15 16
M  V30 16 1 16 17
M  V30 17 1 17 18
M  V30 18 3 18 19
M  V30 19 2 17 20
M  V30 20 1 20 21
M  V30 21 1 21 3
M  V30 22 2 21 7
M  V30 23 1 20 9
M  V30 24 1 15 10
M  V30 25 1 1 22
M  V30 26 1 1 23
M  V30 27 1 1 24
M  V30 28 1 4 25
M  V30 29 1 5 26
M  V30 30 1 6 27
M  V30 31 1 8 28
M  V30 32 1 11 29
M  V30 33 1 12 30
M  V30 34 1 14 31
M  V30 35 1 16 32
M  V30 END BOND
M  V30 END CTAB
M  END
>  <Dataset>  (970) 
ChEMBL_Kinases

>  <Ligand_Instance>  (970) 
nan

>  <PDB_ID>  (970) 
nan

>  <Standardized_SMILES>  (970) 
COc1cccc2[nH]c3c4ccncc4cc(C#N)c3c12

>  <Name>  (970) 
nan

>  <Pocket>  (970) 
nan

>  <ATP_Site>  (970) 
nan

>  <Peripheral>  (970) 
nan

>  <Num_H_Atoms_ProtBoundConf>  (970) 
nan

>  <Num_Resolved_Atoms>  (970) 
nan

>  <Num_Not_Resolved_Atoms>  (970) 
nan

$$$$
CHEMBL1794065
     RDKit          3D

  0  0  0  0  0  0  0  0  0  0999 V3000
M  V30 BEGIN CTAB
M  V30 COUNTS 58 61 0 0 0
M  V30 BEGIN ATOM
M  V30 1 C 2.344456 -3.029785 -0.355108 0
M  V30 2 C 2.090066 -1.627211 -0.833809 0
M  V30 3 N 1.605158 -0.741495 0.206982 0
M  V30 4 C 2.326654 0.028119 1.042920 0
M  V30 5 C 3.773938 0.147966 1.093136 0
M  V30 6 N 4.741944 -0.438349 0.365361 0
M  V30 7 O 5.915427 -0.049173 0.739610 0
M  V30 8 N 5.795351 0.802187 1.719350 0
M  V30 9 C 4.468633 0.956244 1.974841 0
M  V30 10 N 3.980598 1.825808 2.997438 0
M  V30 11 N 1.522074 0.714159 1.874774 0
M  V30 12 C 0.240068 0.394146 1.585983 0
M  V30 13 C -0.981975 0.782238 2.102472 0
M  V30 14 C -1.020609 1.727601 3.184712 0
M  V30 15 C -1.064004 2.510225 4.103721 0
M  V30 16 C -1.129171 3.461693 5.213348 0
M  V30 17 C 0.012514 4.459175 5.125619 0
M  V30 18 C -1.010668 2.771654 6.561679 0
M  V30 19 O -2.369079 4.068935 5.158271 0
M  V30 20 N -2.118579 0.273121 1.588948 0
M  V30 21 C -2.107723 -0.612244 0.576932 0
M  V30 22 C -0.888402 -1.024607 0.032884 0
M  V30 23 O -0.772745 -1.933177 -1.011897 0
M  V30 24 C -1.940597 -2.471717 -1.557153 0
M  V30 25 C -1.685127 -3.444423 -2.683447 0
M  V30 26 C -3.053450 -3.931950 -3.158508 0
M  V30 27 C -2.930191 -4.993844 -4.206272 0
M  V30 28 N -1.772495 -4.782139 -5.060200 0
M  V30 29 C -1.454232 -3.372029 -5.180257 0
M  V30 30 C -0.984461 -2.836617 -3.850480 0
M  V30 31 C 0.303060 -0.511781 0.547356 0
M  V30 32 H 2.127495 -3.775575 -1.164372 0
M  V30 33 H 3.370944 -3.156531 0.047411 0
M  V30 34 H 1.646133 -3.265198 0.479625 0
M  V30 35 H 3.084830 -1.213197 -1.157224 0
M  V30 36 H 1.465861 -1.584643 -1.748246 0
M  V30 37 H 3.573336 1.597292 3.951721 0
M  V30 38 H 3.658391 1.215146 3.797886 0
M  V30 39 H 0.916996 4.088908 5.661499 0
M  V30 40 H 0.301555 4.589025 4.055176 0
M  V30 41 H -0.318492 5.423956 5.551027 0
M  V30 42 H -1.811378 2.046914 6.736853 0
M  V30 43 H -1.084889 3.599546 7.310473 0
M  V30 44 H -0.014730 2.315395 6.690052 0
M  V30 45 H -2.975172 3.782793 5.892564 0
M  V30 46 H -2.991783 -1.059044 0.119466 0
M  V30 47 H -2.448317 -3.030642 -0.743720 0
M  V30 48 H -2.652874 -1.674250 -1.851228 0
M  V30 49 H -1.180046 -4.343240 -2.275047 0
M  V30 50 H -3.590259 -3.069553 -3.604130 0
M  V30 51 H -3.610037 -4.367037 -2.291507 0
M  V30 52 H -3.824044 -4.926648 -4.860543 0
M  V30 53 H -2.934485 -6.019568 -3.790644 0
M  V30 54 H -0.976887 -5.345725 -4.741957 0
M  V30 55 H -0.588230 -3.312479 -5.889238 0
M  V30 56 H -2.321112 -2.819771 -5.554635 0
M  V30 57 H 0.098075 -3.124620 -3.748830 0
M  V30 58 H -1.012709 -1.731832 -3.884374 0
M  V30 END ATOM
M  V30 BEGIN BOND
M  V30 1 1 1 2
M  V30 2 1 2 3
M  V30 3 1 3 4
M  V30 4 1 4 5
M  V30 5 2 5 6
M  V30 6 1 6 7
M  V30 7 1 7 8
M  V30 8 2 8 9
M  V30 9 1 9 10
M  V30 10 2 4 11
M  V30 11 1 11 12
M  V30 12 2 12 13
M  V30 13 1 13 14
M  V30 14 3 14 15
M  V30 15 1 15 16
M  V30 16 1 16 17
M  V30 17 1 16 18
M  V30 18 1 16 19
M  V30 19 1 13 20
M  V30 20 2 20 21
M  V30 21 1 21 22
M  V30 22 1 22 23
M  V30 23 1 23 24
M  V30 24 1 24 25
M  V30 25 1 25 26
M  V30 26 1 26 27
M  V30 27 1 27 28
M  V30 28 1 28 29
M  V30 29 1 29 30
M  V30 30 2 22 31
M  V30 31 1 31 3
M  V30 32 1 9 5
M  V30 33 1 31 12
M  V30 34 1 30 25
M  V30 35 1 1 32
M  V30 36 1 1 33
M  V30 37 1 1 34
M  V30 38 1 2 35
M  V30 39 1 2 36
M  V30 40 1 10 37
M  V30 41 1 10 38
M  V30 42 1 17 39
M  V30 43 1 17 40
M  V30 44 1 17 41
M  V30 45 1 18 42
M  V30 46 1 18 43
M  V30 47 1 18 44
M  V30 48 1 19 45
M  V30 49 1 21 46
M  V30 50 1 24 47
M  V30 51 1 24 48
M  V30 52 1 25 49
M  V30 53 1 26 50
M  V30 54 1 26 51
M  V30 55 1 27 52
M  V30 56 1 27 53
M  V30 57 1 28 54
M  V30 58 1 29 55
M  V30 59 1 29 56
M  V30 60 1 30 57
M  V30 61 1 30 58
M  V30 END BOND
M  V30 END CTAB
M  END
>  <Dataset>  (971) 
ChEMBL_Kinases

>  <Ligand_Instance>  (971) 
nan

>  <PDB_ID>  (971) 
nan

>  <Standardized_SMILES>  (971) 
CCn1c(-c2nonc2N)nc2c(C#CC(C)(C)O)ncc(OCC3CCNCC3)c21

>  <Name>  (971) 
GSK-554170A

>  <Pocket>  (971) 
nan

>  <ATP_Site>  (971) 
nan

>  <Peripheral>  (971) 
nan

>  <Num_H_Atoms_ProtBoundConf>  (971) 
nan

>  <Num_Resolved_Atoms>  (971) 
nan

>  <Num_Not_Resolved_Atoms>  (971) 
nan

$$$$
CHEMBL4461649
     RDKit          3D

  0  0  0  0  0  0  0  0  0  0999 V3000
M  V30 BEGIN CTAB
M  V30 COUNTS 40 43 0 0 0
M  V30 BEGIN ATOM
M  V30 1 N 1.473123 -4.688754 0.574455 0
M  V30 2 C 1.895962 -3.726662 1.547014 0
M  V30 3 C 0.805039 -2.809614 2.031110 0
M  V30 4 C 0.144736 -1.978037 1.021379 0
M  V30 5 C -0.961494 -2.541870 0.424304 0
M  V30 6 C -1.639865 -1.822751 -0.537893 0
M  V30 7 C -1.217519 -0.564038 -0.893933 0
M  V30 8 C -0.124064 0.067385 -0.344356 0
M  V30 9 C 0.530420 1.333315 -0.479216 0
M  V30 10 C 1.808552 1.191589 -1.038848 0
M  V30 11 C 2.632458 2.279918 -1.306030 0
M  V30 12 N 2.184910 3.512768 -1.015523 0
M  V30 13 C 0.968799 3.699704 -0.477625 0
M  V30 14 N 0.225920 4.735514 -0.049739 0
M  V30 15 N -0.929179 4.357918 0.431781 0
M  V30 16 C -1.047402 2.996054 0.357811 0
M  V30 17 C -2.205946 2.173599 0.777268 0
M  V30 18 F -1.889903 1.179568 1.665598 0
M  V30 19 F -2.982887 3.063997 1.582393 0
M  V30 20 F -3.062715 1.829157 -0.227726 0
M  V30 21 C 0.148752 2.625831 -0.211584 0
M  V30 22 C 0.544173 -0.694449 0.632887 0
M  V30 23 C 1.235986 -2.099721 3.293335 0
M  V30 24 O 0.797986 -3.206298 4.024948 0
M  V30 25 C -0.115792 -3.474673 3.030397 0
M  V30 26 H 0.767840 -5.351556 0.924758 0
M  V30 27 H 1.315822 -4.284534 -0.352804 0
M  V30 28 H 2.670797 -3.087399 1.083375 0
M  V30 29 H 2.287731 -4.262175 2.444040 0
M  V30 30 H -1.409295 -3.510201 0.596875 0
M  V30 31 H -2.513970 -2.093921 -1.107301 0
M  V30 32 H -1.652505 0.098732 -1.640460 0
M  V30 33 H 2.284220 0.246093 -1.317904 0
M  V30 34 H 3.618158 2.191326 -1.736508 0
M  V30 35 H 0.522830 5.736904 -0.089886 0
M  V30 36 H 1.438732 -0.410376 1.211734 0
M  V30 37 H 2.346680 -1.964364 3.347207 0
M  V30 38 H 0.636639 -1.172547 3.443221 0
M  V30 39 H -1.043000 -2.874943 3.208182 0
M  V30 40 H -0.287250 -4.548934 2.879093 0
M  V30 END ATOM
M  V30 BEGIN BOND
M  V30 1 1 1 2
M  V30 2 1 2 3
M  V30 3 1 3 4
M  V30 4 2 4 5
M  V30 5 1 5 6
M  V30 6 2 6 7
M  V30 7 1 7 8
M  V30 8 1 8 9
M  V30 9 2 9 10
M  V30 10 1 10 11
M  V30 11 2 11 12
M  V30 12 1 12 13
M  V30 13 1 13 14
M  V30 14 1 14 15
M  V30 15 2 15 16
M  V30 16 1 16 17
M  V30 17 1 17 18
M  V30 18 1 17 19
M  V30 19 1 17 20
M  V30 20 1 16 21
M  V30 21 2 8 22
M  V30 22 1 3 23
M  V30 23 1 23 24
M  V30 24 1 24 25
M  V30 25 1 25 3
M  V30 26 1 22 4
M  V30 27 1 21 9
M  V30 28 2 21 13
M  V30 29 1 1 26
M  V30 30 1 1 27
M  V30 31 1 2 28
M  V30 32 1 2 29
M  V30 33 1 5 30
M  V30 34 1 6 31
M  V30 35 1 7 32
M  V30 36 1 10 33
M  V30 37 1 11 34
M  V30 38 1 14 35
M  V30 39 1 22 36
M  V30 40 1 23 37
M  V30 41 1 23 38
M  V30 42 1 25 39
M  V30 43 1 25 40
M  V30 END BOND
M  V30 END CTAB
M  END
>  <Dataset>  (972) 
ChEMBL_Kinases

>  <Ligand_Instance>  (972) 
nan

>  <PDB_ID>  (972) 
nan

>  <Standardized_SMILES>  (972) 
NCC1(c2cccc(-c3ccnc4[nH]nc(C(F)(F)F)c34)c2)COC1

>  <Name>  (972) 
nan

>  <Pocket>  (972) 
nan

>  <ATP_Site>  (972) 
nan

>  <Peripheral>  (972) 
nan

>  <Num_H_Atoms_ProtBoundConf>  (972) 
nan

>  <Num_Resolved_Atoms>  (972) 
nan

>  <Num_Not_Resolved_Atoms>  (972) 
nan

$$$$
CHEMBL1794051
     RDKit          3D

  0  0  0  0  0  0  0  0  0  0999 V3000
M  V30 BEGIN CTAB
M  V30 COUNTS 31 33 0 0 0
M  V30 BEGIN ATOM
M  V30 1 O -0.802412 -4.775852 4.761896 0
M  V30 2 C -0.763971 -3.932056 3.629875 0
M  V30 3 C 0.500588 -3.540138 3.261936 0
M  V30 4 Br 2.093260 -4.070735 4.182626 0
M  V30 5 C 0.572304 -2.706067 2.146011 0
M  V30 6 C -0.496608 -2.263337 1.412279 0
M  V30 7 C -0.354644 -1.364967 0.275720 0
M  V30 8 C 0.337603 -0.231840 0.275901 0
M  V30 9 C 0.453590 0.632412 -0.892142 0
M  V30 10 C -0.261267 0.795840 -2.079558 0
M  V30 11 C 0.069064 1.707384 -3.041468 0
M  V30 12 I -0.993118 1.964390 -4.834702 0
M  V30 13 C 1.173335 2.523800 -2.844621 0
M  V30 14 C 1.944461 2.424809 -1.683011 0
M  V30 15 C 1.534289 1.477819 -0.770504 0
M  V30 16 N 2.130210 1.160272 0.477729 0
M  V30 17 C 1.112025 0.496749 1.308076 0
M  V30 18 O 0.294045 1.510165 1.836500 0
M  V30 19 C -1.747861 -2.714912 1.859073 0
M  V30 20 C -1.906329 -3.551257 2.969448 0
M  V30 21 Br -3.596693 -4.157519 3.567843 0
M  V30 22 H -1.494862 -4.530816 5.451462 0
M  V30 23 H 1.580668 -2.426409 1.867700 0
M  V30 24 H -0.875752 -1.698806 -0.609265 0
M  V30 25 H -1.113384 0.181163 -2.265824 0
M  V30 26 H 1.538841 3.293710 -3.546445 0
M  V30 27 H 2.814071 3.035275 -1.480175 0
M  V30 28 H 3.094443 1.323584 0.832743 0
M  V30 29 H 1.561501 -0.114715 2.084479 0
M  V30 30 H -0.598036 1.455434 1.412308 0
M  V30 31 H -2.644726 -2.427691 1.349574 0
M  V30 END ATOM
M  V30 BEGIN BOND
M  V30 1 1 1 2
M  V30 2 2 2 3
M  V30 3 1 3 4
M  V30 4 1 3 5
M  V30 5 2 5 6
M  V30 6 1 6 7
M  V30 7 2 7 8 CFG=2
M  V30 8 1 8 9
M  V30 9 2 9 10
M  V30 10 1 10 11
M  V30 11 1 11 12
M  V30 12 2 11 13
M  V30 13 1 13 14
M  V30 14 2 14 15
M  V30 15 1 15 16
M  V30 16 1 16 17
M  V30 17 1 17 18
M  V30 18 1 6 19
M  V30 19 2 19 20
M  V30 20 1 20 21
M  V30 21 1 20 2
M  V30 22 1 17 8
M  V30 23 1 15 9
M  V30 24 1 1 22
M  V30 25 1 5 23
M  V30 26 1 7 24
M  V30 27 1 10 25
M  V30 28 1 13 26
M  V30 29 1 14 27
M  V30 30 1 16 28
M  V30 31 1 17 29
M  V30 32 1 18 30
M  V30 33 1 19 31
M  V30 END BOND
M  V30 END CTAB
M  END
>  <Dataset>  (973) 
ChEMBL_Kinases

>  <Ligand_Instance>  (973) 
nan

>  <PDB_ID>  (973) 
nan

>  <Standardized_SMILES>  (973) 
Oc1c(Br)cc(C=C2c3cc(I)ccc3NC2O)cc1Br

>  <Name>  (973) 
nan

>  <Pocket>  (973) 
nan

>  <ATP_Site>  (973) 
nan

>  <Peripheral>  (973) 
nan

>  <Num_H_Atoms_ProtBoundConf>  (973) 
nan

>  <Num_Resolved_Atoms>  (973) 
nan

>  <Num_Not_Resolved_Atoms>  (973) 
nan

$$$$
CHEMBL3809796
     RDKit          3D

  0  0  0  0  0  0  0  0  0  0999 V3000
M  V30 BEGIN CTAB
M  V30 COUNTS 65 70 0 0 0
M  V30 BEGIN ATOM
M  V30 1 C -2.030650 3.235717 4.277732 0
M  V30 2 C -1.955644 1.811230 4.636305 0
M  V30 3 C -1.216460 0.947462 3.911073 0
M  V30 4 C -0.448712 1.337718 2.750521 0
M  V30 5 O 0.246865 0.443171 2.116423 0
M  V30 6 N -0.069079 2.393467 1.887644 0
M  V30 7 C 0.795924 2.105472 0.824988 0
M  V30 8 C 0.423200 1.654869 -0.440658 0
M  V30 9 C 1.355279 1.413707 -1.410705 0
M  V30 10 C 2.709187 1.600294 -1.198763 0
M  V30 11 N 3.793240 1.439370 -1.974421 0
M  V30 12 N 4.889690 1.764096 -1.282268 0
M  V30 13 C 4.510690 2.142294 -0.040155 0
M  V30 14 C 3.139307 2.052926 0.055575 0
M  V30 15 C 2.153412 2.274770 0.984586 0
M  V30 16 C -1.121648 -0.533319 4.160466 0
M  V30 17 C -1.715196 -1.283485 3.021071 0
M  V30 18 C -3.092230 -1.013085 3.024519 0
M  V30 19 C -3.900591 -1.588543 2.034135 0
M  V30 20 C -3.333148 -2.395277 1.093390 0
M  V30 21 F -4.033055 -2.996594 0.103855 0
M  V30 22 C -2.008104 -2.678978 1.058361 0
M  V30 23 C -1.171138 -3.461906 0.149933 0
M  V30 24 O -0.004116 -3.892376 0.318979 0
M  V30 25 N -1.620621 -3.853502 -1.132298 0
M  V30 26 C -0.798667 -4.626988 -2.033468 0
M  V30 27 C 0.489764 -3.944425 -2.365360 0
M  V30 28 N 1.638962 -4.353552 -1.842357 0
M  V30 29 C 2.806777 -3.780942 -2.112994 0
M  V30 30 C 2.882994 -2.699366 -2.978084 0
M  V30 31 C 1.724754 -2.210671 -3.566459 0
M  V30 32 C 1.751871 -1.133496 -4.428804 0
M  V30 33 C 0.551971 -0.691124 -4.981043 0
M  V30 34 C -0.649671 -1.331013 -4.660875 0
M  V30 35 C -0.649140 -2.402879 -3.797359 0
M  V30 36 C 0.540201 -2.860721 -3.236264 0
M  V30 37 C -1.200994 -2.107494 2.044271 0
M  V30 38 N -1.811569 -0.791828 5.388668 0
M  V30 39 C -2.620809 0.018254 6.224675 0
M  V30 40 O -3.187966 -0.527177 7.216840 0
M  V30 41 N -2.663958 1.360707 5.794572 0
M  V30 42 H -2.728511 3.721380 5.035349 0
M  V30 43 H -1.093551 3.770757 4.424711 0
M  V30 44 H -2.567127 3.435739 3.318970 0
M  V30 45 H -0.553985 3.244592 2.255318 0
M  V30 46 H -0.655546 1.510974 -0.587046 0
M  V30 47 H 0.958333 1.061653 -2.362662 0
M  V30 48 H 3.681748 1.103295 -2.967665 0
M  V30 49 H 5.108513 2.472926 0.798101 0
M  V30 50 H 2.561795 2.625568 1.937526 0
M  V30 51 H -0.075144 -0.856003 4.266999 0
M  V30 52 H -3.700725 -0.402655 3.690086 0
M  V30 53 H -4.968492 -1.463176 1.928681 0
M  V30 54 H -2.574678 -3.595859 -1.492549 0
M  V30 55 H -1.293199 -4.798277 -3.007887 0
M  V30 56 H -0.578134 -5.616150 -1.579623 0
M  V30 57 H 3.701781 -4.157403 -1.658485 0
M  V30 58 H 3.853588 -2.250247 -3.184349 0
M  V30 59 H 2.694133 -0.653986 -4.659283 0
M  V30 60 H 0.589816 0.157393 -5.656224 0
M  V30 61 H -1.505651 -0.894091 -5.153235 0
M  V30 62 H -1.612076 -2.851678 -3.589768 0
M  V30 63 H -0.120353 -2.219259 2.197435 0
M  V30 64 H -1.651018 -1.795843 5.669265 0
M  V30 65 H -3.253504 2.005767 6.384875 0
M  V30 END ATOM
M  V30 BEGIN BOND
M  V30 1 1 1 2
M  V30 2 2 2 3
M  V30 3 1 3 4
M  V30 4 2 4 5
M  V30 5 1 4 6
M  V30 6 1 6 7
M  V30 7 2 7 8
M  V30 8 1 8 9
M  V30 9 2 9 10
M  V30 10 1 10 11
M  V30 11 1 11 12
M  V30 12 2 12 13
M  V30 13 1 13 14
M  V30 14 2 14 15
M  V30 15 1 3 16
M  V30 16 1 16 17
M  V30 17 2 17 18
M  V30 18 1 18 19
M  V30 19 2 19 20
M  V30 20 1 20 21
M  V30 21 1 20 22
M  V30 22 1 22 23
M  V30 23 2 23 24
M  V30 24 1 23 25
M  V30 25 1 25 26
M  V30 26 1 26 27
M  V30 27 2 27 28
M  V30 28 1 28 29
M  V30 29 2 29 30
M  V30 30 1 30 31
M  V30 31 2 31 32
M  V30 32 1 32 33
M  V30 33 2 33 34
M  V30 34 1 34 35
M  V30 35 2 35 36
M  V30 36 2 22 37
M  V30 37 1 16 38
M  V30 38 1 38 39
M  V30 39 2 39 40
M  V30 40 1 39 41
M  V30 41 1 41 2
M  V30 42 1 15 7
M  V30 43 1 37 17
M  V30 44 1 14 10
M  V30 45 1 36 27
M  V30 46 1 36 31
M  V30 47 1 1 42
M  V30 48 1 1 43
M  V30 49 1 1 44
M  V30 50 1 6 45
M  V30 51 1 8 46
M  V30 52 1 9 47
M  V30 53 1 11 48
M  V30 54 1 13 49
M  V30 55 1 15 50
M  V30 56 1 16 51
M  V30 57 1 18 52
M  V30 58 1 19 53
M  V30 59 1 25 54
M  V30 60 1 26 55
M  V30 61 1 26 56
M  V30 62 1 29 57
M  V30 63 1 30 58
M  V30 64 1 32 59
M  V30 65 1 33 60
M  V30 66 1 34 61
M  V30 67 1 35 62
M  V30 68 1 37 63
M  V30 69 1 38 64
M  V30 70 1 41 65
M  V30 END BOND
M  V30 END CTAB
M  END
>  <Dataset>  (974) 
ChEMBL_Kinases

>  <Ligand_Instance>  (974) 
nan

>  <PDB_ID>  (974) 
nan

>  <Standardized_SMILES>  (974) 
CC1=C(C(=O)Nc2ccc3[nH]ncc3c2)C(c2ccc(F)c(C(=O)NCc3nccc4ccccc34)c2)NC(=O)N1

>  <Name>  (974) 
nan

>  <Pocket>  (974) 
nan

>  <ATP_Site>  (974) 
nan

>  <Peripheral>  (974) 
nan

>  <Num_H_Atoms_ProtBoundConf>  (974) 
nan

>  <Num_Resolved_Atoms>  (974) 
nan

>  <Num_Not_Resolved_Atoms>  (974) 
nan

$$$$
CHEMBL4453292
     RDKit          3D

  0  0  0  0  0  0  0  0  0  0999 V3000
M  V30 BEGIN CTAB
M  V30 COUNTS 67 71 0 0 0
M  V30 BEGIN ATOM
M  V30 1 C 3.729549 -4.913636 5.551886 0
M  V30 2 N 2.812372 -3.771519 5.470059 0
M  V30 3 C 1.444480 -4.027061 5.916616 0
M  V30 4 C 2.863960 -2.389949 5.059100 0
M  V30 5 C 2.624212 -2.000048 3.770866 0
M  V30 6 C 2.659596 -0.690178 3.342451 0
M  V30 7 C 2.386786 -0.297679 1.965926 0
M  V30 8 C 2.096538 -1.241573 1.012434 0
M  V30 9 C 1.817161 -0.925584 -0.295549 0
M  V30 10 C 1.839010 0.437989 -0.640371 0
M  V30 11 N 1.615366 1.133954 -1.783646 0
M  V30 12 C 1.769981 2.455461 -1.501555 0
M  V30 13 N 1.505537 3.134983 -2.746303 0
M  V30 14 C 0.119226 3.264509 -3.071300 0
M  V30 15 C -0.854484 2.809932 -2.190792 0
M  V30 16 C -2.233939 2.814411 -2.367112 0
M  V30 17 C -3.036226 2.283255 -1.223271 0
M  V30 18 N -3.135361 0.897138 -1.141759 0
M  V30 19 C -3.733289 0.121676 -2.149299 0
M  V30 20 C -2.835059 -1.101033 -2.392516 0
M  V30 21 N -2.746829 -1.806666 -1.134889 0
M  V30 22 C -2.110634 -3.035074 -0.872963 0
M  V30 23 O -2.034298 -3.641786 0.223237 0
M  V30 24 C -1.346257 -4.076473 -1.560156 0
M  V30 25 C -0.924204 -5.176129 -0.599305 0
M  V30 26 F -2.038909 -5.776123 -0.012591 0
M  V30 27 F -0.247867 -6.158814 -1.280439 0
M  V30 28 F -0.071654 -4.634823 0.336224 0
M  V30 29 C -3.371355 -1.220249 0.038226 0
M  V30 30 C -3.119328 0.265852 0.117008 0
M  V30 31 C -2.658644 3.338798 -3.568790 0
M  V30 32 C -1.709052 3.800536 -4.464944 0
M  V30 33 N -0.389930 3.759972 -4.216190 0
M  V30 34 N 2.086600 2.578272 -0.206474 0
M  V30 35 C 2.135828 1.354301 0.351188 0
M  V30 36 C 2.417329 1.050180 1.665959 0
M  V30 37 N 2.953387 0.205193 4.298936 0
M  V30 38 C 3.194266 -0.135127 5.570330 0
M  V30 39 N 3.157230 -1.438546 5.986375 0
M  V30 40 H 3.306323 -5.732456 4.920778 0
M  V30 41 H 3.710071 -5.230711 6.621597 0
M  V30 42 H 4.746286 -4.634928 5.261227 0
M  V30 43 H 0.717867 -3.764006 5.094682 0
M  V30 44 H 1.291214 -5.090136 6.193585 0
M  V30 45 H 1.247035 -3.368177 6.787555 0
M  V30 46 H 2.402813 -2.798177 3.110202 0
M  V30 47 H 2.061699 -2.306584 1.191200 0
M  V30 48 H 1.578801 -1.556945 -1.130117 0
M  V30 49 H 2.190304 3.543282 -3.437030 0
M  V30 50 H -0.498890 2.400146 -1.250177 0
M  V30 51 H -2.504261 2.643924 -0.292002 0
M  V30 52 H -4.003351 2.837188 -1.223898 0
M  V30 53 H -3.932149 0.650791 -3.100898 0
M  V30 54 H -4.706313 -0.340508 -1.804465 0
M  V30 55 H -1.815085 -0.640967 -2.554473 0
M  V30 56 H -3.155913 -1.707892 -3.239993 0
M  V30 57 H -1.913829 -4.560861 -2.379798 0
M  V30 58 H -0.421012 -3.647978 -1.975963 0
M  V30 59 H -2.969185 -1.648123 0.979650 0
M  V30 60 H -4.443251 -1.497213 0.030267 0
M  V30 61 H -2.110872 0.438218 0.576020 0
M  V30 62 H -3.866414 0.683292 0.819676 0
M  V30 63 H -3.737964 3.334711 -3.693031 0
M  V30 64 H -2.080359 4.201992 -5.393269 0
M  V30 65 H 2.220139 3.558330 0.075652 0
M  V30 66 H 2.638149 1.830162 2.370309 0
M  V30 67 H 3.427815 0.655074 6.290883 0
M  V30 END ATOM
M  V30 BEGIN BOND
M  V30 1 1 1 2
M  V30 2 1 2 3
M  V30 3 1 2 4
M  V30 4 2 4 5
M  V30 5 1 5 6
M  V30 6 1 6 7
M  V30 7 2 7 8
M  V30 8 1 8 9
M  V30 9 2 9 10
M  V30 10 1 10 11
M  V30 11 2 11 12
M  V30 12 1 12 13
M  V30 13 1 13 14
M  V30 14 2 14 15
M  V30 15 1 15 16
M  V30 16 1 16 17
M  V30 17 1 17 18
M  V30 18 1 18 19
M  V30 19 1 19 20
M  V30 20 1 20 21
M  V30 21 1 21 22
M  V30 22 2 22 23
M  V30 23 1 22 24
M  V30 24 1 24 25
M  V30 25 1 25 26
M  V30 26 1 25 27
M  V30 27 1 25 28
M  V30 28 1 21 29
M  V30 29 1 29 30
M  V30 30 2 16 31
M  V30 31 1 31 32
M  V30 32 2 32 33
M  V30 33 1 12 34
M  V30 34 1 34 35
M  V30 35 2 35 36
M  V30 36 2 6 37
M  V30 37 1 37 38
M  V30 38 2 38 39
M  V30 39 1 39 4
M  V30 40 1 36 7
M  V30 41 1 35 10
M  V30 42 1 33 14
M  V30 43 1 30 18
M  V30 44 1 1 40
M  V30 45 1 1 41
M  V30 46 1 1 42
M  V30 47 1 3 43
M  V30 48 1 3 44
M  V30 49 1 3 45
M  V30 50 1 5 46
M  V30 51 1 8 47
M  V30 52 1 9 48
M  V30 53 1 13 49
M  V30 54 1 15 50
M  V30 55 1 17 51
M  V30 56 1 17 52
M  V30 57 1 19 53
M  V30 58 1 19 54
M  V30 59 1 20 55
M  V30 60 1 20 56
M  V30 61 1 24 57
M  V30 62 1 24 58
M  V30 63 1 29 59
M  V30 64 1 29 60
M  V30 65 1 30 61
M  V30 66 1 30 62
M  V30 67 1 31 63
M  V30 68 1 32 64
M  V30 69 1 34 65
M  V30 70 1 36 66
M  V30 71 1 38 67
M  V30 END BOND
M  V30 END CTAB
M  END
>  <Dataset>  (975) 
ChEMBL_Kinases

>  <Ligand_Instance>  (975) 
nan

>  <PDB_ID>  (975) 
nan

>  <Standardized_SMILES>  (975) 
CN(C)c1cc(-c2ccc3nc(Nc4cc(CN5CCN(C(=O)CC(F)(F)F)CC5)ccn4)[nH]c3c2)ncn1

>  <Name>  (975) 
nan

>  <Pocket>  (975) 
nan

>  <ATP_Site>  (975) 
nan

>  <Peripheral>  (975) 
nan

>  <Num_H_Atoms_ProtBoundConf>  (975) 
nan

>  <Num_Resolved_Atoms>  (975) 
nan

>  <Num_Not_Resolved_Atoms>  (975) 
nan

$$$$
CHEMBL4847784
     RDKit          3D

  0  0  0  0  0  0  0  0  0  0999 V3000
M  V30 BEGIN CTAB
M  V30 COUNTS 46 50 0 0 0
M  V30 BEGIN ATOM
M  V30 1 O 4.895270 2.974576 -0.840008 0
M  V30 2 C 4.317660 2.150609 -0.122441 0
M  V30 3 N 4.883898 0.913229 0.273748 0
M  V30 4 C 6.205073 0.537739 -0.152438 0
M  V30 5 C 7.090323 -0.128002 0.864578 0
M  V30 6 O 7.478254 -1.012802 -0.159194 0
M  V30 7 C 6.275737 -0.818705 -0.858247 0
M  V30 8 C 2.914735 2.447000 0.384737 0
M  V30 9 C 2.008484 1.868107 1.125906 0
M  V30 10 C 0.825500 2.466455 1.365850 0
M  V30 11 N -0.139384 1.775213 2.195500 0
M  V30 12 N -0.243455 1.859932 3.511458 0
M  V30 13 C -1.233690 1.102434 3.983630 0
M  V30 14 C -1.761286 0.515888 2.825645 0
M  V30 15 C -2.810683 -0.371600 2.673038 0
M  V30 16 C -3.183819 -0.841610 1.429308 0
M  V30 17 N -4.246827 -1.751691 1.171927 0
M  V30 18 C -4.248795 -3.040599 0.573063 0
M  V30 19 C -3.058019 -3.571944 0.142820 0
M  V30 20 C -3.186531 -4.827855 -0.423007 0
M  V30 21 C -4.365914 -5.529618 -0.569351 0
M  V30 22 C -5.522185 -4.900358 -0.098631 0
M  V30 23 C -5.485313 -3.634312 0.485886 0
M  V30 24 Cl -6.945007 -2.859994 1.070734 0
M  V30 25 C -2.487754 -0.413510 0.294661 0
M  V30 26 F -2.707345 -0.760791 -0.981363 0
M  V30 27 C -1.438594 0.474510 0.451977 0
M  V30 28 C -1.073696 0.938787 1.703581 0
M  V30 29 C 0.639440 3.676063 0.804157 0
M  V30 30 S 2.263403 3.970319 -0.124852 0
M  V30 31 H 4.418176 0.196930 0.880632 0
M  V30 32 H 6.743673 1.261393 -0.795603 0
M  V30 33 H 7.897899 0.565018 1.179985 0
M  V30 34 H 6.544946 -0.647719 1.669258 0
M  V30 35 H 5.487820 -1.495393 -0.526506 0
M  V30 36 H 6.391036 -0.747323 -1.960606 0
M  V30 37 H 2.372472 0.888028 1.478375 0
M  V30 38 H -1.591337 0.938056 4.993129 0
M  V30 39 H -3.400609 -0.748969 3.523970 0
M  V30 40 H -5.075223 -1.242652 1.537819 0
M  V30 41 H -2.107455 -3.103984 0.215313 0
M  V30 42 H -2.295921 -5.347920 -0.802027 0
M  V30 43 H -4.388778 -6.508645 -1.022671 0
M  V30 44 H -6.483984 -5.387505 -0.177725 0
M  V30 45 H -0.820194 0.884328 -0.331804 0
M  V30 46 H -0.463705 4.242415 1.023686 0
M  V30 END ATOM
M  V30 BEGIN BOND
M  V30 1 2 1 2
M  V30 2 1 2 3
M  V30 3 1 3 4
M  V30 4 1 4 5
M  V30 5 1 5 6
M  V30 6 1 6 7
M  V30 7 1 2 8
M  V30 8 2 8 9
M  V30 9 1 9 10
M  V30 10 1 10 11
M  V30 11 1 11 12
M  V30 12 2 12 13
M  V30 13 1 13 14
M  V30 14 2 14 15
M  V30 15 1 15 16
M  V30 16 1 16 17
M  V30 17 1 17 18
M  V30 18 2 18 19
M  V30 19 1 19 20
M  V30 20 2 20 21
M  V30 21 1 21 22
M  V30 22 2 22 23
M  V30 23 1 23 24
M  V30 24 2 16 25
M  V30 25 1 25 26
M  V30 26 1 25 27
M  V30 27 2 27 28
M  V30 28 2 10 29
M  V30 29 1 29 30
M  V30 30 1 7 4
M  V30 31 1 30 8
M  V30 32 1 28 11
M  V30 33 1 28 14
M  V30 34 1 23 18
M  V30 35 1 3 31
M  V30 36 1 4 32
M  V30 37 1 5 33
M  V30 38 1 5 34
M  V30 39 1 7 35
M  V30 40 1 7 36
M  V30 41 1 9 37
M  V30 42 1 13 38
M  V30 43 1 15 39
M  V30 44 1 17 40
M  V30 45 1 19 41
M  V30 46 1 20 42
M  V30 47 1 21 43
M  V30 48 1 22 44
M  V30 49 1 27 45
M  V30 50 1 29 46
M  V30 END BOND
M  V30 END CTAB
M  END
>  <Dataset>  (976) 
ChEMBL_Kinases

>  <Ligand_Instance>  (976) 
nan

>  <PDB_ID>  (976) 
nan

>  <Standardized_SMILES>  (976) 
O=C(NC1COC1)c1cc(-n2ncc3cc(Nc4ccccc4Cl)c(F)cc32)cs1

>  <Name>  (976) 
nan

>  <Pocket>  (976) 
nan

>  <ATP_Site>  (976) 
nan

>  <Peripheral>  (976) 
nan

>  <Num_H_Atoms_ProtBoundConf>  (976) 
nan

>  <Num_Resolved_Atoms>  (976) 
nan

>  <Num_Not_Resolved_Atoms>  (976) 
nan

$$$$
CHEMBL1802857
     RDKit          3D

  0  0  0  0  0  0  0  0  0  0999 V3000
M  V30 BEGIN CTAB
M  V30 COUNTS 40 42 0 0 0
M  V30 BEGIN ATOM
M  V30 1 C 0.337997 -6.969060 2.298404 0
M  V30 2 C 0.719069 -5.540906 2.533751 0
M  V30 3 O 0.172678 -4.691740 1.514733 0
M  V30 4 C 0.403560 -3.350808 1.569737 0
M  V30 5 O 1.113581 -3.010244 2.578623 0
M  V30 6 C 0.062368 -2.186849 0.791134 0
M  V30 7 O 0.564152 -1.138601 1.329188 0
M  V30 8 N -0.689246 -2.022824 -0.396438 0
M  V30 9 C -0.893766 -0.752320 -0.988962 0
M  V30 10 N -0.424284 0.327914 -0.488520 0
M  V30 11 C -0.742795 1.475346 -1.231674 0
M  V30 12 C -0.436455 2.752038 -1.017566 0
M  V30 13 C 0.368031 3.052986 0.187708 0
M  V30 14 C 0.095627 4.201839 0.936960 0
M  V30 15 C 0.808837 4.523208 2.071094 0
M  V30 16 C 1.819596 3.675458 2.466666 0
M  V30 17 C 2.100593 2.531892 1.731749 0
M  V30 18 C 1.378183 2.201586 0.578156 0
M  V30 19 O 3.169415 1.880086 2.378304 0
M  V30 20 C 3.210052 2.351649 3.735217 0
M  V30 21 O 2.732763 3.677515 3.539556 0
M  V30 22 C -1.537002 0.926829 -2.352995 0
M  V30 23 O -2.049137 1.588895 -3.295678 0
M  V30 24 N -1.617924 -0.481741 -2.176436 0
M  V30 25 C -2.286780 -1.458541 -3.009502 0
M  V30 26 H -0.761613 -7.009730 2.103877 0
M  V30 27 H 0.848768 -7.366135 1.422986 0
M  V30 28 H 0.528217 -7.518155 3.234150 0
M  V30 29 H 1.833867 -5.434555 2.566583 0
M  V30 30 H 0.350051 -5.221862 3.527849 0
M  V30 31 H -1.059536 -2.910145 -0.769575 0
M  V30 32 H -0.766680 3.532764 -1.703846 0
M  V30 33 H -0.705408 4.892652 0.641733 0
M  V30 34 H 0.643883 5.391002 2.684806 0
M  V30 35 H 1.644582 1.310776 0.053086 0
M  V30 36 H 2.432099 1.770891 4.292211 0
M  V30 37 H 4.207586 2.296554 4.175261 0
M  V30 38 H -1.684952 -1.593792 -3.945893 0
M  V30 39 H -2.398725 -2.430797 -2.508100 0
M  V30 40 H -3.287776 -1.121521 -3.352507 0
M  V30 END ATOM
M  V30 BEGIN BOND
M  V30 1 1 1 2
M  V30 2 1 2 3
M  V30 3 1 3 4
M  V30 4 2 4 5
M  V30 5 1 4 6
M  V30 6 2 6 7
M  V30 7 1 6 8
M  V30 8 1 8 9
M  V30 9 2 9 10
M  V30 10 1 10 11
M  V30 11 2 11 12
M  V30 12 1 12 13
M  V30 13 2 13 14
M  V30 14 1 14 15
M  V30 15 2 15 16
M  V30 16 1 16 17
M  V30 17 2 17 18
M  V30 18 1 17 19
M  V30 19 1 19 20
M  V30 20 1 20 21
M  V30 21 1 11 22
M  V30 22 2 22 23
M  V30 23 1 22 24
M  V30 24 1 24 25
M  V30 25 1 24 9
M  V30 26 1 18 13
M  V30 27 1 21 16
M  V30 28 1 1 26
M  V30 29 1 1 27
M  V30 30 1 1 28
M  V30 31 1 2 29
M  V30 32 1 2 30
M  V30 33 1 8 31
M  V30 34 1 12 32
M  V30 35 1 14 33
M  V30 36 1 15 34
M  V30 37 1 18 35
M  V30 38 1 20 36
M  V30 39 1 20 37
M  V30 40 1 25 38
M  V30 41 1 25 39
M  V30 42 1 25 40
M  V30 END BOND
M  V30 END CTAB
M  END
>  <Dataset>  (977) 
ChEMBL_Kinases

>  <Ligand_Instance>  (977) 
nan

>  <PDB_ID>  (977) 
nan

>  <Standardized_SMILES>  (977) 
CCOC(=O)C(=O)NC1=N/C(=C\c2ccc3c(c2)OCO3)C(=O)N1C

>  <Name>  (977) 
nan

>  <Pocket>  (977) 
nan

>  <ATP_Site>  (977) 
nan

>  <Peripheral>  (977) 
nan

>  <Num_H_Atoms_ProtBoundConf>  (977) 
nan

>  <Num_Resolved_Atoms>  (977) 
nan

>  <Num_Not_Resolved_Atoms>  (977) 
nan

$$$$
CHEMBL3260567
     RDKit          3D

  0  0  0  0  0  0  0  0  0  0999 V3000
M  V30 BEGIN CTAB
M  V30 COUNTS 48 52 0 0 0
M  V30 BEGIN ATOM
M  V30 1 C 0.179098 -0.055731 5.250199 0
M  V30 2 C 0.586015 -1.088302 4.256759 0
M  V30 3 C 0.980328 -2.339335 4.729196 0
M  V30 4 C 1.365722 -3.322518 3.824952 0
M  V30 5 C 1.358213 -3.062744 2.469644 0
M  V30 6 C 0.964428 -1.818447 2.024960 0
M  V30 7 C 0.862270 -1.289328 0.667936 0
M  V30 8 N 1.621085 -0.282664 0.203563 0
M  V30 9 C 1.341854 0.027075 -1.073523 0
M  V30 10 C 1.796135 0.995912 -2.093624 0
M  V30 11 N 1.032565 2.201112 -2.167589 0
M  V30 12 C 0.836736 3.249912 -1.255815 0
M  V30 13 C 1.418773 3.312641 -0.007594 0
M  V30 14 C 1.262581 4.323345 0.916387 0
M  V30 15 C 0.454821 5.377936 0.582389 0
M  V30 16 C -0.160336 5.383134 -0.649799 0
M  V30 17 C 0.023222 4.354029 -1.541068 0
M  V30 18 F -0.597573 4.394383 -2.740656 0
M  V30 19 N 0.346179 -0.833788 -1.444788 0
M  V30 20 C 0.057419 -1.625240 -0.398923 0
M  V30 21 C -0.940905 -2.683477 -0.363819 0
M  V30 22 C -2.250667 -2.200416 -0.468423 0
M  V30 23 C -3.304475 -3.091469 -0.453359 0
M  V30 24 C -3.081450 -4.434246 -0.337770 0
M  V30 25 N -3.882592 -5.526001 -0.294753 0
M  V30 26 C -3.129163 -6.625852 -0.171165 0
M  V30 27 N -1.839081 -6.207483 -0.137134 0
M  V30 28 N -1.806252 -4.888562 -0.237183 0
M  V30 29 C -0.763303 -4.042545 -0.249322 0
M  V30 30 N 0.596505 -0.887177 2.930782 0
M  V30 31 H -0.091532 0.856514 4.641677 0
M  V30 32 H -0.741972 -0.440694 5.731730 0
M  V30 33 H 0.998629 0.156080 5.932896 0
M  V30 34 H 1.009182 -2.609489 5.782118 0
M  V30 35 H 1.690071 -4.329048 4.081508 0
M  V30 36 H 1.630507 -3.722339 1.665926 0
M  V30 37 H 2.352089 0.232978 0.705210 0
M  V30 38 H 2.847011 1.283895 -1.748935 0
M  V30 39 H 1.881867 0.507248 -3.071726 0
M  V30 40 H 0.514039 2.332759 -3.078487 0
M  V30 41 H 2.064484 2.528018 0.317147 0
M  V30 42 H 1.746054 4.316691 1.881508 0
M  V30 43 H 0.251152 6.219562 1.202962 0
M  V30 44 H -0.805441 6.195661 -0.953566 0
M  V30 45 H -2.594663 -1.159362 -0.566695 0
M  V30 46 H -4.352571 -2.798706 -0.529635 0
M  V30 47 H -3.233888 -7.705812 -0.093228 0
M  V30 48 H 0.250853 -4.345324 -0.176145 0
M  V30 END ATOM
M  V30 BEGIN BOND
M  V30 1 1 1 2
M  V30 2 2 2 3
M  V30 3 1 3 4
M  V30 4 2 4 5
M  V30 5 1 5 6
M  V30 6 1 6 7
M  V30 7 1 7 8
M  V30 8 1 8 9
M  V30 9 1 9 10
M  V30 10 1 10 11
M  V30 11 1 11 12
M  V30 12 2 12 13
M  V30 13 1 13 14
M  V30 14 2 14 15
M  V30 15 1 15 16
M  V30 16 2 16 17
M  V30 17 1 17 18
M  V30 18 2 9 19
M  V30 19 1 19 20
M  V30 20 1 20 21
M  V30 21 1 21 22
M  V30 22 2 22 23
M  V30 23 1 23 24
M  V30 24 2 24 25
M  V30 25 1 25 26
M  V30 26 2 26 27
M  V30 27 1 27 28
M  V30 28 1 28 29
M  V30 29 2 6 30
M  V30 30 1 30 2
M  V30 31 2 20 7
M  V30 32 2 29 21
M  V30 33 1 17 12
M  V30 34 1 28 24
M  V30 35 1 1 31
M  V30 36 1 1 32
M  V30 37 1 1 33
M  V30 38 1 3 34
M  V30 39 1 4 35
M  V30 40 1 5 36
M  V30 41 1 8 37
M  V30 42 1 10 38
M  V30 43 1 10 39
M  V30 44 1 11 40
M  V30 45 1 13 41
M  V30 46 1 14 42
M  V30 47 1 15 43
M  V30 48 1 16 44
M  V30 49 1 22 45
M  V30 50 1 23 46
M  V30 51 1 26 47
M  V30 52 1 29 48
M  V30 END BOND
M  V30 END CTAB
M  END
>  <Dataset>  (978) 
ChEMBL_Kinases

>  <Ligand_Instance>  (978) 
nan

>  <PDB_ID>  (978) 
nan

>  <Standardized_SMILES>  (978) 
Cc1cccc(-c2[nH]c(CNc3ccccc3F)nc2-c2ccc3ncnn3c2)n1

>  <Name>  (978) 
VACTOSERTIB

>  <Pocket>  (978) 
nan

>  <ATP_Site>  (978) 
nan

>  <Peripheral>  (978) 
nan

>  <Num_H_Atoms_ProtBoundConf>  (978) 
nan

>  <Num_Resolved_Atoms>  (978) 
nan

>  <Num_Not_Resolved_Atoms>  (978) 
nan

$$$$
CHEMBL3220495
     RDKit          3D

  0  0  0  0  0  0  0  0  0  0999 V3000
M  V30 BEGIN CTAB
M  V30 COUNTS 55 58 0 0 0
M  V30 BEGIN ATOM
M  V30 1 C 1.132297 3.655995 3.427114 0
M  V30 2 O 0.094285 2.812909 2.973201 0
M  V30 3 C 0.425650 1.663228 2.269958 0
M  V30 4 C 1.738875 1.343707 2.015742 0
M  V30 5 C 2.100534 0.227255 1.330788 0
M  V30 6 N 3.458401 -0.098979 1.071406 0
M  V30 7 C 4.606217 0.663276 1.522402 0
M  V30 8 C 5.225261 1.284151 0.262630 0
M  V30 9 O 5.336514 0.319763 -0.731943 0
M  V30 10 C 5.252725 -0.971700 -0.225504 0
M  V30 11 C 3.847639 -1.265984 0.301323 0
M  V30 12 C 1.110378 -0.613545 0.875822 0
M  V30 13 C -0.197078 -0.268587 1.145007 0
M  V30 14 C -0.615390 0.843665 1.830122 0
M  V30 15 N -1.970838 1.171158 2.092147 0
M  V30 16 C -3.143963 0.478405 1.731144 0
M  V30 17 N -4.347365 0.958227 2.084502 0
M  V30 18 C -5.503638 0.374951 1.788685 0
M  V30 19 C -5.494961 -0.788162 1.080583 0
M  V30 20 Cl -6.969259 -1.624812 0.646893 0
M  V30 21 C -4.296534 -1.327805 0.691063 0
M  V30 22 N -4.282583 -2.538752 -0.037115 0
M  V30 23 C -3.267874 -3.335007 -0.606954 0
M  V30 24 C -3.083226 -4.637941 -0.172801 0
M  V30 25 C -2.112659 -5.466497 -0.690584 0
M  V30 26 C -1.287782 -4.983493 -1.682767 0
M  V30 27 C -1.404957 -3.703547 -2.169403 0
M  V30 28 C -2.399221 -2.942369 -1.598665 0
M  V30 29 C -2.522015 -1.596630 -2.136021 0
M  V30 30 N -1.693295 -1.046802 -3.150824 0
M  V30 31 O -3.154670 -0.533716 -2.075635 0
M  V30 32 N -3.201703 -0.661501 1.040563 0
M  V30 33 H 1.712802 3.034725 4.169444 0
M  V30 34 H 0.668004 4.538719 3.939783 0
M  V30 35 H 1.762934 3.967361 2.584836 0
M  V30 36 H 2.475672 2.047678 2.400902 0
M  V30 37 H 5.327268 -0.047358 1.984175 0
M  V30 38 H 4.399926 1.420416 2.270872 0
M  V30 39 H 6.173704 1.810176 0.488951 0
M  V30 40 H 4.493798 2.040998 -0.088278 0
M  V30 41 H 6.046552 -1.232989 0.491019 0
M  V30 42 H 5.391419 -1.647383 -1.101856 0
M  V30 43 H 3.184917 -1.475851 -0.560594 0
M  V30 44 H 3.940009 -2.108343 1.017062 0
M  V30 45 H 1.362878 -1.517887 0.324193 0
M  V30 46 H -0.919808 -0.971219 0.759643 0
M  V30 47 H -2.111342 2.070984 2.640511 0
M  V30 48 H -6.445033 0.805620 2.098885 0
M  V30 49 H -5.176459 -3.030755 -0.252806 0
M  V30 50 H -3.748970 -4.998560 0.614502 0
M  V30 51 H -2.059252 -6.451305 -0.282340 0
M  V30 52 H -0.553730 -5.679140 -2.042118 0
M  V30 53 H -0.755115 -3.334589 -2.945711 0
M  V30 54 H -0.793676 -0.509189 -3.100271 0
M  V30 55 H -1.811182 -1.063904 -4.206434 0
M  V30 END ATOM
M  V30 BEGIN BOND
M  V30 1 1 1 2
M  V30 2 1 2 3
M  V30 3 2 3 4
M  V30 4 1 4 5
M  V30 5 1 5 6
M  V30 6 1 6 7
M  V30 7 1 7 8
M  V30 8 1 8 9
M  V30 9 1 9 10
M  V30 10 1 10 11
M  V30 11 2 5 12
M  V30 12 1 12 13
M  V30 13 2 13 14
M  V30 14 1 14 15
M  V30 15 1 15 16
M  V30 16 2 16 17
M  V30 17 1 17 18
M  V30 18 2 18 19
M  V30 19 1 19 20
M  V30 20 1 19 21
M  V30 21 1 21 22
M  V30 22 1 22 23
M  V30 23 2 23 24
M  V30 24 1 24 25
M  V30 25 2 25 26
M  V30 26 1 26 27
M  V30 27 2 27 28
M  V30 28 1 28 29
M  V30 29 1 29 30
M  V30 30 2 29 31
M  V30 31 2 21 32
M  V30 32 1 14 3
M  V30 33 1 32 16
M  V30 34 1 11 6
M  V30 35 1 28 23
M  V30 36 1 1 33
M  V30 37 1 1 34
M  V30 38 1 1 35
M  V30 39 1 4 36
M  V30 40 1 7 37
M  V30 41 1 7 38
M  V30 42 1 8 39
M  V30 43 1 8 40
M  V30 44 1 10 41
M  V30 45 1 10 42
M  V30 46 1 11 43
M  V30 47 1 11 44
M  V30 48 1 12 45
M  V30 49 1 13 46
M  V30 50 1 15 47
M  V30 51 1 18 48
M  V30 52 1 22 49
M  V30 53 1 24 50
M  V30 54 1 25 51
M  V30 55 1 26 52
M  V30 56 1 27 53
M  V30 57 1 30 54
M  V30 58 1 30 55
M  V30 END BOND
M  V30 END CTAB
M  END
>  <Dataset>  (979) 
ChEMBL_Kinases

>  <Ligand_Instance>  (979) 
nan

>  <PDB_ID>  (979) 
nan

>  <Standardized_SMILES>  (979) 
COc1cc(N2CCOCC2)ccc1Nc1ncc(Cl)c(Nc2ccccc2C(N)=O)n1

>  <Name>  (979) 
nan

>  <Pocket>  (979) 
nan

>  <ATP_Site>  (979) 
nan

>  <Peripheral>  (979) 
nan

>  <Num_H_Atoms_ProtBoundConf>  (979) 
nan

>  <Num_Resolved_Atoms>  (979) 
nan

>  <Num_Not_Resolved_Atoms>  (979) 
nan

$$$$
CHEMBL4744858
     RDKit          3D

  0  0  0  0  0  0  0  0  0  0999 V3000
M  V30 BEGIN CTAB
M  V30 COUNTS 41 44 0 0 0
M  V30 BEGIN ATOM
M  V30 1 C 1.872493 -6.476374 0.768236 0
M  V30 2 O 2.061600 -5.126237 0.473882 0
M  V30 3 C 1.447446 -4.436266 -0.534542 0
M  V30 4 C 0.529818 -4.979507 -1.430594 0
M  V30 5 C -0.082965 -4.272918 -2.444054 0
M  V30 6 C 0.246433 -2.931942 -2.567034 0
M  V30 7 C 1.154491 -2.315187 -1.711218 0
M  V30 8 C 1.452804 -0.885456 -1.906073 0
M  V30 9 N 0.597257 0.006509 -1.176213 0
M  V30 10 N -0.541945 0.469747 -1.706410 0
M  V30 11 C -1.362001 1.311082 -1.035425 0
M  V30 12 C -1.041987 1.727408 0.245939 0
M  V30 13 C -1.854895 2.582674 0.954357 0
M  V30 14 C -1.504800 2.976962 2.228620 0
M  V30 15 C -0.328353 2.494832 2.768193 0
M  V30 16 C -0.007519 2.947272 4.122863 0
M  V30 17 C 1.237994 3.152767 4.695390 0
M  V30 18 N 1.075032 3.569873 5.963214 0
M  V30 19 N -0.227582 3.644196 6.238898 0
M  V30 20 C -0.909179 3.265566 5.120735 0
M  V30 21 C 0.541268 1.626858 2.107633 0
M  V30 22 C 0.116936 1.281631 0.838009 0
M  V30 23 C 0.883995 0.432493 0.081629 0
M  V30 24 O 1.953209 -0.005992 0.571179 0
M  V30 25 C 1.713364 -3.097849 -0.733425 0
M  V30 26 H 0.940662 -6.633954 1.380263 0
M  V30 27 H 2.718960 -6.943995 1.290087 0
M  V30 28 H 1.685105 -7.007880 -0.196392 0
M  V30 29 H 0.280079 -6.028480 -1.323943 0
M  V30 30 H -0.781297 -4.790652 -3.086326 0
M  V30 31 H -0.216316 -2.358742 -3.347454 0
M  V30 32 H 2.515926 -0.665274 -1.685095 0
M  V30 33 H 1.311116 -0.657174 -2.998993 0
M  V30 34 H -2.281362 1.678589 -1.475955 0
M  V30 35 H -2.769437 2.961723 0.543159 0
M  V30 36 H -2.137939 3.642666 2.779210 0
M  V30 37 H 2.126651 2.968655 4.103966 0
M  V30 38 H -0.739016 3.924976 7.107674 0
M  V30 39 H -1.996873 3.219360 5.023522 0
M  V30 40 H 1.446686 1.273167 2.558482 0
M  V30 41 H 2.426975 -2.641176 -0.050913 0
M  V30 END ATOM
M  V30 BEGIN BOND
M  V30 1 1 1 2
M  V30 2 1 2 3
M  V30 3 2 3 4
M  V30 4 1 4 5
M  V30 5 2 5 6
M  V30 6 1 6 7
M  V30 7 1 7 8
M  V30 8 1 8 9
M  V30 9 1 9 10
M  V30 10 2 10 11
M  V30 11 1 11 12
M  V30 12 2 12 13
M  V30 13 1 13 14
M  V30 14 2 14 15
M  V30 15 1 15 16
M  V30 16 1 16 17
M  V30 17 2 17 18
M  V30 18 1 18 19
M  V30 19 1 19 20
M  V30 20 1 15 21
M  V30 21 2 21 22
M  V30 22 1 22 23
M  V30 23 2 23 24
M  V30 24 2 7 25
M  V30 25 1 25 3
M  V30 26 1 23 9
M  V30 27 1 22 12
M  V30 28 2 20 16
M  V30 29 1 1 26
M  V30 30 1 1 27
M  V30 31 1 1 28
M  V30 32 1 4 29
M  V30 33 1 5 30
M  V30 34 1 6 31
M  V30 35 1 8 32
M  V30 36 1 8 33
M  V30 37 1 11 34
M  V30 38 1 13 35
M  V30 39 1 14 36
M  V30 40 1 17 37
M  V30 41 1 19 38
M  V30 42 1 20 39
M  V30 43 1 21 40
M  V30 44 1 25 41
M  V30 END BOND
M  V30 END CTAB
M  END
>  <Dataset>  (980) 
ChEMBL_Kinases

>  <Ligand_Instance>  (980) 
nan

>  <PDB_ID>  (980) 
nan

>  <Standardized_SMILES>  (980) 
COc1cccc(Cn2ncc3ccc(-c4cn[nH]c4)cc3c2=O)c1

>  <Name>  (980) 
nan

>  <Pocket>  (980) 
nan

>  <ATP_Site>  (980) 
nan

>  <Peripheral>  (980) 
nan

>  <Num_H_Atoms_ProtBoundConf>  (980) 
nan

>  <Num_Resolved_Atoms>  (980) 
nan

>  <Num_Not_Resolved_Atoms>  (980) 
nan

$$$$
CHEMBL3780091
     RDKit          3D

  0  0  0  0  0  0  0  0  0  0999 V3000
M  V30 BEGIN CTAB
M  V30 COUNTS 45 48 0 0 0
M  V30 BEGIN ATOM
M  V30 1 N -0.624851 -2.954293 0.181748 0
M  V30 2 C 0.297731 -3.783306 0.891721 0 CFG=1
M  V30 3 C 1.463609 -4.152403 0.002390 0
M  V30 4 C 2.147750 -2.886854 -0.429626 0
M  V30 5 C 2.399113 -1.954306 0.752685 0 CFG=1
M  V30 6 N 1.512106 -0.842697 0.726166 0
M  V30 7 C 1.542270 0.136599 -0.296611 0
M  V30 8 C 2.499893 0.012863 -1.268170 0
M  V30 9 C 2.656915 0.880598 -2.340545 0
M  V30 10 N 1.773857 1.919845 -2.395444 0
M  V30 11 C 0.832261 2.047315 -1.445539 0
M  V30 12 O 0.118658 3.057482 -1.664727 0
M  V30 13 C 0.666352 1.194862 -0.378785 0
M  V30 14 C -0.383409 1.408931 0.603430 0
M  V30 15 N -0.748525 0.747172 1.700565 0
M  V30 16 C -1.788090 1.279691 2.345810 0
M  V30 17 C -2.395310 0.832943 3.500563 0
M  V30 18 C -3.479613 1.581793 3.976100 0
M  V30 19 C -3.871765 2.717819 3.259591 0
M  V30 20 C -3.207369 3.093565 2.111691 0
M  V30 21 C -2.132175 2.387694 1.603443 0
M  V30 22 N -1.262615 2.414997 0.578648 0
M  V30 23 C 2.228539 -2.739837 2.022653 0
M  V30 24 C 0.810252 -3.203096 2.170732 0
M  V30 25 H -0.472539 -2.842767 -0.824780 0
M  V30 26 H -0.960747 -2.121649 0.660534 0
M  V30 27 H -0.248659 -4.747804 1.142014 0
M  V30 28 H 1.109526 -4.679127 -0.912005 0
M  V30 29 H 2.207666 -4.769506 0.551725 0
M  V30 30 H 1.465852 -2.351314 -1.120945 0
M  V30 31 H 3.087557 -3.097394 -0.996698 0
M  V30 32 H 3.457906 -1.567007 0.670146 0
M  V30 33 H 0.851692 -0.793327 1.499094 0
M  V30 34 H 3.244146 -0.774659 -1.297011 0
M  V30 35 H 3.421732 0.774195 -3.110211 0
M  V30 36 H 1.892285 2.578546 -3.209687 0
M  V30 37 H -2.049406 -0.053726 4.012561 0
M  V30 38 H -3.999703 1.288492 4.872356 0
M  V30 39 H -4.710005 3.311797 3.613138 0
M  V30 40 H -3.503794 3.985343 1.536599 0
M  V30 41 H -1.427208 3.219178 -0.057856 0
M  V30 42 H 2.959868 -3.578378 2.094319 0
M  V30 43 H 2.451478 -2.012165 2.858083 0
M  V30 44 H 0.204605 -2.346872 2.562390 0
M  V30 45 H 0.790997 -3.992237 2.967891 0
M  V30 END ATOM
M  V30 BEGIN BOND
M  V30 1 1 1 2
M  V30 2 1 2 3
M  V30 3 1 3 4
M  V30 4 1 4 5
M  V30 5 1 5 6
M  V30 6 1 6 7
M  V30 7 1 7 8
M  V30 8 2 8 9
M  V30 9 1 9 10
M  V30 10 1 10 11
M  V30 11 2 11 12
M  V30 12 1 11 13
M  V30 13 1 13 14
M  V30 14 2 14 15
M  V30 15 1 15 16
M  V30 16 2 16 17
M  V30 17 1 17 18
M  V30 18 2 18 19
M  V30 19 1 19 20
M  V30 20 2 20 21
M  V30 21 1 21 22
M  V30 22 1 5 23
M  V30 23 1 23 24
M  V30 24 1 24 2
M  V30 25 2 13 7
M  V30 26 1 22 14
M  V30 27 1 21 16
M  V30 28 1 1 25
M  V30 29 1 1 26
M  V30 30 1 2 27 CFG=1
M  V30 31 1 3 28
M  V30 32 1 3 29
M  V30 33 1 4 30
M  V30 34 1 4 31
M  V30 35 1 5 32 CFG=3
M  V30 36 1 6 33
M  V30 37 1 8 34
M  V30 38 1 9 35
M  V30 39 1 10 36
M  V30 40 1 17 37
M  V30 41 1 18 38
M  V30 42 1 19 39
M  V30 43 1 20 40
M  V30 44 1 22 41
M  V30 45 1 23 42
M  V30 46 1 23 43
M  V30 47 1 24 44
M  V30 48 1 24 45
M  V30 END BOND
M  V30 END CTAB
M  END
>  <Dataset>  (981) 
ChEMBL_Kinases

>  <Ligand_Instance>  (981) 
nan

>  <PDB_ID>  (981) 
nan

>  <Standardized_SMILES>  (981) 
N[C@H]1CC[C@@H](Nc2cc[nH]c(=O)c2-c2nc3ccccc3[nH]2)CC1

>  <Name>  (981) 
nan

>  <Pocket>  (981) 
nan

>  <ATP_Site>  (981) 
nan

>  <Peripheral>  (981) 
nan

>  <Num_H_Atoms_ProtBoundConf>  (981) 
nan

>  <Num_Resolved_Atoms>  (981) 
nan

>  <Num_Not_Resolved_Atoms>  (981) 
nan

$$$$
CHEMBL494662
     RDKit          3D

  0  0  0  0  0  0  0  0  0  0999 V3000
M  V30 BEGIN CTAB
M  V30 COUNTS 46 49 0 0 0
M  V30 BEGIN ATOM
M  V30 1 C 2.704710 -2.578366 1.173591 0
M  V30 2 C 1.719439 -2.037399 0.172914 0
M  V30 3 N 1.994284 -0.700726 -0.248345 0
M  V30 4 C 2.784801 -0.356197 -1.302755 0
M  V30 5 C 3.505954 -1.251490 -2.197167 0
M  V30 6 N 3.599102 -2.583634 -2.247297 0
M  V30 7 O 4.363986 -2.979083 -3.222401 0
M  V30 8 N 4.806681 -1.926917 -3.854647 0
M  V30 9 C 4.295369 -0.837126 -3.246621 0
M  V30 10 N 4.579311 0.476203 -3.689282 0
M  V30 11 N 2.835969 0.999804 -1.439606 0
M  V30 12 C 2.091598 1.571019 -0.491369 0
M  V30 13 C 1.733637 2.842902 -0.088665 0
M  V30 14 N 0.920663 3.019363 0.966122 0
M  V30 15 C 0.430888 1.953592 1.661661 0
M  V30 16 C 0.765858 0.651295 1.291892 0
M  V30 17 C 0.114822 -0.294620 2.188751 0
M  V30 18 O 0.546684 -1.132892 3.055303 0
M  V30 19 N -1.334459 -0.346406 2.142538 0
M  V30 20 C -2.108673 -1.241397 2.985270 0
M  V30 21 C -2.968835 -0.512383 3.993667 0
M  V30 22 C -3.984948 0.372354 3.336971 0
M  V30 23 N -4.040719 0.167430 1.932639 0
M  V30 24 C -4.092687 -1.191240 1.522072 0
M  V30 25 C -3.026586 -2.046750 2.105596 0
M  V30 26 C 1.599998 0.493275 0.208313 0
M  V30 27 H 3.372530 -3.346539 0.732408 0
M  V30 28 H 3.320205 -1.768071 1.602449 0
M  V30 29 H 2.183805 -3.114496 2.015559 0
M  V30 30 H 1.779502 -2.724772 -0.728121 0
M  V30 31 H 0.696522 -2.193041 0.555616 0
M  V30 32 H 5.270571 1.270036 -3.575681 0
M  V30 33 H 3.940347 0.921689 -4.381695 0
M  V30 34 H 2.140494 3.675900 -0.661313 0
M  V30 35 H -0.205869 2.270899 2.473554 0
M  V30 36 H -1.787449 0.298955 1.460117 0
M  V30 37 H -1.422954 -1.903843 3.579181 0
M  V30 38 H -3.545776 -1.322820 4.532583 0
M  V30 39 H -2.339703 0.036137 4.732475 0
M  V30 40 H -5.022903 0.186333 3.735951 0
M  V30 41 H -3.779119 1.450978 3.539044 0
M  V30 42 H -4.563434 0.835902 1.373814 0
M  V30 43 H -5.123757 -1.558514 1.741803 0
M  V30 44 H -3.961436 -1.208441 0.402233 0
M  V30 45 H -3.502621 -2.845923 2.720940 0
M  V30 46 H -2.397504 -2.537450 1.327839 0
M  V30 END ATOM
M  V30 BEGIN BOND
M  V30 1 1 1 2
M  V30 2 1 2 3
M  V30 3 1 3 4
M  V30 4 1 4 5
M  V30 5 2 5 6
M  V30 6 1 6 7
M  V30 7 1 7 8
M  V30 8 2 8 9
M  V30 9 1 9 10
M  V30 10 2 4 11
M  V30 11 1 11 12
M  V30 12 2 12 13
M  V30 13 1 13 14
M  V30 14 2 14 15
M  V30 15 1 15 16
M  V30 16 1 16 17
M  V30 17 2 17 18
M  V30 18 1 17 19
M  V30 19 1 19 20
M  V30 20 1 20 21
M  V30 21 1 21 22
M  V30 22 1 22 23
M  V30 23 1 23 24
M  V30 24 1 24 25
M  V30 25 2 16 26
M  V30 26 1 26 3
M  V30 27 1 9 5
M  V30 28 1 26 12
M  V30 29 1 25 20
M  V30 30 1 1 27
M  V30 31 1 1 28
M  V30 32 1 1 29
M  V30 33 1 2 30
M  V30 34 1 2 31
M  V30 35 1 10 32
M  V30 36 1 10 33
M  V30 37 1 13 34
M  V30 38 1 15 35
M  V30 39 1 19 36
M  V30 40 1 20 37
M  V30 41 1 21 38
M  V30 42 1 21 39
M  V30 43 1 22 40
M  V30 44 1 22 41
M  V30 45 1 23 42
M  V30 46 1 24 43
M  V30 47 1 24 44
M  V30 48 1 25 45
M  V30 49 1 25 46
M  V30 END BOND
M  V30 END CTAB
M  END
>  <Dataset>  (982) 
ChEMBL_Kinases

>  <Ligand_Instance>  (982) 
nan

>  <PDB_ID>  (982) 
nan

>  <Standardized_SMILES>  (982) 
CCn1c(-c2nonc2N)nc2cncc(C(=O)NC3CCNCC3)c21

>  <Name>  (982) 
nan

>  <Pocket>  (982) 
nan

>  <ATP_Site>  (982) 
nan

>  <Peripheral>  (982) 
nan

>  <Num_H_Atoms_ProtBoundConf>  (982) 
nan

>  <Num_Resolved_Atoms>  (982) 
nan

>  <Num_Not_Resolved_Atoms>  (982) 
nan

$$$$
CHEMBL4457150
     RDKit          3D

  0  0  0  0  0  0  0  0  0  0999 V3000
M  V30 BEGIN CTAB
M  V30 COUNTS 46 49 0 0 0
M  V30 BEGIN ATOM
M  V30 1 N -0.314249 -3.025855 2.995822 0
M  V30 2 C -1.236907 -2.678199 1.926918 0
M  V30 3 C -0.498784 -2.634908 0.579138 0
M  V30 4 C 0.533536 -1.611979 0.740921 0
M  V30 5 C 1.805796 -1.910574 1.180673 0
M  V30 6 C 2.743373 -0.908316 1.319696 0
M  V30 7 C 2.376237 0.408830 1.006629 0
M  V30 8 C 1.081228 0.735403 0.555925 0
M  V30 9 C 1.065795 2.157649 0.287903 0
M  V30 10 C 1.771014 2.419655 -0.898308 0
M  V30 11 C 1.884267 3.723622 -1.395372 0
M  V30 12 N 1.311699 4.737844 -0.728978 0
M  V30 13 C 0.632431 4.515789 0.408225 0
M  V30 14 N -0.029825 5.252332 1.338896 0
M  V30 15 N -0.501967 4.479548 2.307714 0
M  V30 16 C -0.185108 3.178695 2.083332 0
M  V30 17 C -0.598674 2.055167 2.954946 0
M  V30 18 F -1.505719 1.200373 2.384322 0
M  V30 19 F 0.514439 1.360988 3.427608 0
M  V30 20 F -1.206331 2.565061 4.079363 0
M  V30 21 C 0.510985 3.244305 0.908508 0
M  V30 22 C 0.218562 -0.332455 0.449731 0
M  V30 23 C 0.232181 -3.951892 0.433203 0
M  V30 24 C -0.607046 -5.038334 -0.158520 0
M  V30 25 O -1.396296 -4.631595 -1.217720 0
M  V30 26 C -1.111008 -3.339852 -1.645355 0
M  V30 27 C -1.502229 -2.428513 -0.482343 0
M  V30 28 H -0.535995 -3.988569 3.338900 0
M  V30 29 H -0.310416 -2.312897 3.770194 0
M  V30 30 H -1.678061 -1.684357 2.150809 0
M  V30 31 H -2.064654 -3.405584 1.910288 0
M  V30 32 H 2.080484 -2.945417 1.423023 0
M  V30 33 H 3.718676 -1.215797 1.668568 0
M  V30 34 H 3.241773 1.067671 1.175216 0
M  V30 35 H 2.287763 1.696759 -1.545235 0
M  V30 36 H 2.414359 3.969805 -2.300054 0
M  V30 37 H -0.137207 6.305350 1.270198 0
M  V30 38 H -0.721089 0.071894 0.093403 0
M  V30 39 H 0.543143 -4.282589 1.445628 0
M  V30 40 H 1.160543 -3.833432 -0.161393 0
M  V30 41 H 0.071800 -5.831453 -0.536564 0
M  V30 42 H -1.248658 -5.514627 0.609452 0
M  V30 43 H -0.012598 -3.280094 -1.793970 0
M  V30 44 H -1.687984 -3.132748 -2.544640 0
M  V30 45 H -2.490209 -2.852418 -0.128662 0
M  V30 46 H -1.730774 -1.420755 -0.800140 0
M  V30 END ATOM
M  V30 BEGIN BOND
M  V30 1 1 1 2
M  V30 2 1 2 3
M  V30 3 1 3 4
M  V30 4 2 4 5
M  V30 5 1 5 6
M  V30 6 2 6 7
M  V30 7 1 7 8
M  V30 8 1 8 9
M  V30 9 2 9 10
M  V30 10 1 10 11
M  V30 11 2 11 12
M  V30 12 1 12 13
M  V30 13 1 13 14
M  V30 14 1 14 15
M  V30 15 2 15 16
M  V30 16 1 16 17
M  V30 17 1 17 18
M  V30 18 1 17 19
M  V30 19 1 17 20
M  V30 20 1 16 21
M  V30 21 2 8 22
M  V30 22 1 3 23
M  V30 23 1 23 24
M  V30 24 1 24 25
M  V30 25 1 25 26
M  V30 26 1 26 27
M  V30 27 1 27 3
M  V30 28 1 22 4
M  V30 29 1 21 9
M  V30 30 2 21 13
M  V30 31 1 1 28
M  V30 32 1 1 29
M  V30 33 1 2 30
M  V30 34 1 2 31
M  V30 35 1 5 32
M  V30 36 1 6 33
M  V30 37 1 7 34
M  V30 38 1 10 35
M  V30 39 1 11 36
M  V30 40 1 14 37
M  V30 41 1 22 38
M  V30 42 1 23 39
M  V30 43 1 23 40
M  V30 44 1 24 41
M  V30 45 1 24 42
M  V30 46 1 26 43
M  V30 47 1 26 44
M  V30 48 1 27 45
M  V30 49 1 27 46
M  V30 END BOND
M  V30 END CTAB
M  END
>  <Dataset>  (983) 
ChEMBL_Kinases

>  <Ligand_Instance>  (983) 
nan

>  <PDB_ID>  (983) 
nan

>  <Standardized_SMILES>  (983) 
NCC1(c2cccc(-c3ccnc4[nH]nc(C(F)(F)F)c34)c2)CCOCC1

>  <Name>  (983) 
nan

>  <Pocket>  (983) 
nan

>  <ATP_Site>  (983) 
nan

>  <Peripheral>  (983) 
nan

>  <Num_H_Atoms_ProtBoundConf>  (983) 
nan

>  <Num_Resolved_Atoms>  (983) 
nan

>  <Num_Not_Resolved_Atoms>  (983) 
nan

$$$$
CHEMBL1642655
     RDKit          3D

  0  0  0  0  0  0  0  0  0  0999 V3000
M  V30 BEGIN CTAB
M  V30 COUNTS 48 51 0 0 0
M  V30 BEGIN ATOM
M  V30 1 C 4.277683 -5.508398 -0.501921 0
M  V30 2 C 4.530203 -4.193523 -1.224707 0
M  V30 3 C 4.399487 -4.458139 -2.709594 0
M  V30 4 C 5.954396 -3.755621 -0.984360 0
M  V30 5 C 3.598222 -3.151115 -0.765257 0
M  V30 6 C 3.828043 -2.294285 0.279330 0
M  V30 7 C 2.940803 -1.325211 0.692486 0
M  V30 8 C 1.736273 -1.172998 0.044025 0
M  V30 9 C 0.681085 -0.213800 0.334391 0
M  V30 10 O -0.422843 -0.105925 -0.292628 0
M  V30 11 N 0.760067 0.755088 1.394216 0
M  V30 12 C -0.425581 1.545601 1.421959 0
M  V30 13 C -1.442622 1.031612 2.235883 0
M  V30 14 N -2.517363 1.872232 2.178821 0
M  V30 15 C -3.753188 1.925354 2.718705 0
M  V30 16 C -4.607460 2.970151 2.423749 0
M  V30 17 N -5.886981 2.927748 3.047301 0
M  V30 18 C -6.701587 1.857492 3.214516 0
M  V30 19 C -7.865723 2.208993 3.867750 0
M  V30 20 N -7.754565 3.549021 4.107896 0
M  V30 21 C -6.563923 3.946188 3.606440 0
M  V30 22 C -4.260867 4.004060 1.577187 0
M  V30 23 C -2.988507 3.942007 1.026222 0
M  V30 24 C -2.173708 2.877731 1.352462 0
M  V30 25 N -0.918610 2.683978 0.896858 0
M  V30 26 C 1.451128 -2.020944 -1.028379 0
M  V30 27 C 2.389500 -2.987062 -1.404218 0
M  V30 28 H 5.029586 -5.655603 0.325020 0
M  V30 29 H 3.251154 -5.578256 -0.095962 0
M  V30 30 H 4.439005 -6.350693 -1.202001 0
M  V30 31 H 3.490337 -5.060119 -2.956239 0
M  V30 32 H 4.435613 -3.567971 -3.336457 0
M  V30 33 H 5.272593 -5.102564 -3.010213 0
M  V30 34 H 6.176467 -3.666436 0.090919 0
M  V30 35 H 6.624171 -4.553257 -1.393810 0
M  V30 36 H 6.139569 -2.829464 -1.564271 0
M  V30 37 H 4.764615 -2.378761 0.818744 0
M  V30 38 H 3.104951 -0.648932 1.505423 0
M  V30 39 H 1.627567 0.773103 1.993789 0
M  V30 40 H -1.545841 0.146399 2.870635 0
M  V30 41 H -4.033169 1.104524 3.393036 0
M  V30 42 H -6.409690 0.878373 2.854478 0
M  V30 43 H -8.678650 1.519742 4.118051 0
M  V30 44 H -6.241158 4.992469 3.677226 0
M  V30 45 H -4.959290 4.788608 1.382192 0
M  V30 46 H -2.690623 4.734698 0.362205 0
M  V30 47 H 0.530450 -1.984731 -1.607319 0
M  V30 48 H 2.153004 -3.638574 -2.239853 0
M  V30 END ATOM
M  V30 BEGIN BOND
M  V30 1 1 1 2
M  V30 2 1 2 3
M  V30 3 1 2 4
M  V30 4 1 2 5
M  V30 5 2 5 6
M  V30 6 1 6 7
M  V30 7 2 7 8
M  V30 8 1 8 9
M  V30 9 2 9 10
M  V30 10 1 9 11
M  V30 11 1 11 12
M  V30 12 2 12 13
M  V30 13 1 13 14
M  V30 14 1 14 15
M  V30 15 2 15 16
M  V30 16 1 16 17
M  V30 17 1 17 18
M  V30 18 2 18 19
M  V30 19 1 19 20
M  V30 20 2 20 21
M  V30 21 1 16 22
M  V30 22 2 22 23
M  V30 23 1 23 24
M  V30 24 2 24 25
M  V30 25 1 8 26
M  V30 26 2 26 27
M  V30 27 1 27 5
M  V30 28 1 25 12
M  V30 29 1 24 14
M  V30 30 1 21 17
M  V30 31 1 1 28
M  V30 32 1 1 29
M  V30 33 1 1 30
M  V30 34 1 3 31
M  V30 35 1 3 32
M  V30 36 1 3 33
M  V30 37 1 4 34
M  V30 38 1 4 35
M  V30 39 1 4 36
M  V30 40 1 6 37
M  V30 41 1 7 38
M  V30 42 1 11 39
M  V30 43 1 13 40
M  V30 44 1 15 41
M  V30 45 1 18 42
M  V30 46 1 19 43
M  V30 47 1 21 44
M  V30 48 1 22 45
M  V30 49 1 23 46
M  V30 50 1 26 47
M  V30 51 1 27 48
M  V30 END BOND
M  V30 END CTAB
M  END
>  <Dataset>  (984) 
ChEMBL_Kinases

>  <Ligand_Instance>  (984) 
nan

>  <PDB_ID>  (984) 
nan

>  <Standardized_SMILES>  (984) 
CC(C)(C)c1ccc(C(=O)Nc2cn3cc(-n4ccnc4)ccc3n2)cc1

>  <Name>  (984) 
nan

>  <Pocket>  (984) 
nan

>  <ATP_Site>  (984) 
nan

>  <Peripheral>  (984) 
nan

>  <Num_H_Atoms_ProtBoundConf>  (984) 
nan

>  <Num_Resolved_Atoms>  (984) 
nan

>  <Num_Not_Resolved_Atoms>  (984) 
nan

$$$$
CHEMBL3823499
     RDKit          3D

  0  0  0  0  0  0  0  0  0  0999 V3000
M  V30 BEGIN CTAB
M  V30 COUNTS 47 50 0 0 0
M  V30 BEGIN ATOM
M  V30 1 C -0.362260 -1.902582 3.062612 0
M  V30 2 C 1.015151 -1.931372 3.687780 0
M  V30 3 C 0.952930 -1.145139 4.977278 0
M  V30 4 C 1.300349 -3.370363 4.065157 0
M  V30 5 S 2.275803 -1.403863 2.607153 0
M  V30 6 O 3.591072 -1.545350 3.290373 0
M  V30 7 O 2.279810 -2.364739 1.430195 0
M  V30 8 C 2.073585 0.232954 2.031493 0
M  V30 9 C 2.613104 1.325201 2.710867 0
M  V30 10 C 2.436645 2.623152 2.228742 0
M  V30 11 C 1.726438 2.867639 1.070361 0
M  V30 12 N 1.550021 4.115183 0.591075 0
M  V30 13 C 0.849165 4.321898 -0.551711 0
M  V30 14 C 0.329762 3.195794 -1.193172 0
M  V30 15 C 0.490400 1.895532 -0.730117 0
M  V30 16 N -0.114850 0.888283 -1.528266 0
M  V30 17 C -1.133510 -0.029414 -1.155352 0
M  V30 18 N -1.793753 -0.187635 -0.006710 0
M  V30 19 N -2.676938 -1.154618 -0.039305 0
M  V30 20 C -2.606630 -1.668856 -1.264948 0
M  V30 21 C -3.348643 -2.715223 -1.778315 0
M  V30 22 C -3.089962 -3.075198 -3.104858 0
M  V30 23 C -2.144323 -2.423510 -3.866861 0
M  V30 24 F -1.930776 -2.810179 -5.148074 0
M  V30 25 C -1.419657 -1.370773 -3.301461 0
M  V30 26 C -1.650716 -0.984121 -1.981396 0
M  V30 27 C 1.213957 1.754406 0.437260 0
M  V30 28 C 1.359485 0.454574 0.870559 0
M  V30 29 H -0.925743 -0.986026 3.375233 0
M  V30 30 H -0.962244 -2.744451 3.473523 0
M  V30 31 H -0.331903 -2.053450 1.975803 0
M  V30 32 H 0.288876 -0.252901 4.883141 0
M  V30 33 H 0.486548 -1.799022 5.743117 0
M  V30 34 H 1.964889 -0.902360 5.355144 0
M  V30 35 H 2.077336 -3.811943 3.409020 0
M  V30 36 H 0.388976 -4.015940 3.967865 0
M  V30 37 H 1.716247 -3.437015 5.104764 0
M  V30 38 H 3.175124 1.135741 3.626917 0
M  V30 39 H 2.873811 3.441024 2.789676 0
M  V30 40 H 0.696575 5.306846 -0.951428 0
M  V30 41 H -0.220901 3.409736 -2.099402 0
M  V30 42 H 0.292402 0.888002 -2.486750 0
M  V30 43 H -3.254892 -1.364701 0.817590 0
M  V30 44 H -4.091636 -3.235584 -1.196819 0
M  V30 45 H -3.658080 -3.894355 -3.535304 0
M  V30 46 H -0.664181 -0.842840 -3.895127 0
M  V30 47 H 0.953222 -0.376713 0.354278 0
M  V30 END ATOM
M  V30 BEGIN BOND
M  V30 1 1 1 2
M  V30 2 1 2 3
M  V30 3 1 2 4
M  V30 4 1 2 5
M  V30 5 2 5 6
M  V30 6 2 5 7
M  V30 7 1 5 8
M  V30 8 2 8 9
M  V30 9 1 9 10
M  V30 10 2 10 11
M  V30 11 1 11 12
M  V30 12 2 12 13
M  V30 13 1 13 14
M  V30 14 2 14 15
M  V30 15 1 15 16
M  V30 16 1 16 17
M  V30 17 2 17 18
M  V30 18 1 18 19
M  V30 19 1 19 20
M  V30 20 2 20 21
M  V30 21 1 21 22
M  V30 22 2 22 23
M  V30 23 1 23 24
M  V30 24 1 23 25
M  V30 25 2 25 26
M  V30 26 1 15 27
M  V30 27 2 27 28
M  V30 28 1 28 8
M  V30 29 1 27 11
M  V30 30 1 26 17
M  V30 31 1 26 20
M  V30 32 1 1 29
M  V30 33 1 1 30
M  V30 34 1 1 31
M  V30 35 1 3 32
M  V30 36 1 3 33
M  V30 37 1 3 34
M  V30 38 1 4 35
M  V30 39 1 4 36
M  V30 40 1 4 37
M  V30 41 1 9 38
M  V30 42 1 10 39
M  V30 43 1 13 40
M  V30 44 1 14 41
M  V30 45 1 16 42
M  V30 46 1 19 43
M  V30 47 1 21 44
M  V30 48 1 22 45
M  V30 49 1 25 46
M  V30 50 1 28 47
M  V30 END BOND
M  V30 END CTAB
M  END
>  <Dataset>  (985) 
ChEMBL_Kinases

>  <Ligand_Instance>  (985) 
nan

>  <PDB_ID>  (985) 
nan

>  <Standardized_SMILES>  (985) 
CC(C)(C)S(=O)(=O)c1ccc2nccc(Nc3n[nH]c4ccc(F)cc34)c2c1

>  <Name>  (985) 
nan

>  <Pocket>  (985) 
nan

>  <ATP_Site>  (985) 
nan

>  <Peripheral>  (985) 
nan

>  <Num_H_Atoms_ProtBoundConf>  (985) 
nan

>  <Num_Resolved_Atoms>  (985) 
nan

>  <Num_Not_Resolved_Atoms>  (985) 
nan

$$$$
CHEMBL1802728
     RDKit          3D

  0  0  0  0  0  0  0  0  0  0999 V3000
M  V30 BEGIN CTAB
M  V30 COUNTS 61 64 0 0 0
M  V30 BEGIN ATOM
M  V30 1 C 5.510661 -2.639885 0.534402 0
M  V30 2 C 5.851761 -1.206202 0.705227 0
M  V30 3 N 4.603662 -0.407103 0.783871 0
M  V30 4 C 4.231289 -0.562975 2.158416 0
M  V30 5 C 4.964210 0.277605 3.150864 0
M  V30 6 C 4.047849 0.317244 -0.458275 0
M  V30 7 O 5.023763 -0.342314 -0.768898 0
M  V30 8 C 2.888057 1.122555 -0.195309 0
M  V30 9 C 2.886067 1.869304 0.945610 0
M  V30 10 C 1.765398 2.567790 1.518203 0
M  V30 11 C 0.579369 2.290989 0.569980 0
M  V30 12 N -0.388215 2.875348 1.531555 0
M  V30 13 C -1.087617 1.594411 1.679768 0
M  V30 14 N -2.243331 1.247954 0.999456 0
M  V30 15 C -2.668487 -0.013552 1.103820 0
M  V30 16 O -3.602715 -0.434875 0.565995 0
M  V30 17 C -4.769807 -0.895478 -0.117391 0
M  V30 18 C -4.463539 -2.395576 -0.307742 0
M  V30 19 C -5.516452 -3.175829 -0.992199 0
M  V30 20 C -5.286163 -3.350500 -2.487001 0
M  V30 21 C -4.880955 -2.005796 -3.109101 0
M  V30 22 C -3.575727 -1.593416 -2.463539 0
M  V30 23 C -3.222894 -2.389793 -1.263012 0
M  V30 24 C -1.890951 -0.923903 1.916962 0
M  V30 25 N -2.094150 -2.189020 2.118747 0
M  V30 26 C -1.312133 -2.863742 2.846345 0
M  V30 27 N -0.434010 -1.837394 3.159220 0
M  V30 28 C -0.674509 -0.584408 2.653853 0
M  V30 29 N -0.382606 0.731801 2.448219 0
M  V30 30 C 0.585012 1.564019 -0.547423 0
M  V30 31 C 1.754593 1.011079 -0.883989 0
M  V30 32 H 4.484791 -2.670200 0.109746 0
M  V30 33 H 6.267197 -3.270819 0.046659 0
M  V30 34 H 5.365585 -3.051057 1.607678 0
M  V30 35 H 6.522252 -0.990888 1.553219 0
M  V30 36 H 6.449281 -0.755197 -0.171571 0
M  V30 37 H 4.187049 -1.614081 2.454602 0
M  V30 38 H 3.126554 -0.180763 2.203465 0
M  V30 39 H 4.537684 0.046410 4.224710 0
M  V30 40 H 4.839164 1.340133 3.051496 0
M  V30 41 H 6.054862 0.002902 3.144246 0
M  V30 42 H 3.938282 1.961005 1.295349 0
M  V30 43 H 2.028500 3.100968 2.410227 0
M  V30 44 H -0.622334 3.717983 1.988047 0
M  V30 45 H -4.917992 -0.423021 -1.022809 0
M  V30 46 H -5.624703 -0.824931 0.601110 0
M  V30 47 H -4.160034 -2.816804 0.627427 0
M  V30 48 H -6.543714 -2.892461 -0.754399 0
M  V30 49 H -5.464890 -4.275917 -0.585196 0
M  V30 50 H -6.191609 -3.741773 -2.897936 0
M  V30 51 H -4.427279 -4.057326 -2.685561 0
M  V30 52 H -5.707766 -1.306193 -3.001694 0
M  V30 53 H -4.703341 -2.275447 -4.184402 0
M  V30 54 H -2.714423 -1.652419 -3.230619 0
M  V30 55 H -3.668347 -0.501309 -2.268770 0
M  V30 56 H -2.960684 -3.409969 -1.467004 0
M  V30 57 H -2.421271 -1.863950 -0.686608 0
M  V30 58 H -0.656862 -3.522488 3.494118 0
M  V30 59 H 0.472594 -1.592452 3.737752 0
M  V30 60 H -0.424111 1.612173 -0.964826 0
M  V30 61 H 1.710321 0.588934 -1.989661 0
M  V30 END ATOM
M  V30 BEGIN BOND
M  V30 1 1 1 2
M  V30 2 1 2 3
M  V30 3 1 3 4
M  V30 4 1 4 5
M  V30 5 1 3 6
M  V30 6 2 6 7
M  V30 7 1 6 8
M  V30 8 2 8 9
M  V30 9 1 9 10
M  V30 10 2 10 11
M  V30 11 1 11 12
M  V30 12 1 12 13
M  V30 13 2 13 14
M  V30 14 1 14 15
M  V30 15 1 15 16
M  V30 16 1 16 17
M  V30 17 1 17 18
M  V30 18 1 18 19
M  V30 19 1 19 20
M  V30 20 1 20 21
M  V30 21 1 21 22
M  V30 22 1 22 23
M  V30 23 2 15 24
M  V30 24 1 24 25
M  V30 25 2 25 26
M  V30 26 1 26 27
M  V30 27 1 27 28
M  V30 28 2 28 29
M  V30 29 1 11 30
M  V30 30 2 30 31
M  V30 31 1 31 8
M  V30 32 1 29 13
M  V30 33 1 23 18
M  V30 34 1 28 24
M  V30 35 1 1 32
M  V30 36 1 1 33
M  V30 37 1 1 34
M  V30 38 1 2 35
M  V30 39 1 2 36
M  V30 40 1 4 37
M  V30 41 1 4 38
M  V30 42 1 5 39
M  V30 43 1 5 40
M  V30 44 1 5 41
M  V30 45 1 9 42
M  V30 46 1 10 43
M  V30 47 1 12 44
M  V30 48 1 17 45
M  V30 49 1 17 46
M  V30 50 1 18 47
M  V30 51 1 19 48
M  V30 52 1 19 49
M  V30 53 1 20 50
M  V30 54 1 20 51
M  V30 55 1 21 52
M  V30 56 1 21 53
M  V30 57 1 22 54
M  V30 58 1 22 55
M  V30 59 1 23 56
M  V30 60 1 23 57
M  V30 61 1 26 58
M  V30 62 1 27 59
M  V30 63 1 30 60
M  V30 64 1 31 61
M  V30 END BOND
M  V30 END CTAB
M  END
>  <Dataset>  (986) 
ChEMBL_Kinases

>  <Ligand_Instance>  (986) 
nan

>  <PDB_ID>  (986) 
nan

>  <Standardized_SMILES>  (986) 
CCN(CC)C(=O)c1ccc(Nc2nc(OCC3CCCCC3)c3nc[nH]c3n2)cc1

>  <Name>  (986) 
nan

>  <Pocket>  (986) 
nan

>  <ATP_Site>  (986) 
nan

>  <Peripheral>  (986) 
nan

>  <Num_H_Atoms_ProtBoundConf>  (986) 
nan

>  <Num_Resolved_Atoms>  (986) 
nan

>  <Num_Not_Resolved_Atoms>  (986) 
nan

$$$$
CHEMBL367625
     RDKit          3D

  0  0  0  0  0  0  0  0  0  0999 V3000
M  V30 BEGIN CTAB
M  V30 COUNTS 51 54 0 0 0
M  V30 BEGIN ATOM
M  V30 1 C 0.865954 -4.601797 4.578254 0
M  V30 2 C 1.781735 -4.658381 3.381919 0
M  V30 3 N 2.236520 -3.319963 3.008062 0
M  V30 4 C 3.324456 -2.660167 3.434274 0
M  V30 5 N 3.377311 -1.460934 2.848657 0
M  V30 6 C 2.306083 -1.333123 2.025088 0
M  V30 7 C 1.897474 -0.286660 1.192456 0
M  V30 8 N 2.686315 0.883539 1.147029 0
M  V30 9 C 2.477493 2.040428 0.360910 0
M  V30 10 C 1.518785 2.194002 -0.615353 0
M  V30 11 C 1.323746 3.329862 -1.367689 0
M  V30 12 C 2.133601 4.406408 -1.147941 0
M  V30 13 C 3.108557 4.321005 -0.190904 0
M  V30 14 Cl 4.156467 5.690108 0.106182 0
M  V30 15 C 3.258896 3.164295 0.530065 0
M  V30 16 N 0.773466 -0.503818 0.510823 0
M  V30 17 C 0.093060 -1.651491 0.626255 0
M  V30 18 N -1.098101 -1.814315 -0.126207 0
M  V30 19 C -1.589934 -0.769164 -0.995863 0 CFG=2
M  V30 20 C -1.932505 0.509310 -0.252627 0
M  V30 21 C -3.262332 0.381883 0.453386 0
M  V30 22 C -3.719329 -1.049178 0.617685 0
M  V30 23 C -3.776219 -1.792354 -0.685547 0
M  V30 24 C -2.857783 -1.199087 -1.698727 0 CFG=2
M  V30 25 N -2.591776 -2.075293 -2.816098 0
M  V30 26 N 0.477561 -2.671725 1.428041 0
M  V30 27 C 1.605271 -2.509982 2.141111 0
M  V30 28 H 1.419098 -4.866406 5.511895 0
M  V30 29 H 0.015586 -5.328832 4.459746 0
M  V30 30 H 0.408149 -3.584436 4.663121 0
M  V30 31 H 1.292353 -5.080409 2.476881 0
M  V30 32 H 2.683912 -5.284413 3.619197 0
M  V30 33 H 4.012792 -3.094282 4.146331 0
M  V30 34 H 3.543790 0.922399 1.767408 0
M  V30 35 H 0.855422 1.389263 -0.838398 0
M  V30 36 H 0.562399 3.404844 -2.119214 0
M  V30 37 H 2.044052 5.326385 -1.693192 0
M  V30 38 H 4.057282 3.158064 1.282094 0
M  V30 39 H -1.663690 -2.713039 -0.070946 0
M  V30 40 H -0.816843 -0.566683 -1.768119 0
M  V30 41 H -2.101287 1.269510 -1.070375 0
M  V30 42 H -1.139114 0.893518 0.383309 0
M  V30 43 H -3.103715 0.754958 1.506152 0
M  V30 44 H -4.054915 1.031299 0.029230 0
M  V30 45 H -4.761812 -0.980927 1.009829 0
M  V30 46 H -3.153554 -1.564497 1.418859 0
M  V30 47 H -4.816509 -1.713973 -1.120034 0
M  V30 48 H -3.637870 -2.885100 -0.538373 0
M  V30 49 H -3.371918 -0.292702 -2.109964 0
M  V30 50 H -3.036108 -1.750080 -3.704656 0
M  V30 51 H -1.564569 -2.134577 -3.009365 0
M  V30 END ATOM
M  V30 BEGIN BOND
M  V30 1 1 1 2
M  V30 2 1 2 3
M  V30 3 1 3 4
M  V30 4 2 4 5
M  V30 5 1 5 6
M  V30 6 2 6 7
M  V30 7 1 7 8
M  V30 8 1 8 9
M  V30 9 2 9 10
M  V30 10 1 10 11
M  V30 11 2 11 12
M  V30 12 1 12 13
M  V30 13 1 13 14
M  V30 14 2 13 15
M  V30 15 1 7 16
M  V30 16 2 16 17
M  V30 17 1 17 18
M  V30 18 1 18 19
M  V30 19 1 19 20
M  V30 20 1 20 21
M  V30 21 1 21 22
M  V30 22 1 22 23
M  V30 23 1 23 24
M  V30 24 1 24 25
M  V30 25 1 17 26
M  V30 26 2 26 27
M  V30 27 1 27 3
M  V30 28 1 27 6
M  V30 29 1 15 9
M  V30 30 1 24 19
M  V30 31 1 1 28
M  V30 32 1 1 29
M  V30 33 1 1 30
M  V30 34 1 2 31
M  V30 35 1 2 32
M  V30 36 1 4 33
M  V30 37 1 8 34
M  V30 38 1 10 35
M  V30 39 1 11 36
M  V30 40 1 12 37
M  V30 41 1 15 38
M  V30 42 1 18 39
M  V30 43 1 19 40 CFG=3
M  V30 44 1 20 41
M  V30 45 1 20 42
M  V30 46 1 21 43
M  V30 47 1 21 44
M  V30 48 1 22 45
M  V30 49 1 22 46
M  V30 50 1 23 47
M  V30 51 1 23 48
M  V30 52 1 24 49 CFG=3
M  V30 53 1 25 50
M  V30 54 1 25 51
M  V30 END BOND
M  V30 END CTAB
M  END
>  <Dataset>  (987) 
ChEMBL_Kinases

>  <Ligand_Instance>  (987) 
nan

>  <PDB_ID>  (987) 
nan

>  <Standardized_SMILES>  (987) 
CCn1cnc2c(Nc3cccc(Cl)c3)nc(N[C@@H]3CCCC[C@@H]3N)nc21

>  <Name>  (987) 
nan

>  <Pocket>  (987) 
nan

>  <ATP_Site>  (987) 
nan

>  <Peripheral>  (987) 
nan

>  <Num_H_Atoms_ProtBoundConf>  (987) 
nan

>  <Num_Resolved_Atoms>  (987) 
nan

>  <Num_Not_Resolved_Atoms>  (987) 
nan

$$$$
CHEMBL4454902
     RDKit          3D

  0  0  0  0  0  0  0  0  0  0999 V3000
M  V30 BEGIN CTAB
M  V30 COUNTS 73 78 0 0 0
M  V30 BEGIN ATOM
M  V30 1 C 2.463307 -3.485148 3.480785 0
M  V30 2 C 3.206709 -2.236548 3.046301 0 CFG=2
M  V30 3 C 2.937991 -1.160156 4.006149 0
M  V30 4 C 3.771232 -1.040471 5.134001 0
M  V30 5 C 3.543165 -0.046729 6.059083 0
M  V30 6 N 2.556385 0.836038 5.955463 0
M  V30 7 C 1.677902 0.816083 4.894534 0
M  V30 8 N 0.578642 1.701402 4.706288 0
M  V30 9 C -0.192653 1.526513 3.519890 0
M  V30 10 N -0.154578 2.337409 2.432043 0
M  V30 11 C -0.997337 1.848608 1.492973 0
M  V30 12 C -1.292638 2.319468 0.234806 0
M  V30 13 C -2.200220 1.584150 -0.489566 0
M  V30 14 C -2.789222 0.441574 -0.002756 0
M  V30 15 C -3.753269 -0.363393 -0.735727 0
M  V30 16 C -4.174817 -0.035405 -2.000231 0
M  V30 17 C -5.098065 -0.751347 -2.765720 0
M  V30 18 O -5.462884 -0.351521 -4.019273 0
M  V30 19 C -6.394944 -1.069486 -4.800119 0
M  V30 20 C -5.858615 -2.453291 -5.037167 0
M  V30 21 C -6.622874 -3.459254 -5.833878 0
M  V30 22 C -6.550382 -3.572939 -4.322130 0
M  V30 23 N -5.590670 -1.861954 -2.157604 0
M  V30 24 C -5.180853 -2.198106 -0.904573 0
M  V30 25 N -4.290054 -1.475797 -0.208644 0
M  V30 26 C -2.439428 0.024969 1.286401 0
M  V30 27 C -1.537273 0.712014 2.071363 0
M  V30 28 N -1.046430 0.516874 3.307340 0
M  V30 29 C 1.965401 -0.201508 4.008955 0
M  V30 30 N 3.120102 -1.908415 1.691719 0
M  V30 31 C 1.891134 -1.828294 1.013365 0
M  V30 32 C 1.990261 -0.629427 0.053858 0
M  V30 33 N 3.307255 -0.778785 -0.591324 0
M  V30 34 C 4.024445 0.278268 -1.169976 0
M  V30 35 O 5.140198 0.249313 -1.743028 0
M  V30 36 C 3.536308 1.664083 -1.186937 0
M  V30 37 C 4.536157 2.594910 -1.873515 0
M  V30 38 F 5.745584 2.540721 -1.167417 0
M  V30 39 F 4.072548 3.887792 -1.735132 0
M  V30 40 F 4.730783 2.250175 -3.177990 0
M  V30 41 C 3.885122 -2.135349 -0.606091 0
M  V30 42 C 4.065206 -2.603362 0.838783 0
M  V30 43 H 3.041572 -4.048219 4.236489 0
M  V30 44 H 1.523792 -3.156204 4.013883 0
M  V30 45 H 2.224646 -4.168764 2.655643 0
M  V30 46 H 4.304305 -2.523114 3.215746 0
M  V30 47 H 4.608666 -1.709964 5.317986 0
M  V30 48 H 4.153723 0.110389 6.962424 0
M  V30 49 H 0.472348 2.379281 5.468788 0
M  V30 50 H -0.807675 3.221572 -0.111102 0
M  V30 51 H -2.445003 1.937545 -1.472575 0
M  V30 52 H -3.793969 0.852340 -2.509691 0
M  V30 53 H -6.615591 -0.531445 -5.749361 0
M  V30 54 H -7.377938 -1.157591 -4.247083 0
M  V30 55 H -4.747526 -2.508422 -5.040034 0
M  V30 56 H -7.610848 -3.202382 -6.257462 0
M  V30 57 H -5.988555 -4.142994 -6.448489 0
M  V30 58 H -5.907292 -4.357348 -3.857962 0
M  V30 59 H -7.512468 -3.396238 -3.784899 0
M  V30 60 H -5.645819 -3.104393 -0.534266 0
M  V30 61 H -2.885745 -0.862453 1.688031 0
M  V30 62 H -1.299187 -0.272995 3.950085 0
M  V30 63 H 1.293153 -0.234685 3.161819 0
M  V30 64 H 1.815904 -2.721802 0.304223 0
M  V30 65 H 0.963062 -1.867245 1.570774 0
M  V30 66 H 1.170345 -0.608674 -0.668486 0
M  V30 67 H 2.092728 0.279506 0.676874 0
M  V30 68 H 2.617321 1.689700 -1.831008 0
M  V30 69 H 3.285178 2.082723 -0.210543 0
M  V30 70 H 3.282707 -2.836983 -1.209207 0
M  V30 71 H 4.890972 -2.082884 -1.053231 0
M  V30 72 H 5.081016 -2.351278 1.164295 0
M  V30 73 H 3.938278 -3.696283 0.856167 0
M  V30 END ATOM
M  V30 BEGIN BOND
M  V30 1 1 1 2
M  V30 2 1 2 3
M  V30 3 2 3 4
M  V30 4 1 4 5
M  V30 5 2 5 6
M  V30 6 1 6 7
M  V30 7 1 7 8
M  V30 8 1 8 9
M  V30 9 2 9 10
M  V30 10 1 10 11
M  V30 11 2 11 12
M  V30 12 1 12 13
M  V30 13 2 13 14
M  V30 14 1 14 15
M  V30 15 2 15 16
M  V30 16 1 16 17
M  V30 17 1 17 18
M  V30 18 1 18 19
M  V30 19 1 19 20
M  V30 20 1 20 21
M  V30 21 1 21 22
M  V30 22 2 17 23
M  V30 23 1 23 24
M  V30 24 2 24 25
M  V30 25 1 14 26
M  V30 26 2 26 27
M  V30 27 1 27 28
M  V30 28 2 7 29
M  V30 29 1 2 30
M  V30 30 1 30 31
M  V30 31 1 31 32
M  V30 32 1 32 33
M  V30 33 1 33 34
M  V30 34 2 34 35
M  V30 35 1 34 36
M  V30 36 1 36 37
M  V30 37 1 37 38
M  V30 38 1 37 39
M  V30 39 1 37 40
M  V30 40 1 33 41
M  V30 41 1 41 42
M  V30 42 1 29 3
M  V30 43 1 42 30
M  V30 44 1 28 9
M  V30 45 1 27 11
M  V30 46 1 25 15
M  V30 47 1 22 20
M  V30 48 1 1 43
M  V30 49 1 1 44
M  V30 50 1 1 45
M  V30 51 1 2 46 CFG=3
M  V30 52 1 4 47
M  V30 53 1 5 48
M  V30 54 1 8 49
M  V30 55 1 12 50
M  V30 56 1 13 51
M  V30 57 1 16 52
M  V30 58 1 19 53
M  V30 59 1 19 54
M  V30 60 1 20 55
M  V30 61 1 21 56
M  V30 62 1 21 57
M  V30 63 1 22 58
M  V30 64 1 22 59
M  V30 65 1 24 60
M  V30 66 1 26 61
M  V30 67 1 28 62
M  V30 68 1 29 63
M  V30 69 1 31 64
M  V30 70 1 31 65
M  V30 71 1 32 66
M  V30 72 1 32 67
M  V30 73 1 36 68
M  V30 74 1 36 69
M  V30 75 1 41 70
M  V30 76 1 41 71
M  V30 77 1 42 72
M  V30 78 1 42 73
M  V30 END BOND
M  V30 END CTAB
M  END
>  <Dataset>  (988) 
ChEMBL_Kinases

>  <Ligand_Instance>  (988) 
nan

>  <PDB_ID>  (988) 
nan

>  <Standardized_SMILES>  (988) 
C[C@H](c1ccnc(Nc2nc3ccc(-c4cc(OCC5CC5)ncn4)cc3[nH]2)c1)N1CCN(C(=O)CC(F)(F)F)CC1

>  <Name>  (988) 
nan

>  <Pocket>  (988) 
nan

>  <ATP_Site>  (988) 
nan

>  <Peripheral>  (988) 
nan

>  <Num_H_Atoms_ProtBoundConf>  (988) 
nan

>  <Num_Resolved_Atoms>  (988) 
nan

>  <Num_Not_Resolved_Atoms>  (988) 
nan

$$$$
CHEMBL3775754
     RDKit          3D

  0  0  0  0  0  0  0  0  0  0999 V3000
M  V30 BEGIN CTAB
M  V30 COUNTS 24 26 0 0 0
M  V30 BEGIN ATOM
M  V30 1 O -0.959520 -4.095046 2.474723 0
M  V30 2 C 0.084871 -3.604111 2.003222 0
M  V30 3 N 1.374404 -4.191308 1.868744 0
M  V30 4 C 2.309540 -3.296154 1.276053 0
M  V30 5 S 3.883980 -3.573772 0.945967 0
M  V30 6 N 1.595740 -2.075564 1.014619 0
M  V30 7 C 0.253914 -2.266216 1.454968 0
M  V30 8 C -0.672073 -1.312251 1.321028 0
M  V30 9 C -0.446445 0.009479 0.768881 0
M  V30 10 C -1.181501 0.683367 -0.178090 0
M  V30 11 C -0.894757 1.951808 -0.613837 0
M  V30 12 C 0.179128 2.667576 -0.125593 0
M  V30 13 N 0.635479 3.868949 -0.389278 0
M  V30 14 C 1.508511 4.450705 0.008174 0
M  V30 15 S 2.195393 3.171816 1.233773 0
M  V30 16 C 0.895269 2.005740 0.799993 0
M  V30 17 C 0.640984 0.712511 1.275657 0
M  V30 18 H 1.654409 -5.168824 2.159352 0
M  V30 19 H 2.070313 -1.261537 0.570352 0
M  V30 20 H -1.680886 -1.509765 1.641116 0
M  V30 21 H -2.034426 0.093579 -0.554245 0
M  V30 22 H -1.587804 2.318537 -1.364986 0
M  V30 23 H 1.671530 5.598067 -0.463210 0
M  V30 24 H 1.356086 0.414159 2.026629 0
M  V30 END ATOM
M  V30 BEGIN BOND
M  V30 1 2 1 2
M  V30 2 1 2 3
M  V30 3 1 3 4
M  V30 4 2 4 5
M  V30 5 1 4 6
M  V30 6 1 6 7
M  V30 7 2 7 8
M  V30 8 1 8 9
M  V30 9 2 9 10
M  V30 10 1 10 11
M  V30 11 2 11 12
M  V30 12 1 12 13
M  V30 13 2 13 14
M  V30 14 1 14 15
M  V30 15 1 15 16
M  V30 16 2 16 17
M  V30 17 1 7 2
M  V30 18 1 17 9
M  V30 19 1 16 12
M  V30 20 1 3 18
M  V30 21 1 6 19
M  V30 22 1 8 20
M  V30 23 1 10 21
M  V30 24 1 11 22
M  V30 25 1 14 23
M  V30 26 1 17 24
M  V30 END BOND
M  V30 END CTAB
M  END
>  <Dataset>  (989) 
ChEMBL_Kinases

>  <Ligand_Instance>  (989) 
nan

>  <PDB_ID>  (989) 
nan

>  <Standardized_SMILES>  (989) 
O=C1NC(=S)N/C1=C\c1ccc2ncsc2c1

>  <Name>  (989) 
nan

>  <Pocket>  (989) 
nan

>  <ATP_Site>  (989) 
nan

>  <Peripheral>  (989) 
nan

>  <Num_H_Atoms_ProtBoundConf>  (989) 
nan

>  <Num_Resolved_Atoms>  (989) 
nan

>  <Num_Not_Resolved_Atoms>  (989) 
nan

$$$$
CHEMBL494060
     RDKit          3D

  0  0  0  0  0  0  0  0  0  0999 V3000
M  V30 BEGIN CTAB
M  V30 COUNTS 71 74 0 0 0
M  V30 BEGIN ATOM
M  V30 1 C 3.021720 -1.969396 4.642536 0
M  V30 2 C 3.499951 -1.587670 3.257965 0
M  V30 3 N 2.846587 -0.333993 2.925340 0
M  V30 4 C 3.395167 0.857149 3.207888 0
M  V30 5 C 4.660496 1.173020 3.854376 0
M  V30 6 N 5.628365 0.386134 4.353917 0
M  V30 7 O 6.584525 1.120868 4.845318 0
M  V30 8 N 6.300124 2.374796 4.697112 0
M  V30 9 C 5.107368 2.465734 4.082667 0
M  V30 10 N 4.533683 3.723940 3.785186 0
M  V30 11 N 2.535870 1.794847 2.770867 0
M  V30 12 C 1.487484 1.147465 2.234592 0
M  V30 13 C 0.355872 1.684725 1.662058 0
M  V30 14 C 0.135391 3.099692 1.550544 0
M  V30 15 C -0.063877 4.285346 1.443930 0
M  V30 16 C -0.320996 5.728503 1.296193 0
M  V30 17 C -0.202685 6.409832 2.624061 0
M  V30 18 C -1.669541 6.000996 0.649788 0
M  V30 19 O 0.653210 6.245519 0.445038 0
M  V30 20 N -0.560922 0.820480 1.196646 0
M  V30 21 C -0.420748 -0.513670 1.266199 0
M  V30 22 C 0.687312 -1.112278 1.825929 0
M  V30 23 O 1.060764 -2.407087 2.013117 0
M  V30 24 C 0.477555 -3.607494 1.706745 0
M  V30 25 C 0.238024 -3.869106 0.224389 0
M  V30 26 C -0.400336 -5.216190 0.015404 0
M  V30 27 N -0.683169 -5.648323 -1.271144 0
M  V30 28 C -1.668148 -5.124303 -2.081034 0
M  V30 29 C -1.581241 -3.776318 -2.687710 0
M  V30 30 C -2.844829 -3.592159 -3.521181 0
M  V30 31 C -3.926869 -3.024719 -2.840718 0
M  V30 32 C -5.161688 -2.768691 -3.391041 0
M  V30 33 C -5.325870 -3.111034 -4.738732 0
M  V30 34 O -6.561620 -2.860962 -5.309006 0
M  V30 35 C -6.804869 -3.179648 -6.665813 0
M  V30 36 C -4.263006 -3.670344 -5.414028 0
M  V30 37 C -3.036354 -3.917597 -4.843787 0
M  V30 38 C 1.644932 -0.228114 2.312082 0
M  V30 39 H 2.002151 -2.435391 4.603094 0
M  V30 40 H 2.968010 -1.099544 5.309025 0
M  V30 41 H 3.668857 -2.712300 5.128994 0
M  V30 42 H 4.609765 -1.464461 3.286603 0
M  V30 43 H 3.309808 -2.400367 2.559873 0
M  V30 44 H 5.021867 4.484250 3.282312 0
M  V30 45 H 3.544767 3.884664 4.101437 0
M  V30 46 H 0.034847 5.709630 3.451939 0
M  V30 47 H -1.179986 6.884596 2.844653 0
M  V30 48 H 0.541131 7.223615 2.626742 0
M  V30 49 H -1.578905 6.844285 -0.052952 0
M  V30 50 H -1.953456 5.075308 0.106550 0
M  V30 51 H -2.483079 6.153039 1.398758 0
M  V30 52 H 0.438224 5.903164 -0.454635 0
M  V30 53 H -1.165675 -1.199013 0.901301 0
M  V30 54 H 1.118336 -4.434051 2.072386 0
M  V30 55 H -0.521162 -3.770288 2.186049 0
M  V30 56 H -0.389717 -3.093951 -0.161076 0
M  V30 57 H 1.199843 -3.841209 -0.339950 0
M  V30 58 H 0.303027 -5.946828 0.527176 0
M  V30 59 H -1.338616 -5.288654 0.667598 0
M  V30 60 H -0.144703 -6.468887 -1.630435 0
M  V30 61 H -2.659032 -5.193123 -1.500012 0
M  V30 62 H -1.832034 -5.842449 -2.963769 0
M  V30 63 H -1.532291 -2.929703 -2.015365 0
M  V30 64 H -0.764082 -3.755482 -3.448403 0
M  V30 65 H -3.819716 -2.747905 -1.781687 0
M  V30 66 H -5.952536 -2.327716 -2.804568 0
M  V30 67 H -5.983806 -2.769570 -7.262181 0
M  V30 68 H -7.804010 -2.803093 -6.991322 0
M  V30 69 H -6.821705 -4.278809 -6.724375 0
M  V30 70 H -4.382753 -3.937602 -6.458253 0
M  V30 71 H -2.173727 -4.351537 -5.321602 0
M  V30 END ATOM
M  V30 BEGIN BOND
M  V30 1 1 1 2
M  V30 2 1 2 3
M  V30 3 1 3 4
M  V30 4 1 4 5
M  V30 5 2 5 6
M  V30 6 1 6 7
M  V30 7 1 7 8
M  V30 8 2 8 9
M  V30 9 1 9 10
M  V30 10 2 4 11
M  V30 11 1 11 12
M  V30 12 2 12 13
M  V30 13 1 13 14
M  V30 14 3 14 15
M  V30 15 1 15 16
M  V30 16 1 16 17
M  V30 17 1 16 18
M  V30 18 1 16 19
M  V30 19 1 13 20
M  V30 20 2 20 21
M  V30 21 1 21 22
M  V30 22 1 22 23
M  V30 23 1 23 24
M  V30 24 1 24 25
M  V30 25 1 25 26
M  V30 26 1 26 27
M  V30 27 1 27 28
M  V30 28 1 28 29
M  V30 29 1 29 30
M  V30 30 2 30 31
M  V30 31 1 31 32
M  V30 32 2 32 33
M  V30 33 1 33 34
M  V30 34 1 34 35
M  V30 35 1 33 36
M  V30 36 2 36 37
M  V30 37 2 22 38
M  V30 38 1 38 3
M  V30 39 1 9 5
M  V30 40 1 38 12
M  V30 41 1 37 30
M  V30 42 1 1 39
M  V30 43 1 1 40
M  V30 44 1 1 41
M  V30 45 1 2 42
M  V30 46 1 2 43
M  V30 47 1 10 44
M  V30 48 1 10 45
M  V30 49 1 17 46
M  V30 50 1 17 47
M  V30 51 1 17 48
M  V30 52 1 18 49
M  V30 53 1 18 50
M  V30 54 1 18 51
M  V30 55 1 19 52
M  V30 56 1 21 53
M  V30 57 1 24 54
M  V30 58 1 24 55
M  V30 59 1 25 56
M  V30 60 1 25 57
M  V30 61 1 26 58
M  V30 62 1 26 59
M  V30 63 1 27 60
M  V30 64 1 28 61
M  V30 65 1 28 62
M  V30 66 1 29 63
M  V30 67 1 29 64
M  V30 68 1 31 65
M  V30 69 1 32 66
M  V30 70 1 35 67
M  V30 71 1 35 68
M  V30 72 1 35 69
M  V30 73 1 36 70
M  V30 74 1 37 71
M  V30 END BOND
M  V30 END CTAB
M  END
>  <Dataset>  (990) 
ChEMBL_Kinases

>  <Ligand_Instance>  (990) 
nan

>  <PDB_ID>  (990) 
nan

>  <Standardized_SMILES>  (990) 
CCn1c(-c2nonc2N)nc2c(C#CC(C)(C)O)ncc(OCCCNCCc3ccc(OC)cc3)c21

>  <Name>  (990) 
nan

>  <Pocket>  (990) 
nan

>  <ATP_Site>  (990) 
nan

>  <Peripheral>  (990) 
nan

>  <Num_H_Atoms_ProtBoundConf>  (990) 
nan

>  <Num_Resolved_Atoms>  (990) 
nan

>  <Num_Not_Resolved_Atoms>  (990) 
nan

$$$$
CHEMBL483321
     RDKit          3D

  0  0  0  0  0  0  0  0  0  0999 V3000
M  V30 BEGIN CTAB
M  V30 COUNTS 62 65 0 0 0
M  V30 BEGIN ATOM
M  V30 1 C 2.140108 -3.013768 4.453235 0
M  V30 2 O 2.579215 -1.762724 4.015035 0
M  V30 3 C 3.055232 -1.885974 2.724443 0
M  V30 4 C 3.500432 -0.551958 2.221937 0
M  V30 5 O 3.376123 0.436016 3.027685 0
M  V30 6 N 4.034268 -0.365077 0.920964 0
M  V30 7 C 4.474998 0.868005 0.320593 0
M  V30 8 C 3.360267 1.870764 0.168593 0
M  V30 9 C 2.095079 1.718580 0.503838 0
M  V30 10 C 1.069825 2.740383 0.323340 0
M  V30 11 C 1.262655 3.964928 -0.244145 0
M  V30 12 C 0.208373 4.869689 -0.397285 0
M  V30 13 C -1.060047 4.524768 0.033114 0
M  V30 14 N -2.128545 5.362262 -0.102450 0
M  V30 15 C -3.354882 4.965587 0.328656 0
M  V30 16 N -3.532915 3.757020 0.888108 0
M  V30 17 C -2.560528 2.864793 1.069071 0
M  V30 18 N -2.718222 1.599944 1.647510 0
M  V30 19 C -2.668968 0.250018 1.222244 0
M  V30 20 C -2.317831 -0.169761 -0.039045 0
M  V30 21 C -2.243150 -1.485320 -0.444216 0
M  V30 22 C -2.565687 -2.375379 0.564837 0
M  V30 23 O -2.515723 -3.740799 0.255345 0
M  V30 24 C -2.088516 -4.177576 -0.990410 0
M  V30 25 C -2.673860 -4.377113 -2.223100 0
M  V30 26 C -1.893827 -4.835966 -3.253774 0
M  V30 27 C -0.550212 -5.106659 -3.106994 0
M  V30 28 C 0.255699 -5.607089 -4.266325 0
M  V30 29 N 0.045766 -4.917792 -1.900571 0
M  V30 30 C -0.715265 -4.459603 -0.860287 0
M  V30 31 C -2.926258 -2.021689 1.842872 0
M  V30 32 C -3.239078 -3.078100 2.818106 0
M  V30 33 C -2.979101 -0.693619 2.176819 0
M  V30 34 C -1.308439 3.303499 0.612999 0
M  V30 35 C -0.224788 2.464149 0.732201 0
M  V30 36 H 2.934478 -3.777796 4.451950 0
M  V30 37 H 1.738375 -2.891493 5.484271 0
M  V30 38 H 1.286998 -3.384923 3.815735 0
M  V30 39 H 2.287726 -2.318464 2.053078 0
M  V30 40 H 3.937453 -2.546719 2.746223 0
M  V30 41 H 4.089014 -1.261684 0.390658 0
M  V30 42 H 4.833528 0.647744 -0.683766 0
M  V30 43 H 5.327444 1.310591 0.909413 0
M  V30 44 H 3.684663 2.798373 -0.272062 0
M  V30 45 H 1.831953 0.760391 0.918116 0
M  V30 46 H 2.263053 4.209022 -0.570495 0
M  V30 47 H 0.397272 5.817211 -0.848099 0
M  V30 48 H -4.197368 5.666355 0.203118 0
M  V30 49 H -2.911499 1.882212 2.630852 0
M  V30 50 H -2.078356 0.588613 -0.790185 0
M  V30 51 H -1.963743 -1.730670 -1.441209 0
M  V30 52 H -3.700851 -4.124541 -2.166719 0
M  V30 53 H -2.423972 -4.968333 -4.184867 0
M  V30 54 H -0.161501 -6.537296 -4.676669 0
M  V30 55 H 0.297331 -4.868440 -5.100661 0
M  V30 56 H 1.291504 -5.808346 -3.919437 0
M  V30 57 H -0.065972 -4.374026 0.009429 0
M  V30 58 H -3.740267 -3.931637 2.330037 0
M  V30 59 H -2.342609 -3.361648 3.410971 0
M  V30 60 H -3.951583 -2.643657 3.554271 0
M  V30 61 H -3.262375 -0.413192 3.192129 0
M  V30 62 H -0.394076 1.505676 1.194679 0
M  V30 END ATOM
M  V30 BEGIN BOND
M  V30 1 1 1 2
M  V30 2 1 2 3
M  V30 3 1 3 4
M  V30 4 2 4 5
M  V30 5 1 4 6
M  V30 6 1 6 7
M  V30 7 1 7 8
M  V30 8 2 8 9
M  V30 9 1 9 10
M  V30 10 2 10 11
M  V30 11 1 11 12
M  V30 12 2 12 13
M  V30 13 1 13 14
M  V30 14 2 14 15
M  V30 15 1 15 16
M  V30 16 2 16 17
M  V30 17 1 17 18
M  V30 18 1 18 19
M  V30 19 2 19 20
M  V30 20 1 20 21
M  V30 21 2 21 22
M  V30 22 1 22 23
M  V30 23 1 23 24
M  V30 24 2 24 25
M  V30 25 1 25 26
M  V30 26 2 26 27
M  V30 27 1 27 28
M  V30 28 1 27 29
M  V30 29 2 29 30
M  V30 30 1 22 31
M  V30 31 1 31 32
M  V30 32 2 31 33
M  V30 33 1 17 34
M  V30 34 2 34 35
M  V30 35 1 35 10
M  V30 36 1 34 13
M  V30 37 1 33 19
M  V30 38 1 30 24
M  V30 39 1 1 36
M  V30 40 1 1 37
M  V30 41 1 1 38
M  V30 42 1 3 39
M  V30 43 1 3 40
M  V30 44 1 6 41
M  V30 45 1 7 42
M  V30 46 1 7 43
M  V30 47 1 8 44
M  V30 48 1 9 45
M  V30 49 1 11 46
M  V30 50 1 12 47
M  V30 51 1 15 48
M  V30 52 1 18 49
M  V30 53 1 20 50
M  V30 54 1 21 51
M  V30 55 1 25 52
M  V30 56 1 26 53
M  V30 57 1 28 54
M  V30 58 1 28 55
M  V30 59 1 28 56
M  V30 60 1 30 57
M  V30 61 1 32 58
M  V30 62 1 32 59
M  V30 63 1 32 60
M  V30 64 1 33 61
M  V30 65 1 35 62
M  V30 END BOND
M  V30 END CTAB
M  END
>  <Dataset>  (991) 
ChEMBL_Kinases

>  <Ligand_Instance>  (991) 
nan

>  <PDB_ID>  (991) 
nan

>  <Standardized_SMILES>  (991) 
COCC(=O)NC/C=C/c1ccc2ncnc(Nc3ccc(Oc4ccc(C)nc4)c(C)c3)c2c1

>  <Name>  (991) 
CP-724714

>  <Pocket>  (991) 
nan

>  <ATP_Site>  (991) 
nan

>  <Peripheral>  (991) 
nan

>  <Num_H_Atoms_ProtBoundConf>  (991) 
nan

>  <Num_Resolved_Atoms>  (991) 
nan

>  <Num_Not_Resolved_Atoms>  (991) 
nan

$$$$
CHEMBL493067
     RDKit          3D

  0  0  0  0  0  0  0  0  0  0999 V3000
M  V30 BEGIN CTAB
M  V30 COUNTS 46 49 0 0 0
M  V30 BEGIN ATOM
M  V30 1 C 1.387336 -2.883304 0.127721 0
M  V30 2 C 2.220935 -1.773250 0.312966 0
M  V30 3 N 2.114060 -0.438294 -0.091636 0
M  V30 4 C 2.583763 0.081303 -1.278958 0
M  V30 5 C 3.249729 -0.716734 -2.329339 0
M  V30 6 N 3.542205 -2.030769 -2.378066 0
M  V30 7 O 4.124653 -2.306977 -3.499421 0
M  V30 8 N 4.229222 -1.221448 -4.197059 0
M  V30 9 C 3.694258 -0.200673 -3.502231 0
M  V30 10 N 3.666112 1.130015 -4.026455 0
M  V30 11 N 2.355257 1.376126 -1.373035 0
M  V30 12 C 1.728189 1.734751 -0.248957 0
M  V30 13 C 1.229159 2.915640 0.251545 0
M  V30 14 N 0.603626 3.070754 1.453816 0
M  V30 15 C 0.452696 1.958509 2.238845 0
M  V30 16 C 0.960421 0.744936 1.732780 0
M  V30 17 C 0.692926 -0.334329 2.670530 0
M  V30 18 O 1.020020 -1.184932 3.552626 0
M  V30 19 N -0.730195 -0.626354 2.567983 0
M  V30 20 C -1.634675 -1.579041 3.211926 0
M  V30 21 C -2.685292 -0.858118 4.045102 0
M  V30 22 C -3.521181 0.029228 3.173969 0
M  V30 23 C -3.874346 -0.499101 1.836339 0
M  V30 24 N -3.334269 -1.734767 1.421889 0
M  V30 25 C -2.370650 -2.396085 2.212520 0
M  V30 26 C 1.576675 0.620787 0.541951 0
M  V30 27 H 1.990632 -3.758003 -0.220260 0
M  V30 28 H 0.931878 -3.382848 1.042053 0
M  V30 29 H 0.640269 -2.879408 -0.723503 0
M  V30 30 H 2.446089 -1.698995 1.421061 0
M  V30 31 H 3.263526 -2.085321 -0.040107 0
M  V30 32 H 2.760561 1.167151 -4.575316 0
M  V30 33 H 4.340576 1.941142 -3.932603 0
M  V30 34 H 1.297982 3.834886 -0.285291 0
M  V30 35 H -0.046928 2.096459 3.189585 0
M  V30 36 H -1.447532 -0.132134 1.937303 0
M  V30 37 H -1.094233 -2.245153 3.903788 0
M  V30 38 H -3.346241 -1.653073 4.463716 0
M  V30 39 H -2.234231 -0.289275 4.880830 0
M  V30 40 H -2.962979 1.005424 3.028723 0
M  V30 41 H -4.454919 0.364554 3.702123 0
M  V30 42 H -5.006719 -0.632450 1.812130 0
M  V30 43 H -3.734417 0.320291 1.070456 0
M  V30 44 H -3.140091 -1.716730 0.395811 0
M  V30 45 H -2.930526 -3.183615 2.809773 0
M  V30 46 H -1.665032 -2.997246 1.580276 0
M  V30 END ATOM
M  V30 BEGIN BOND
M  V30 1 1 1 2
M  V30 2 1 2 3
M  V30 3 1 3 4
M  V30 4 1 4 5
M  V30 5 2 5 6
M  V30 6 1 6 7
M  V30 7 1 7 8
M  V30 8 2 8 9
M  V30 9 1 9 10
M  V30 10 2 4 11
M  V30 11 1 11 12
M  V30 12 2 12 13
M  V30 13 1 13 14
M  V30 14 2 14 15
M  V30 15 1 15 16
M  V30 16 1 16 17
M  V30 17 2 17 18
M  V30 18 1 17 19
M  V30 19 1 19 20
M  V30 20 1 20 21
M  V30 21 1 21 22
M  V30 22 1 22 23
M  V30 23 1 23 24
M  V30 24 1 24 25
M  V30 25 2 16 26
M  V30 26 1 26 3
M  V30 27 1 9 5
M  V30 28 1 26 12
M  V30 29 1 25 20
M  V30 30 1 1 27
M  V30 31 1 1 28
M  V30 32 1 1 29
M  V30 33 1 2 30
M  V30 34 1 2 31
M  V30 35 1 10 32
M  V30 36 1 10 33
M  V30 37 1 13 34
M  V30 38 1 15 35
M  V30 39 1 19 36
M  V30 40 1 20 37
M  V30 41 1 21 38
M  V30 42 1 21 39
M  V30 43 1 22 40
M  V30 44 1 22 41
M  V30 45 1 23 42
M  V30 46 1 23 43
M  V30 47 1 24 44
M  V30 48 1 25 45
M  V30 49 1 25 46
M  V30 END BOND
M  V30 END CTAB
M  END
>  <Dataset>  (992) 
ChEMBL_Kinases

>  <Ligand_Instance>  (992) 
nan

>  <PDB_ID>  (992) 
nan

>  <Standardized_SMILES>  (992) 
CCn1c(-c2nonc2N)nc2cncc(C(=O)NC3CCCNC3)c21

>  <Name>  (992) 
nan

>  <Pocket>  (992) 
nan

>  <ATP_Site>  (992) 
nan

>  <Peripheral>  (992) 
nan

>  <Num_H_Atoms_ProtBoundConf>  (992) 
nan

>  <Num_Resolved_Atoms>  (992) 
nan

>  <Num_Not_Resolved_Atoms>  (992) 
nan

$$$$
CHEMBL2012519
     RDKit          3D

  0  0  0  0  0  0  0  0  0  0999 V3000
M  V30 BEGIN CTAB
M  V30 COUNTS 50 51 0 0 0
M  V30 BEGIN ATOM
M  V30 1 C 3.429830 -4.595799 4.235621 0
M  V30 2 O 3.664781 -4.645780 2.867346 0
M  V30 3 C 3.014924 -3.818032 1.974638 0
M  V30 4 C 3.270822 -3.892766 0.623278 0
M  V30 5 C 2.605655 -3.048115 -0.274974 0
M  V30 6 O 2.823416 -3.073615 -1.662282 0
M  V30 7 C 1.701370 -2.161589 0.273619 0
M  V30 8 C 1.423709 -2.068893 1.667489 0
M  V30 9 C 2.108900 -2.923538 2.488306 0
M  V30 10 C 0.411432 -1.004164 1.906532 0
M  V30 11 C 1.125731 0.301331 1.698703 0
M  V30 12 C 0.299724 1.411677 1.200366 0
M  V30 13 C -0.817765 1.989791 1.926165 0 CFG=2
M  V30 14 O -1.746370 1.116203 2.430677 0
M  V30 15 C -1.514556 3.092230 1.167340 0 CFG=2
M  V30 16 O -2.262486 3.852722 2.031242 0
M  V30 17 C -2.305440 2.781222 0.003720 0
M  V30 18 O -2.807823 3.967942 0.099817 0
M  V30 19 C -2.992843 2.224777 -1.180888 0
M  V30 20 C -2.968749 1.009326 -1.729640 0
M  V30 21 C -2.158734 0.013450 -1.100103 0
M  V30 22 C -1.040926 -0.664037 -1.840135 0 CFG=2
M  V30 23 C -1.662091 -1.514863 -2.950323 0
M  V30 24 O -0.269411 -1.427946 -0.933141 0
M  V30 25 C 1.069885 -1.329565 -0.790808 0
M  V30 26 O 1.881030 -0.602115 -1.449218 0
M  V30 27 H 3.859555 -5.548134 4.663912 0
M  V30 28 H 3.930890 -3.718695 4.675563 0
M  V30 29 H 2.352540 -4.623391 4.486138 0
M  V30 30 H 3.989772 -4.603546 0.225925 0
M  V30 31 H 2.242297 -3.583512 -2.296731 0
M  V30 32 H 1.821564 -2.767310 3.515040 0
M  V30 33 H -0.401165 -1.105221 1.227485 0
M  V30 34 H 0.135005 -1.158571 2.982046 0
M  V30 35 H 1.988351 0.136204 1.043958 0
M  V30 36 H 1.617073 0.613961 2.684096 0
M  V30 37 H 1.098613 2.265872 1.122546 0
M  V30 38 H 0.121288 1.321868 0.070747 0
M  V30 39 H -0.426231 2.533073 2.833099 0
M  V30 40 H -2.221245 1.509782 3.205404 0
M  V30 41 H -0.670499 3.810462 0.832550 0
M  V30 42 H -2.891311 3.336619 2.593993 0
M  V30 43 H -3.662240 2.831631 -1.790780 0
M  V30 44 H -3.498005 0.741220 -2.584144 0
M  V30 45 H -1.917730 0.200609 -0.035288 0
M  V30 46 H -2.907931 -0.885435 -0.953470 0
M  V30 47 H -0.423048 0.104054 -2.346759 0
M  V30 48 H -2.638099 -1.056974 -3.202931 0
M  V30 49 H -1.821580 -2.529408 -2.586416 0
M  V30 50 H -1.060355 -1.456448 -3.880066 0
M  V30 END ATOM
M  V30 BEGIN BOND
M  V30 1 1 1 2
M  V30 2 1 2 3
M  V30 3 2 3 4
M  V30 4 1 4 5
M  V30 5 1 5 6
M  V30 6 2 5 7
M  V30 7 1 7 8
M  V30 8 2 8 9
M  V30 9 1 8 10
M  V30 10 1 10 11
M  V30 11 1 11 12
M  V30 12 1 12 13
M  V30 13 1 13 14
M  V30 14 1 13 15
M  V30 15 1 15 16
M  V30 16 1 15 17
M  V30 17 2 17 18
M  V30 18 1 17 19
M  V30 19 2 19 20
M  V30 20 1 20 21
M  V30 21 1 21 22
M  V30 22 1 22 23
M  V30 23 1 22 24
M  V30 24 1 24 25
M  V30 25 2 25 26
M  V30 26 1 9 3
M  V30 27 1 25 7
M  V30 28 1 1 27
M  V30 29 1 1 28
M  V30 30 1 1 29
M  V30 31 1 4 30
M  V30 32 1 6 31
M  V30 33 1 9 32
M  V30 34 1 10 33
M  V30 35 1 10 34
M  V30 36 1 11 35
M  V30 37 1 11 36
M  V30 38 1 12 37
M  V30 39 1 12 38
M  V30 40 1 13 39 CFG=1
M  V30 41 1 14 40
M  V30 42 1 15 41 CFG=3
M  V30 43 1 16 42
M  V30 44 1 19 43
M  V30 45 1 20 44
M  V30 46 1 21 45
M  V30 47 1 21 46
M  V30 48 1 22 47 CFG=3
M  V30 49 1 23 48
M  V30 50 1 23 49
M  V30 51 1 23 50
M  V30 END BOND
M  V30 END CTAB
M  END
>  <Dataset>  (993) 
ChEMBL_Kinases

>  <Ligand_Instance>  (993) 
nan

>  <PDB_ID>  (993) 
nan

>  <Standardized_SMILES>  (993) 
COc1cc(O)c2c(c1)CCC[C@H](O)[C@H](O)C(=O)/C=C\C[C@H](C)OC2=O

>  <Name>  (993) 
nan

>  <Pocket>  (993) 
nan

>  <ATP_Site>  (993) 
nan

>  <Peripheral>  (993) 
nan

>  <Num_H_Atoms_ProtBoundConf>  (993) 
nan

>  <Num_Resolved_Atoms>  (993) 
nan

>  <Num_Not_Resolved_Atoms>  (993) 
nan

$$$$
CHEMBL4744041
     RDKit          3D

  0  0  0  0  0  0  0  0  0  0999 V3000
M  V30 BEGIN CTAB
M  V30 COUNTS 61 64 0 0 0
M  V30 BEGIN ATOM
M  V30 1 C -3.168169 0.182454 1.406528 0
M  V30 2 C -2.407531 -0.943610 2.015993 0
M  V30 3 C -1.251451 -0.742420 2.745387 0
M  V30 4 C -0.517595 -1.755221 3.324761 0
M  V30 5 C 0.684090 -1.395850 4.066869 0
M  V30 6 C 1.504827 -2.310762 4.689500 0
M  V30 7 C 2.635910 -1.853286 5.373374 0
M  V30 8 N 2.889328 -0.540716 5.403815 0
M  V30 9 C 2.094327 0.367573 4.798466 0
M  V30 10 N 2.310303 1.774107 4.794406 0
M  V30 11 C 3.041394 2.547233 3.850570 0
M  V30 12 C 3.308175 3.897621 3.763903 0
M  V30 13 N 4.061438 4.063842 2.637580 0
M  V30 14 N 4.248260 2.883675 2.062955 0
M  V30 15 C 5.002329 2.669885 0.843034 0
M  V30 16 C 3.636021 1.917385 2.777498 0
M  V30 17 N 1.026114 -0.098551 4.156221 0
M  V30 18 C -0.965128 -3.048254 3.166416 0
M  V30 19 C -2.128943 -3.282667 2.435401 0
M  V30 20 C -2.847636 -2.246085 1.863403 0
M  V30 21 C -4.090419 -2.445751 1.077030 0
M  V30 22 N -3.854816 -2.309151 -0.352956 0
M  V30 23 C -2.919466 -3.201208 -0.992655 0
M  V30 24 O -2.268877 -4.109758 -0.426994 0
M  V30 25 N -2.733989 -3.015991 -2.392012 0
M  V30 26 C -3.238107 -2.131436 -3.451709 0
M  V30 27 C -1.892548 -2.243839 -4.086662 0
M  V30 28 O -0.875880 -1.531196 -3.465771 0
M  V30 29 C 0.084825 -1.079583 -4.358631 0
M  V30 30 C 1.436063 -1.706218 -4.125049 0
M  V30 31 C 0.152882 0.427563 -4.383689 0
M  V30 32 C -1.933199 -3.640700 -3.451188 0
M  V30 33 H -4.249027 0.145191 1.590506 0
M  V30 34 H -2.693226 1.117694 1.758212 0
M  V30 35 H -2.921874 0.136369 0.313542 0
M  V30 36 H -0.937857 0.291367 2.843652 0
M  V30 37 H 1.265422 -3.361852 4.641650 0
M  V30 38 H 3.280851 -2.570271 5.862668 0
M  V30 39 H 1.882095 2.339288 5.585119 0
M  V30 40 H 2.927677 4.565631 4.514837 0
M  V30 41 H 5.176586 1.584431 0.686833 0
M  V30 42 H 4.500317 3.067897 -0.048790 0
M  V30 43 H 5.989396 3.202261 0.958760 0
M  V30 44 H 3.650445 0.871313 2.502114 0
M  V30 45 H -0.411097 -3.861250 3.608922 0
M  V30 46 H -2.484400 -4.301460 2.308749 0
M  V30 47 H -4.914411 -1.784631 1.341073 0
M  V30 48 H -4.418569 -3.507345 1.216120 0
M  V30 49 H -4.349506 -1.578471 -0.924467 0
M  V30 50 H -4.014804 -2.555786 -4.093311 0
M  V30 51 H -3.474261 -1.143254 -3.008579 0
M  V30 52 H -1.833531 -2.370799 -5.177111 0
M  V30 53 H -0.244124 -1.425528 -5.357780 0
M  V30 54 H 1.369603 -2.238023 -3.140962 0
M  V30 55 H 2.258849 -0.980290 -4.050147 0
M  V30 56 H 1.690965 -2.476555 -4.873482 0
M  V30 57 H 1.113544 0.803985 -3.967896 0
M  V30 58 H -0.043113 0.781185 -5.397337 0
M  V30 59 H -0.706972 0.809249 -3.758928 0
M  V30 60 H -0.935609 -3.975473 -3.161397 0
M  V30 61 H -2.523715 -4.344571 -4.102929 0
M  V30 END ATOM
M  V30 BEGIN BOND
M  V30 1 1 1 2
M  V30 2 2 2 3
M  V30 3 1 3 4
M  V30 4 1 4 5
M  V30 5 2 5 6
M  V30 6 1 6 7
M  V30 7 2 7 8
M  V30 8 1 8 9
M  V30 9 1 9 10
M  V30 10 1 10 11
M  V30 11 1 11 12
M  V30 12 2 12 13
M  V30 13 1 13 14
M  V30 14 1 14 15
M  V30 15 1 14 16
M  V30 16 2 9 17
M  V30 17 2 4 18
M  V30 18 1 18 19
M  V30 19 2 19 20
M  V30 20 1 20 21
M  V30 21 1 21 22
M  V30 22 1 22 23
M  V30 23 2 23 24
M  V30 24 1 23 25
M  V30 25 1 25 26
M  V30 26 1 26 27
M  V30 27 1 27 28
M  V30 28 1 28 29
M  V30 29 1 29 30
M  V30 30 1 29 31
M  V30 31 1 27 32
M  V30 32 1 20 2
M  V30 33 1 32 25
M  V30 34 1 17 5
M  V30 35 2 16 11
M  V30 36 1 1 33
M  V30 37 1 1 34
M  V30 38 1 1 35
M  V30 39 1 3 36
M  V30 40 1 6 37
M  V30 41 1 7 38
M  V30 42 1 10 39
M  V30 43 1 12 40
M  V30 44 1 15 41
M  V30 45 1 15 42
M  V30 46 1 15 43
M  V30 47 1 16 44
M  V30 48 1 18 45
M  V30 49 1 19 46
M  V30 50 1 21 47
M  V30 51 1 21 48
M  V30 52 1 22 49
M  V30 53 1 26 50
M  V30 54 1 26 51
M  V30 55 1 27 52
M  V30 56 1 29 53
M  V30 57 1 30 54
M  V30 58 1 30 55
M  V30 59 1 30 56
M  V30 60 1 31 57
M  V30 61 1 31 58
M  V30 62 1 31 59
M  V30 63 1 32 60
M  V30 64 1 32 61
M  V30 END BOND
M  V30 END CTAB
M  END
>  <Dataset>  (994) 
ChEMBL_Kinases

>  <Ligand_Instance>  (994) 
nan

>  <PDB_ID>  (994) 
nan

>  <Standardized_SMILES>  (994) 
Cc1cc(-c2ccnc(Nc3cnn(C)c3)n2)ccc1CNC(=O)N1CC(OC(C)C)C1

>  <Name>  (994) 
nan

>  <Pocket>  (994) 
nan

>  <ATP_Site>  (994) 
nan

>  <Peripheral>  (994) 
nan

>  <Num_H_Atoms_ProtBoundConf>  (994) 
nan

>  <Num_Resolved_Atoms>  (994) 
nan

>  <Num_Not_Resolved_Atoms>  (994) 
nan

$$$$
CHEMBL1802850
     RDKit          3D

  0  0  0  0  0  0  0  0  0  0999 V3000
M  V30 BEGIN CTAB
M  V30 COUNTS 42 45 0 0 0
M  V30 BEGIN ATOM
M  V30 1 C -0.051701 -5.213413 1.193487 0
M  V30 2 N 0.538553 -3.929110 0.861297 0
M  V30 3 C 1.883654 -3.887042 0.372093 0
M  V30 4 O 2.785769 -4.731393 0.126879 0
M  V30 5 C 2.160645 -2.473539 0.138794 0
M  V30 6 C 3.249890 -1.807792 -0.294809 0
M  V30 7 C 3.179237 -0.339141 -0.419754 0
M  V30 8 C 4.074868 0.624975 -0.017854 0
M  V30 9 C 3.801787 1.956061 -0.252024 0
M  V30 10 C 2.613086 2.320978 -0.898958 0
M  V30 11 C 1.717051 1.369172 -1.302826 0
M  V30 12 C 1.998214 0.044220 -1.065219 0
M  V30 13 O 0.645044 2.043969 -1.910111 0
M  V30 14 C 0.793402 3.431786 -1.755864 0
M  V30 15 O 2.109317 3.574991 -1.248455 0
M  V30 16 N 0.951901 -1.794584 0.510140 0
M  V30 17 C 0.047944 -2.599081 0.912202 0
M  V30 18 N -1.269122 -2.278094 1.358846 0
M  V30 19 C -1.579453 -0.839879 1.391784 0
M  V30 20 C -0.604548 -0.115090 2.314039 0
M  V30 21 C -1.390812 0.969360 2.995752 0
M  V30 22 C -2.824567 0.766211 2.581405 0
M  V30 23 C -2.855335 -0.712851 2.210810 0
M  V30 24 H 0.671760 -5.898076 1.659159 0
M  V30 25 H -0.842117 -5.000407 1.938818 0
M  V30 26 H -0.576096 -5.665454 0.324854 0
M  V30 27 H 4.071532 -2.479858 -0.501950 0
M  V30 28 H 4.937160 0.202291 0.462033 0
M  V30 29 H 4.527931 2.662766 0.081734 0
M  V30 30 H 1.217242 -0.614569 -1.444195 0
M  V30 31 H 0.777020 3.860329 -2.780280 0
M  V30 32 H 0.017236 3.874280 -1.099892 0
M  V30 33 H -1.942650 -3.025038 1.634290 0
M  V30 34 H -1.661564 -0.396531 0.404973 0
M  V30 35 H -0.282353 -0.825868 3.102128 0
M  V30 36 H 0.279500 0.255232 1.756932 0
M  V30 37 H -1.354702 0.871661 4.119758 0
M  V30 38 H -0.996354 1.973006 2.727961 0
M  V30 39 H -3.513538 1.010160 3.415541 0
M  V30 40 H -3.003660 1.336419 1.666111 0
M  V30 41 H -2.688873 -1.339000 3.119285 0
M  V30 42 H -3.747404 -0.974603 1.642798 0
M  V30 END ATOM
M  V30 BEGIN BOND
M  V30 1 1 1 2
M  V30 2 1 2 3
M  V30 3 2 3 4
M  V30 4 1 3 5
M  V30 5 2 5 6
M  V30 6 1 6 7
M  V30 7 2 7 8
M  V30 8 1 8 9
M  V30 9 2 9 10
M  V30 10 1 10 11
M  V30 11 2 11 12
M  V30 12 1 11 13
M  V30 13 1 13 14
M  V30 14 1 14 15
M  V30 15 1 5 16
M  V30 16 2 16 17
M  V30 17 1 17 18
M  V30 18 1 18 19
M  V30 19 1 19 20
M  V30 20 1 20 21
M  V30 21 1 21 22
M  V30 22 1 22 23
M  V30 23 1 17 2
M  V30 24 1 23 19
M  V30 25 1 12 7
M  V30 26 1 15 10
M  V30 27 1 1 24
M  V30 28 1 1 25
M  V30 29 1 1 26
M  V30 30 1 6 27
M  V30 31 1 8 28
M  V30 32 1 9 29
M  V30 33 1 12 30
M  V30 34 1 14 31
M  V30 35 1 14 32
M  V30 36 1 18 33
M  V30 37 1 19 34
M  V30 38 1 20 35
M  V30 39 1 20 36
M  V30 40 1 21 37
M  V30 41 1 21 38
M  V30 42 1 22 39
M  V30 43 1 22 40
M  V30 44 1 23 41
M  V30 45 1 23 42
M  V30 END BOND
M  V30 END CTAB
M  END
>  <Dataset>  (995) 
ChEMBL_Kinases

>  <Ligand_Instance>  (995) 
nan

>  <PDB_ID>  (995) 
nan

>  <Standardized_SMILES>  (995) 
CN1C(=O)/C(=C/c2ccc3c(c2)OCO3)N=C1NC1CCCC1

>  <Name>  (995) 
nan

>  <Pocket>  (995) 
nan

>  <ATP_Site>  (995) 
nan

>  <Peripheral>  (995) 
nan

>  <Num_H_Atoms_ProtBoundConf>  (995) 
nan

>  <Num_Resolved_Atoms>  (995) 
nan

>  <Num_Not_Resolved_Atoms>  (995) 
nan

$$$$
CHEMBL3774830
     RDKit          3D

  0  0  0  0  0  0  0  0  0  0999 V3000
M  V30 BEGIN CTAB
M  V30 COUNTS 26 28 0 0 0
M  V30 BEGIN ATOM
M  V30 1 O 0.239144 -3.745590 3.881928 0
M  V30 2 C 1.244022 -3.188554 3.339667 0
M  V30 3 N 2.570070 -3.392481 3.743475 0
M  V30 4 C 3.581481 -2.688190 3.026912 0
M  V30 5 S 5.154183 -2.555460 3.457168 0
M  V30 6 S 2.738861 -1.998860 1.577637 0
M  V30 7 C 1.080024 -2.253833 2.206093 0
M  V30 8 C -0.071867 -1.749758 1.800034 0
M  V30 9 C -0.088348 -0.837683 0.665460 0
M  V30 10 C 0.675350 -0.907412 -0.477953 0
M  V30 11 C 0.570783 0.015652 -1.492365 0
M  V30 12 C -0.311362 1.073094 -1.423745 0
M  V30 13 C -1.087680 1.146645 -0.264536 0
M  V30 14 C -0.991964 0.219013 0.770363 0
M  V30 15 C -1.987591 2.349204 -0.356943 0
M  V30 16 C -2.036418 2.523054 -1.861805 0
M  V30 17 O -0.690039 2.170434 -2.219971 0
M  V30 18 H 2.835079 -4.038062 4.544984 0
M  V30 19 H -1.001142 -2.006056 2.296604 0
M  V30 20 H 1.363880 -1.733338 -0.535998 0
M  V30 21 H 1.174083 -0.065432 -2.361908 0
M  V30 22 H -1.629428 0.334316 1.649827 0
M  V30 23 H -2.963733 2.038740 0.065052 0
M  V30 24 H -1.523765 3.219961 0.110259 0
M  V30 25 H -2.299969 3.539694 -2.182637 0
M  V30 26 H -2.767697 1.793972 -2.239455 0
M  V30 END ATOM
M  V30 BEGIN BOND
M  V30 1 2 1 2
M  V30 2 1 2 3
M  V30 3 1 3 4
M  V30 4 2 4 5
M  V30 5 1 4 6
M  V30 6 1 6 7
M  V30 7 2 7 8
M  V30 8 1 8 9
M  V30 9 2 9 10
M  V30 10 1 10 11
M  V30 11 2 11 12
M  V30 12 1 12 13
M  V30 13 2 13 14
M  V30 14 1 13 15
M  V30 15 1 15 16
M  V30 16 1 16 17
M  V30 17 1 7 2
M  V30 18 1 14 9
M  V30 19 1 17 12
M  V30 20 1 3 18
M  V30 21 1 8 19
M  V30 22 1 10 20
M  V30 23 1 11 21
M  V30 24 1 14 22
M  V30 25 1 15 23
M  V30 26 1 15 24
M  V30 27 1 16 25
M  V30 28 1 16 26
M  V30 END BOND
M  V30 END CTAB
M  END
>  <Dataset>  (996) 
ChEMBL_Kinases

>  <Ligand_Instance>  (996) 
nan

>  <PDB_ID>  (996) 
nan

>  <Standardized_SMILES>  (996) 
O=C1NC(=S)S/C1=C\c1ccc2c(c1)CCO2

>  <Name>  (996) 
nan

>  <Pocket>  (996) 
nan

>  <ATP_Site>  (996) 
nan

>  <Peripheral>  (996) 
nan

>  <Num_H_Atoms_ProtBoundConf>  (996) 
nan

>  <Num_Resolved_Atoms>  (996) 
nan

>  <Num_Not_Resolved_Atoms>  (996) 
nan

$$$$
CHEMBL493911
     RDKit          3D

  0  0  0  0  0  0  0  0  0  0999 V3000
M  V30 BEGIN CTAB
M  V30 COUNTS 43 46 0 0 0
M  V30 BEGIN ATOM
M  V30 1 C 0.179649 -2.814174 0.171604 0
M  V30 2 C 1.346370 -1.944370 0.656346 0
M  V30 3 N 1.539694 -0.888553 -0.284732 0
M  V30 4 C 2.350884 -0.942203 -1.356016 0
M  V30 5 C 3.201302 -2.032858 -1.814468 0
M  V30 6 N 3.415327 -3.255505 -1.320726 0
M  V30 7 O 4.266772 -3.880394 -2.080136 0
M  V30 8 N 4.655758 -3.157939 -3.074679 0
M  V30 9 C 3.997123 -1.971529 -2.938933 0
M  V30 10 N 4.187690 -0.919138 -3.874909 0
M  V30 11 N 2.275189 0.226255 -2.003947 0
M  V30 12 C 1.405136 1.049225 -1.347071 0
M  V30 13 C 1.035891 2.326143 -1.665355 0
M  V30 14 N 0.158602 2.877493 -0.824953 0
M  V30 15 C -0.338814 2.253618 0.253806 0
M  V30 16 C 0.012852 0.968514 0.601306 0
M  V30 17 O -0.376736 0.164427 1.648738 0
M  V30 18 C -1.289088 0.520320 2.662007 0
M  V30 19 C -0.641501 0.570646 4.021513 0
M  V30 20 C -0.987026 -0.623628 4.871916 0
M  V30 21 N -2.402882 -0.623432 5.055032 0
M  V30 22 C -3.194337 -0.626996 3.883600 0
M  V30 23 C -2.533066 -0.322684 2.594721 0
M  V30 24 C 0.933520 0.329800 -0.241819 0
M  V30 25 H -0.436733 -3.126266 1.052572 0
M  V30 26 H -0.476725 -2.254116 -0.510420 0
M  V30 27 H 0.541783 -3.719178 -0.369850 0
M  V30 28 H 2.230678 -2.614515 0.637956 0
M  V30 29 H 1.175769 -1.559060 1.670330 0
M  V30 30 H 4.552769 0.029456 -3.662889 0
M  V30 31 H 4.020199 -0.859002 -4.902483 0
M  V30 32 H 1.447304 2.809490 -2.536628 0
M  V30 33 H -1.040029 2.707254 0.917163 0
M  V30 34 H -1.621718 1.555615 2.449199 0
M  V30 35 H -0.923117 1.478460 4.580852 0
M  V30 36 H 0.452994 0.571210 3.875869 0
M  V30 37 H -0.526577 -0.423279 5.870127 0
M  V30 38 H -0.573666 -1.560436 4.508227 0
M  V30 39 H -2.757813 -0.056698 5.839590 0
M  V30 40 H -4.017861 0.125613 4.037135 0
M  V30 41 H -3.737180 -1.614535 3.849936 0
M  V30 42 H -2.258388 -1.285899 2.114316 0
M  V30 43 H -3.275032 0.133468 1.874942 0
M  V30 END ATOM
M  V30 BEGIN BOND
M  V30 1 1 1 2
M  V30 2 1 2 3
M  V30 3 1 3 4
M  V30 4 1 4 5
M  V30 5 2 5 6
M  V30 6 1 6 7
M  V30 7 1 7 8
M  V30 8 2 8 9
M  V30 9 1 9 10
M  V30 10 2 4 11
M  V30 11 1 11 12
M  V30 12 2 12 13
M  V30 13 1 13 14
M  V30 14 2 14 15
M  V30 15 1 15 16
M  V30 16 1 16 17
M  V30 17 1 17 18
M  V30 18 1 18 19
M  V30 19 1 19 20
M  V30 20 1 20 21
M  V30 21 1 21 22
M  V30 22 1 22 23
M  V30 23 2 16 24
M  V30 24 1 24 3
M  V30 25 1 9 5
M  V30 26 1 24 12
M  V30 27 1 23 18
M  V30 28 1 1 25
M  V30 29 1 1 26
M  V30 30 1 1 27
M  V30 31 1 2 28
M  V30 32 1 2 29
M  V30 33 1 10 30
M  V30 34 1 10 31
M  V30 35 1 13 32
M  V30 36 1 15 33
M  V30 37 1 18 34
M  V30 38 1 19 35
M  V30 39 1 19 36
M  V30 40 1 20 37
M  V30 41 1 20 38
M  V30 42 1 21 39
M  V30 43 1 22 40
M  V30 44 1 22 41
M  V30 45 1 23 42
M  V30 46 1 23 43
M  V30 END BOND
M  V30 END CTAB
M  END
>  <Dataset>  (997) 
ChEMBL_Kinases

>  <Ligand_Instance>  (997) 
nan

>  <PDB_ID>  (997) 
nan

>  <Standardized_SMILES>  (997) 
CCn1c(-c2nonc2N)nc2cncc(OC3CCNCC3)c21

>  <Name>  (997) 
nan

>  <Pocket>  (997) 
nan

>  <ATP_Site>  (997) 
nan

>  <Peripheral>  (997) 
nan

>  <Num_H_Atoms_ProtBoundConf>  (997) 
nan

>  <Num_Resolved_Atoms>  (997) 
nan

>  <Num_Not_Resolved_Atoms>  (997) 
nan

$$$$
CHEMBL1802852
     RDKit          3D

  0  0  0  0  0  0  0  0  0  0999 V3000
M  V30 BEGIN CTAB
M  V30 COUNTS 39 41 0 0 0
M  V30 BEGIN ATOM
M  V30 1 C -0.159267 -5.309184 2.056189 0
M  V30 2 O 0.627583 -4.196353 2.293792 0
M  V30 3 C 0.822397 -3.427717 1.147974 0
M  V30 4 C 1.699349 -2.265038 1.623157 0
M  V30 5 N 0.910432 -1.573220 2.663800 0
M  V30 6 C -0.264883 -0.819630 2.280839 0
M  V30 7 N -0.245463 -0.036173 1.254124 0
M  V30 8 C -1.472472 0.607386 1.045999 0
M  V30 9 C -1.774068 1.477855 0.074319 0
M  V30 10 C -0.656946 1.758386 -0.851508 0
M  V30 11 C -0.677022 1.761936 -2.237942 0
M  V30 12 C 0.480421 2.092143 -2.898247 0
M  V30 13 C 1.659676 2.420146 -2.271356 0
M  V30 14 C 1.697813 2.421762 -0.893066 0
M  V30 15 C 0.539344 2.091141 -0.203610 0
M  V30 16 O 2.979968 2.780649 -0.520212 0
M  V30 17 C 3.852275 2.718645 -1.626372 0
M  V30 18 O 2.934463 2.784563 -2.712447 0
M  V30 19 C -2.332386 0.124594 2.113220 0
M  V30 20 O -3.513204 0.423898 2.329170 0
M  V30 21 N -1.567605 -0.783220 2.901104 0
M  V30 22 C -1.922506 -1.559684 4.079383 0
M  V30 23 H -1.168667 -5.001672 1.682620 0
M  V30 24 H 0.270368 -6.021222 1.339280 0
M  V30 25 H -0.344348 -5.768539 3.055008 0
M  V30 26 H -0.143177 -3.053381 0.762654 0
M  V30 27 H 1.312804 -4.042399 0.378289 0
M  V30 28 H 2.590080 -2.666623 2.109299 0
M  V30 29 H 1.912876 -1.563037 0.782912 0
M  V30 30 H 1.051839 -1.533147 3.723392 0
M  V30 31 H -2.803437 1.860803 0.099619 0
M  V30 32 H -1.628032 1.490278 -2.656915 0
M  V30 33 H 0.429144 2.075833 -3.965279 0
M  V30 34 H 0.660565 2.117510 0.884611 0
M  V30 35 H 4.540162 3.581572 -1.619181 0
M  V30 36 H 4.371709 1.729258 -1.688297 0
M  V30 37 H -2.563850 -2.422412 3.800523 0
M  V30 38 H -2.487603 -0.980127 4.826138 0
M  V30 39 H -1.031368 -1.936384 4.583129 0
M  V30 END ATOM
M  V30 BEGIN BOND
M  V30 1 1 1 2
M  V30 2 1 2 3
M  V30 3 1 3 4
M  V30 4 1 4 5
M  V30 5 1 5 6
M  V30 6 2 6 7
M  V30 7 1 7 8
M  V30 8 2 8 9
M  V30 9 1 9 10
M  V30 10 2 10 11
M  V30 11 1 11 12
M  V30 12 2 12 13
M  V30 13 1 13 14
M  V30 14 2 14 15
M  V30 15 1 14 16
M  V30 16 1 16 17
M  V30 17 1 17 18
M  V30 18 1 8 19
M  V30 19 2 19 20
M  V30 20 1 19 21
M  V30 21 1 21 22
M  V30 22 1 21 6
M  V30 23 1 15 10
M  V30 24 1 18 13
M  V30 25 1 1 23
M  V30 26 1 1 24
M  V30 27 1 1 25
M  V30 28 1 3 26
M  V30 29 1 3 27
M  V30 30 1 4 28
M  V30 31 1 4 29
M  V30 32 1 5 30
M  V30 33 1 9 31
M  V30 34 1 11 32
M  V30 35 1 12 33
M  V30 36 1 15 34
M  V30 37 1 17 35
M  V30 38 1 17 36
M  V30 39 1 22 37
M  V30 40 1 22 38
M  V30 41 1 22 39
M  V30 END BOND
M  V30 END CTAB
M  END
>  <Dataset>  (998) 
ChEMBL_Kinases

>  <Ligand_Instance>  (998) 
nan

>  <PDB_ID>  (998) 
nan

>  <Standardized_SMILES>  (998) 
COCCNC1=N/C(=C\c2ccc3c(c2)OCO3)C(=O)N1C

>  <Name>  (998) 
nan

>  <Pocket>  (998) 
nan

>  <ATP_Site>  (998) 
nan

>  <Peripheral>  (998) 
nan

>  <Num_H_Atoms_ProtBoundConf>  (998) 
nan

>  <Num_Resolved_Atoms>  (998) 
nan

>  <Num_Not_Resolved_Atoms>  (998) 
nan

$$$$
CHEMBL201511
     RDKit          3D

  0  0  0  0  0  0  0  0  0  0999 V3000
M  V30 BEGIN CTAB
M  V30 COUNTS 46 49 0 0 0
M  V30 BEGIN ATOM
M  V30 1 C -3.877440 -4.079251 1.533801 0
M  V30 2 O -2.501285 -4.343312 1.371365 0
M  V30 3 C -1.544561 -3.337062 1.332310 0
M  V30 4 C -1.976013 -2.035394 1.457915 0
M  V30 5 C -1.078492 -0.988794 1.428831 0
M  V30 6 C -1.373452 0.427793 1.548128 0
M  V30 7 C -0.786930 1.439623 0.938924 0
M  V30 8 C 0.307372 1.487028 -0.021613 0
M  V30 9 C 0.585676 0.845293 -1.209791 0
M  V30 10 N 1.774290 1.234040 -1.701453 0
M  V30 11 C 2.313906 2.142921 -0.849980 0
M  V30 12 C 3.517316 2.852098 -0.864208 0
M  V30 13 C 3.847079 3.738075 0.162111 0
M  V30 14 C 2.956623 3.904330 1.202567 0
M  V30 15 C 1.775374 3.194245 1.195116 0
M  V30 16 C 1.412373 2.308139 0.196742 0
M  V30 17 C -1.452584 2.688624 1.374651 0
M  V30 18 O -1.268719 3.920243 1.080475 0
M  V30 19 N -2.496129 2.373193 2.303568 0
M  V30 20 C -2.439731 0.941791 2.407680 0
M  V30 21 O -3.244453 0.319738 3.165102 0
M  V30 22 C 0.247034 -1.323389 1.269571 0
M  V30 23 C 0.736873 -2.605204 1.138601 0
M  V30 24 O 2.003634 -3.080015 0.974707 0
M  V30 25 C 3.129819 -2.267400 0.906769 0
M  V30 26 C -0.190111 -3.655154 1.170854 0
M  V30 27 O 0.096500 -5.010917 1.056933 0
M  V30 28 C 0.105079 -5.589976 -0.236478 0
M  V30 29 H -4.385419 -5.046332 1.723824 0
M  V30 30 H -4.066365 -3.322908 2.328018 0
M  V30 31 H -4.289479 -3.633957 0.594821 0
M  V30 32 H -3.009687 -1.737650 1.584200 0
M  V30 33 H -0.120220 0.139654 -1.616864 0
M  V30 34 H 2.227331 0.908151 -2.585550 0
M  V30 35 H 4.219949 2.728471 -1.673727 0
M  V30 36 H 4.776066 4.304360 0.178417 0
M  V30 37 H 3.220689 4.601846 2.010492 0
M  V30 38 H 1.160251 3.388758 2.057604 0
M  V30 39 H -3.157274 3.032810 2.802397 0
M  V30 40 H 1.017826 -0.577096 1.242067 0
M  V30 41 H 3.616811 -2.258771 -0.100656 0
M  V30 42 H 3.896429 -2.597381 1.667714 0
M  V30 43 H 2.922638 -1.213229 1.163661 0
M  V30 44 H -0.883252 -6.080160 -0.467508 0
M  V30 45 H 0.910510 -6.359229 -0.328179 0
M  V30 46 H 0.252446 -4.825112 -1.026033 0
M  V30 END ATOM
M  V30 BEGIN BOND
M  V30 1 1 1 2
M  V30 2 1 2 3
M  V30 3 2 3 4
M  V30 4 1 4 5
M  V30 5 1 5 6
M  V30 6 2 6 7
M  V30 7 1 7 8
M  V30 8 2 8 9
M  V30 9 1 9 10
M  V30 10 1 10 11
M  V30 11 2 11 12
M  V30 12 1 12 13
M  V30 13 2 13 14
M  V30 14 1 14 15
M  V30 15 2 15 16
M  V30 16 1 7 17
M  V30 17 2 17 18
M  V30 18 1 17 19
M  V30 19 1 19 20
M  V30 20 2 20 21
M  V30 21 2 5 22
M  V30 22 1 22 23
M  V30 23 1 23 24
M  V30 24 1 24 25
M  V30 25 2 23 26
M  V30 26 1 26 27
M  V30 27 1 27 28
M  V30 28 1 26 3
M  V30 29 1 20 6
M  V30 30 1 16 8
M  V30 31 1 16 11
M  V30 32 1 1 29
M  V30 33 1 1 30
M  V30 34 1 1 31
M  V30 35 1 4 32
M  V30 36 1 9 33
M  V30 37 1 10 34
M  V30 38 1 12 35
M  V30 39 1 13 36
M  V30 40 1 14 37
M  V30 41 1 15 38
M  V30 42 1 19 39
M  V30 43 1 22 40
M  V30 44 1 25 41
M  V30 45 1 25 42
M  V30 46 1 25 43
M  V30 47 1 28 44
M  V30 48 1 28 45
M  V30 49 1 28 46
M  V30 END BOND
M  V30 END CTAB
M  END
>  <Dataset>  (999) 
ChEMBL_Kinases

>  <Ligand_Instance>  (999) 
nan

>  <PDB_ID>  (999) 
nan

>  <Standardized_SMILES>  (999) 
COc1cc(C2=C(c3c[nH]c4ccccc34)C(=O)NC2=O)cc(OC)c1OC

>  <Name>  (999) 
MALEIMIDE

>  <Pocket>  (999) 
nan

>  <ATP_Site>  (999) 
nan

>  <Peripheral>  (999) 
nan

>  <Num_H_Atoms_ProtBoundConf>  (999) 
nan

>  <Num_Resolved_Atoms>  (999) 
nan

>  <Num_Not_Resolved_Atoms>  (999) 
nan

$$$$
